#------------------------------------------------------------------------------
#$Date: 2017-05-31 05:07:24 +0300 (Wed, 31 May 2017) $
#$Revision: 197060 $
#$URL: file:///home/coder/svn-repositories/cod/cif/7/04/31/7043163.cif $
#------------------------------------------------------------------------------
#
# This file is available in the Crystallography Open Database (COD),
# http://www.crystallography.net/
#
# All data on this site have been placed in the public domain by the
# contributors.
#
data_7043163
loop_
_publ_author_name
'Hansen, Bjarne R. S.'
'Tumanov, Nikolay'
'Santoru, Antonio'
'Pistidda, Claudio'
'Bednarcik, Jozef'
'Klassen, Thomas'
'Dornheim, Martin'
'Filinchuk, Yaroslav'
'Jensen, Torben Rene R.'
_publ_section_title
;
 Synthesis, structures and thermal decomposition of ammine MxB12H12
 complexes (M = Li, Na, Ca)
;
_journal_name_full               'Dalton Trans.'
_journal_paper_doi               10.1039/C7DT01414G
_journal_year                    2017
_chemical_formula_moiety         'B12 H12 2-, 2(H3 N), 2(Na 1+) '
_chemical_formula_sum            'B12 H18 N2 Na2'
_chemical_formula_weight         221.86
_chemical_name_common
; 
Diammine Disodium Dodecahydro-closo-dodecaborate
;
_chemical_name_systematic
; 
Diammine Disodium Dodecahydro-closo-dodecaborate
;
_chemical_properties_physical    ', Air-sensitive,Moisture-sensitive'
_space_group_IT_number           164
_symmetry_cell_setting           trigonal
_symmetry_space_group_name_Hall  '-P 3 2"'
_symmetry_space_group_name_H-M   'P -3 m 1'
_audit_block_doi                 10.5517/ccdc.csd.cc1lzn4c
_audit_update_record
;
2016-06-30 deposited with the CCDC.
2017-05-30 downloaded from the CCDC.
;
_cell_angle_alpha                90.00000
_cell_angle_beta                 90.00000
_cell_angle_gamma                120.00000
_cell_formula_units_Z            1
_cell_length_a                   7.16723(11)
_cell_length_b                   7.16723(11)
_cell_length_c                   7.15737(19)
_cell_measurement_reflns_used    169
_cell_measurement_temperature    393
_cell_measurement_theta_max      45.01080
_cell_measurement_theta_min      4.50000
_cell_volume                     318.410(11)
_computing_structure_refinement  FULLPROF
_computing_structure_solution    FOX
_diffrn_ambient_temperature      393
_diffrn_detector                 'solid-state silicon microstrip detector'
_diffrn_detector_type            'Mythen II'
_diffrn_measurement_device_type  'Mythen II'
_diffrn_radiation_type           synchrotron
_diffrn_radiation_wavelength     0.7750
_diffrn_source                   synchrotron
_exptl_absorpt_correction_type   none
_exptl_crystal_colour            colourless
_exptl_crystal_description       powder
_pd_char_colour                  colourless
_pd_instr_location
' X04SA beamline, Swiss Light Source (SLS), Villigen, Switzerland'
_pd_meas_2theta_range_inc        0.003603
_pd_meas_2theta_range_max        45.01080
_pd_meas_2theta_range_min        4.50000
_pd_meas_number_of_points        11249
_pd_meas_scan_method             step
_pd_proc_2theta_range_inc        0.003603
_pd_proc_2theta_range_max        45.0022
_pd_proc_2theta_range_min        4.4914
_pd_proc_ls_pref_orient_corr     ' ?'
_pd_proc_ls_prof_R_factor        1.9244
_pd_proc_ls_prof_wR_expected     1.5420
_pd_proc_ls_prof_wR_factor       2.7338
_pd_proc_number_of_points        11249
_pd_proc_wavelength              0.776190
_pd_spec_mounting
; 
Thin-wall 0.5 mm glass capillary
;
_pd_spec_mount_mode              transmission
_pd_spec_shape                   cylinder
_pd_spec_size_axial              4
_pd_spec_size_equat              0.5
_pd_spec_size_thick              0.5
_refine_ls_goodness_of_fit_all   1.85
_refine_ls_number_parameters     10
_refine_ls_number_reflns         169
_refine_ls_number_restraints     1
_refine_ls_R_I_factor            13.0338
_refine_ls_shift/su_max          0.01
_cod_data_source_file            c7dt01414g2.cif
_cod_data_source_block           Na2B12H12_2NH3
_cod_depositor_comments
;
The following automatic conversions were performed:

'_symmetry_cell_setting' value 'Trigonal' changed to 'trigonal'
according to
/home/data/users/saulius/crontab/automatic-downloads/rss-feeds/RSC/lib/dictionaries/cif_core.dic
dictionary named 'cif_core.dic' version 2.4.2 from 2011-04-26.

Automatic conversion script
Id: cif_fix_values 4973 2017-02-22 13:04:09Z antanas 
;
_cod_original_cell_volume        318.410(15)
_cod_database_code               7043163
_pd_proc_ls_prof_cr_factor       27.6248
_pd_proc_ls_prof_cwr_factor      22.1038
_pd_proc_ls_prof_cwr_expected    12.4677
_pd_proc_ls_prof_chi2            3.1431
_pd_proc_ls_prof_echi2           3.1838
loop_
_symmetry_equiv_pos_as_xyz
x,y,z
-y,x-y,z
-x+y,-x,z
-y,-x,z
-x+y,y,z
x,x-y,z
-x,-y,-z
y,-x+y,-z
x-y,x,-z
y,x,-z
x-y,-y,-z
-x,-x+y,-z
loop_
_atom_site_label
_atom_site_fract_x
_atom_site_fract_y
_atom_site_fract_z
_atom_site_U_iso_or_equiv
_atom_site_occupancy
_atom_site_adp_type
_atom_site_type_symbol
B1 0.16741 0.08370 0.20340 0.0268(5) 1.00000 Uiso B
B2 0.13981 0.27962 0.04485 0.0268(5) 1.00000 Uiso B
H1 0.28590 0.14294 0.34736 0.0268(5) 1.00000 Uiso H
H2 0.23876 0.47753 0.07659 0.0268(5) 1.00000 Uiso H
N1 0.33333 0.66667 0.4856(6) 0.171(2) 1.00000 Uiso N
H11 0.2639(2) 0.7362(2) 0.4440(6) 0.171(2) 1.00000 Uiso H
Na1 0.33333 0.66667 0.8053(4) 0.1385(13) 1.00000 Uiso Na
loop_
_atom_type_symbol
_atom_type_scat_Cromer_Mann_a1
_atom_type_scat_Cromer_Mann_b1
_atom_type_scat_Cromer_Mann_a2
_atom_type_scat_Cromer_Mann_b2
_atom_type_scat_Cromer_Mann_a3
_atom_type_scat_Cromer_Mann_b3
_atom_type_scat_Cromer_Mann_a4
_atom_type_scat_Cromer_Mann_b4
_atom_type_scat_Cromer_Mann_c
_atom_type_scat_dispersion_real
_atom_type_scat_dispersion_imag
_atom_type_scat_source
b 2.05450 23.21850 1.33260 1.02100 1.09790 60.34980 0.70680 0.14030 -0.19320
0.00000 0.00100
International_Tables_for_Crystallography_Vol.C(1991)_Tables_6.1.1.4_and_6.1.1.5
h 0.49300 10.51090 0.32291 26.12570 0.14019 3.14236 0.04081 57.79970 0.00304
0.00000 0.00000
International_Tables_for_Crystallography_Vol.C(1991)_Tables_6.1.1.4_and_6.1.1.5
n 12.21260 0.00570 3.13220 9.89330 2.01250 28.99750 1.16630 0.58260 -11.52900
0.00400 0.00300
International_Tables_for_Crystallography_Vol.C(1991)_Tables_6.1.1.4_and_6.1.1.5
na 4.76260 3.28500 3.17360 8.84220 1.26740 0.31360 1.11280 129.42400 0.67600
0.03000 0.02500
International_Tables_for_Crystallography_Vol.C(1991)_Tables_6.1.1.4_and_6.1.1.5
loop_
_geom_angle_atom_site_label_1
_geom_angle_atom_site_label_2
_geom_angle_atom_site_label_3
_geom_angle
_geom_angle_site_symmetry_1
_geom_angle_site_symmetry_3
B1 B1 H1 120.208(3) 2_555 1_555
B1 B2 H2 122 1_555 1_555
H11 N1 H11 109.9(3) 1_555 2_665
H11 N1 H11 109.9(3) 1_555 3_565
H11 N1 Na1 109.0(4) 1_555 1_555
H11 N1 H11 109.9(3) 2_665 3_565
H11 N1 Na1 109.0(4) 2_665 1_555
H11 N1 Na1 109.0(4) 3_565 1_555
loop_
_geom_bond_atom_site_label_1
_geom_bond_atom_site_label_2
_geom_bond_distance
_geom_bond_site_symmetry_2
B1 B1 1.79980(10) 2_555
B1 B2 1.89110(10) 1_555
B1 H1 1.27000 1_555
B2 H2 1.25 1_555
N1 H11 0.912(3) 1_555
N1 Na1 2.288(5) 1_555
loop_
_pd_proc_point_id
_pd_proc_2theta_corrected
_pd_proc_intensity_total
_pd_calc_intensity_total
_pd_proc_intensity_bkg_calc
1 4.4914 279(5) 283.1430 283.1430
2 4.4950 273(4) 283.1430 283.1430
3 4.4986 280(5) 283.1430 283.1430
4 4.5022 278(5) 283.1430 283.1430
5 4.5058 279(5) 283.1430 283.1430
6 4.5094 284(5) 283.1430 283.1430
7 4.5130 286(5) 283.1430 283.1430
8 4.5166 282(5) 283.1430 283.1430
9 4.5202 280(5) 283.1430 283.1430
10 4.5238 285(5) 283.1430 283.1430
11 4.5274 282(5) 283.1430 283.1430
12 4.5310 283(5) 283.1430 283.1430
13 4.5346 276(6) 283.1430 283.1430
14 4.5382 274(5) 283.1430 283.1430
15 4.5418 282(5) 283.1430 283.1430
16 4.5454 285(5) 283.1430 283.1430
17 4.5490 281(5) 283.1430 283.1430
18 4.5526 282(5) 283.1430 283.1430
19 4.5562 285(5) 283.1430 283.1430
20 4.5598 282(5) 283.1430 283.1430
21 4.5634 279(5) 283.1430 283.1430
22 4.5670 279(5) 283.1430 283.1430
23 4.5706 290(5) 283.1430 283.1430
24 4.5742 285(5) 283.1430 283.1430
25 4.5778 284(5) 283.1430 283.1430
26 4.5814 273(5) 283.1430 283.1430
27 4.5850 279(5) 283.1430 283.1430
28 4.5886 277(5) 283.1430 283.1430
29 4.5922 277(5) 283.1430 283.1430
30 4.5958 281(5) 283.1430 283.1430
31 4.5994 285(5) 283.1430 283.1430
32 4.6030 282(5) 283.1430 283.1430
33 4.6066 282(5) 283.1430 283.1430
34 4.6102 281(4) 283.1430 283.1430
35 4.6138 281(3) 283.1430 283.1430
36 4.6174 278(3) 283.1430 283.1430
37 4.6210 282(3) 283.1430 283.1430
38 4.6246 282(3) 283.1430 283.1430
39 4.6282 282(3) 283.1430 283.1430
40 4.6318 280(3) 283.1430 283.1430
41 4.6354 280(3) 283.1430 283.1430
42 4.6390 279(3) 283.1430 283.1430
43 4.6426 278(3) 283.1430 283.1430
44 4.6462 282(3) 283.1430 283.1430
45 4.6498 278(3) 283.1430 283.1430
46 4.6534 281(3) 283.1430 283.1430
47 4.6570 287(3) 283.1430 283.1430
48 4.6606 284(3) 283.1430 283.1430
49 4.6642 284(3) 283.1430 283.1430
50 4.6678 286(3) 283.1430 283.1430
51 4.6714 285(3) 283.1430 283.1430
52 4.6750 285(3) 283.1430 283.1430
53 4.6786 282(3) 283.1430 283.1430
54 4.6822 281(3) 283.1430 283.1430
55 4.6858 285(3) 283.1430 283.1430
56 4.6894 282(3) 283.1430 283.1430
57 4.6930 283(4) 283.1430 283.1430
58 4.6966 287(5) 283.1430 283.1430
59 4.7002 284(5) 283.1430 283.1430
60 4.7038 284(5) 283.1430 283.1430
61 4.7074 278(5) 283.1430 283.1430
62 4.7110 284(5) 283.1430 283.1430
63 4.7146 281(5) 283.1430 283.1430
64 4.7182 280(5) 283.1430 283.1430
65 4.7218 281(5) 283.1430 283.1430
66 4.7254 285(5) 283.1430 283.1430
67 4.7290 280(5) 283.1430 283.1430
68 4.7326 280(5) 283.1430 283.1430
69 4.7362 282(5) 283.1430 283.1430
70 4.7398 282(5) 283.1430 283.1430
71 4.7434 280(5) 283.1430 283.1430
72 4.7470 278(5) 283.1430 283.1430
73 4.7506 278(5) 283.1430 283.1430
74 4.7542 281(5) 283.1430 283.1430
75 4.7578 285(5) 283.1430 283.1430
76 4.7614 285(5) 283.1430 283.1430
77 4.7650 289(5) 283.1430 283.1430
78 4.7686 288(5) 283.1430 283.1430
79 4.7722 286(5) 283.1430 283.1430
80 4.7758 283(5) 283.1430 283.1430
81 4.7794 280(5) 283.1430 283.1430
82 4.7830 279(5) 283.1430 283.1430
83 4.7866 281(5) 283.1430 283.1430
84 4.7902 285(5) 283.1430 283.1430
85 4.7938 280(5) 283.1430 283.1430
86 4.7974 285(5) 283.1430 283.1430
87 4.8010 281(5) 283.1430 283.1430
88 4.8046 289(5) 283.1430 283.1430
89 4.8082 289(5) 283.1430 283.1430
90 4.8118 279(5) 283.1430 283.1430
91 4.8154 274(5) 283.1430 283.1430
92 4.8190 274(5) 283.1430 283.1430
93 4.8226 284(5) 283.1430 283.1430
94 4.8262 283(5) 283.1430 283.1430
95 4.8298 285(5) 283.1430 283.1430
96 4.8334 283(5) 283.1430 283.1430
97 4.8370 277(5) 283.1430 283.1430
98 4.8406 278(5) 283.1430 283.1430
99 4.8442 284(5) 283.1430 283.1430
100 4.8478 286(5) 283.1430 283.1430
101 4.8514 282(5) 283.1430 283.1430
102 4.8550 281(5) 283.1430 283.1430
103 4.8586 280(5) 283.1430 283.1430
104 4.8622 280(5) 283.1430 283.1430
105 4.8658 275(5) 283.1430 283.1430
106 4.8694 287(5) 283.1430 283.1430
107 4.8730 288(5) 283.1430 283.1430
108 4.8766 281(5) 283.1430 283.1430
109 4.8802 284(5) 283.1430 283.1430
110 4.8838 281(3) 283.1430 283.1430
111 4.8874 282(3) 283.1430 283.1430
112 4.8910 284(3) 283.1430 283.1430
113 4.8946 281(3) 283.1430 283.1430
114 4.8982 285(3) 283.1430 283.1430
115 4.9018 285(3) 283.1430 283.1430
116 4.9054 282(3) 283.1430 283.1430
117 4.9090 283(3) 283.1430 283.1430
118 4.9126 286(3) 283.1430 283.1430
119 4.9162 286(3) 283.1430 283.1430
120 4.9198 283(3) 283.1430 283.1430
121 4.9234 282(3) 283.1430 283.1430
122 4.9270 285(4) 283.1430 283.1430
123 4.9306 288(3) 283.1430 283.1430
124 4.9342 285(3) 283.1430 283.1430
125 4.9378 284(3) 283.1430 283.1430
126 4.9414 281(3) 283.1430 283.1430
127 4.9450 283(3) 283.1430 283.1430
128 4.9486 282(3) 283.1430 283.1430
129 4.9522 280(3) 283.1430 283.1430
130 4.9558 277(3) 283.1430 283.1430
131 4.9594 284(3) 283.1430 283.1430
132 4.9630 283(4) 283.1430 283.1430
133 4.9666 281(3) 283.1430 283.1430
134 4.9702 283(3) 283.1430 283.1430
135 4.9738 282(3) 283.1430 283.1430
136 4.9774 286(3) 283.1430 283.1430
137 4.9810 281(3) 283.1430 283.1430
138 4.9846 284(3) 283.1430 283.1430
139 4.9882 284(3) 283.1430 283.1430
140 4.9918 280(3) 283.1430 283.1430
141 4.9954 279(3) 283.1430 283.1430
142 4.9990 279(3) 283.1430 283.1430
143 5.0026 283(3) 283.1430 283.1430
144 5.0062 284(3) 283.1430 283.1430
145 5.0098 286(3) 283.1430 283.1430
146 5.0134 288(3) 283.1430 283.1430
147 5.0170 287(3) 283.1430 283.1430
148 5.0206 283(3) 283.1430 283.1430
149 5.0242 279(3) 283.1430 283.1430
150 5.0278 280(3) 283.1430 283.1430
151 5.0314 285(3) 283.1430 283.1430
152 5.0350 285(3) 283.1430 283.1430
153 5.0386 284(3) 283.1430 283.1430
154 5.0422 281(3) 283.1466 283.1466
155 5.0458 282(3) 283.1430 283.1430
156 5.0494 285(4) 283.1394 283.1394
157 5.0530 284(3) 283.1357 283.1357
158 5.0566 288(3) 283.1321 283.1321
159 5.0602 284(3) 283.1284 283.1284
160 5.0638 285(3) 283.1248 283.1248
161 5.0674 285(3) 283.1212 283.1212
162 5.0710 291(3) 283.1175 283.1175
163 5.0746 287(4) 283.1139 283.1139
164 5.0782 286(3) 283.1102 283.1102
165 5.0818 283(3) 283.1066 283.1066
166 5.0854 284(3) 283.1030 283.1030
167 5.0890 286(3) 283.0993 283.0993
168 5.0926 290(3) 283.0957 283.0957
169 5.0962 292(3) 283.0920 283.0920
170 5.0998 288(3) 283.0884 283.0884
171 5.1034 288(3) 283.0847 283.0847
172 5.1070 288(3) 283.0811 283.0811
173 5.1106 288(3) 283.0775 283.0775
174 5.1142 285(3) 283.0738 283.0738
175 5.1178 284(3) 283.0702 283.0702
176 5.1214 289(3) 283.0666 283.0666
177 5.1250 286(3) 283.0629 283.0629
178 5.1286 279(3) 283.0593 283.0593
179 5.1322 279(3) 283.0556 283.0556
180 5.1358 281(3) 283.0520 283.0520
181 5.1394 285(3) 283.0483 283.0483
182 5.1430 285(3) 283.0447 283.0447
183 5.1466 281(3) 283.0411 283.0411
184 5.1502 288(3) 283.0374 283.0374
185 5.1538 285(3) 283.0338 283.0338
186 5.1574 286(3) 283.0302 283.0302
187 5.1610 286(3) 283.0265 283.0265
188 5.1646 287(3) 283.0229 283.0229
189 5.1682 285(3) 283.0192 283.0192
190 5.1718 286(3) 283.0156 283.0156
191 5.1754 287(3) 283.0119 283.0119
192 5.1790 286(3) 283.0083 283.0083
193 5.1826 287(3) 283.0047 283.0047
194 5.1862 287(3) 283.0010 283.0010
195 5.1898 284(3) 282.9974 282.9974
196 5.1934 284(3) 282.9937 282.9937
197 5.1970 283(4) 282.9901 282.9901
198 5.2006 282(4) 282.9865 282.9865
199 5.2042 286(3) 282.9828 282.9828
200 5.2078 284(3) 282.9792 282.9792
201 5.2114 284(3) 282.9756 282.9756
202 5.2150 283(3) 282.9719 282.9719
203 5.2186 281(3) 282.9683 282.9683
204 5.2222 288(3) 282.9646 282.9646
205 5.2258 282(3) 282.9610 282.9610
206 5.2294 287(3) 282.9573 282.9573
207 5.2330 280(3) 282.9537 282.9537
208 5.2366 284(3) 282.9501 282.9501
209 5.2402 282(3) 282.9464 282.9464
210 5.2438 286(3) 282.9428 282.9428
211 5.2474 283(3) 282.9391 282.9391
212 5.2510 286(3) 282.9355 282.9355
213 5.2546 287(3) 282.9319 282.9319
214 5.2582 286(3) 282.9282 282.9282
215 5.2618 288(3) 282.9246 282.9246
216 5.2654 287(3) 282.9209 282.9209
217 5.2690 282(3) 282.9173 282.9173
218 5.2726 281(3) 282.9137 282.9137
219 5.2762 282(3) 282.9100 282.9100
220 5.2798 279(3) 282.9064 282.9064
221 5.2834 281(3) 282.9027 282.9027
222 5.2870 283(3) 282.8991 282.8991
223 5.2906 285(3) 282.8954 282.8954
224 5.2942 280(3) 282.8918 282.8918
225 5.2978 284(3) 282.8882 282.8882
226 5.3014 283(3) 282.8845 282.8845
227 5.3050 285(3) 282.8809 282.8809
228 5.3086 284(3) 282.8773 282.8773
229 5.3122 276(3) 282.8736 282.8736
230 5.3158 284(3) 282.8700 282.8700
231 5.3194 283(3) 282.8663 282.8663
232 5.3230 284(3) 282.8627 282.8627
233 5.3266 279(3) 282.8590 282.8590
234 5.3302 288(3) 282.8554 282.8554
235 5.3338 280(3) 282.8518 282.8518
236 5.3374 283(3) 282.8481 282.8481
237 5.3410 285(3) 282.8445 282.8445
238 5.3446 286(3) 282.8409 282.8409
239 5.3482 285(3) 282.8372 282.8372
240 5.3518 286(3) 282.8336 282.8336
241 5.3554 286(3) 282.8299 282.8299
242 5.3590 283(3) 282.8263 282.8263
243 5.3626 285(3) 282.8226 282.8226
244 5.3662 288(3) 282.8190 282.8190
245 5.3698 281(3) 282.8154 282.8154
246 5.3734 282(3) 282.8117 282.8117
247 5.3770 283(3) 282.8081 282.8081
248 5.3806 284(3) 282.8044 282.8044
249 5.3842 284(4) 282.8008 282.8008
250 5.3878 280(3) 282.7971 282.7971
251 5.3914 288(3) 282.7935 282.7935
252 5.3950 284(3) 282.7899 282.7899
253 5.3986 286(3) 282.7862 282.7862
254 5.4022 277(3) 282.7826 282.7826
255 5.4058 285(3) 282.7790 282.7790
256 5.4094 280(3) 282.7753 282.7753
257 5.4130 279(4) 282.7717 282.7717
258 5.4166 282(3) 282.7680 282.7680
259 5.4202 283(3) 282.7644 282.7644
260 5.4238 288(3) 282.7607 282.7607
261 5.4274 288(3) 282.7571 282.7571
262 5.4310 285(3) 282.7535 282.7535
263 5.4346 280(3) 282.7498 282.7498
264 5.4382 283(3) 282.7462 282.7462
265 5.4418 282(3) 282.7426 282.7426
266 5.4454 280(3) 282.7389 282.7389
267 5.4490 280(3) 282.7353 282.7353
268 5.4526 282(3) 282.7316 282.7316
269 5.4562 285(3) 282.7280 282.7280
270 5.4598 286(3) 282.7243 282.7243
271 5.4634 287(3) 282.7207 282.7207
272 5.4670 285(3) 282.7171 282.7171
273 5.4706 284(3) 282.7134 282.7134
274 5.4742 285(3) 282.7098 282.7098
275 5.4778 285(3) 282.7061 282.7061
276 5.4814 282(3) 282.7025 282.7025
277 5.4850 283(3) 282.6989 282.6989
278 5.4886 283(3) 282.6952 282.6952
279 5.4922 282(3) 282.6916 282.6916
280 5.4958 283(3) 282.6880 282.6880
281 5.4994 283(4) 282.6843 282.6843
282 5.5030 278(3) 282.6807 282.6807
283 5.5066 283(3) 282.6770 282.6770
284 5.5102 284(3) 282.6734 282.6734
285 5.5138 284(3) 282.6697 282.6697
286 5.5174 284(3) 282.6661 282.6661
287 5.5210 286(3) 282.6624 282.6624
288 5.5246 286(3) 282.6588 282.6588
289 5.5282 282(3) 282.6552 282.6552
290 5.5318 280(3) 282.6516 282.6516
291 5.5354 281(3) 282.6479 282.6479
292 5.5390 279(3) 282.6443 282.6443
293 5.5426 281(3) 282.6406 282.6406
294 5.5462 286(3) 282.6370 282.6370
295 5.5498 287(3) 282.6333 282.6333
296 5.5534 284(3) 282.6297 282.6297
297 5.5570 285(3) 282.6261 282.6261
298 5.5606 290(4) 282.6224 282.6224
299 5.5642 281(3) 282.6188 282.6188
300 5.5678 283(3) 282.6151 282.6151
301 5.5714 282(3) 282.6115 282.6115
302 5.5750 286(3) 282.6078 282.6078
303 5.5786 287(3) 282.6042 282.6042
304 5.5822 283(3) 283.0581 282.6006
305 5.5858 281(3) 283.0597 282.5969
306 5.5894 286(3) 283.0614 282.5933
307 5.5930 288(3) 283.0632 282.5897
308 5.5966 286(3) 283.0650 282.5860
309 5.6002 290(3) 283.0670 282.5824
310 5.6038 283(4) 283.0691 282.5787
311 5.6074 281(3) 283.0712 282.5751
312 5.6110 282(3) 283.0735 282.5714
313 5.6146 284(3) 283.0759 282.5678
314 5.6182 284(3) 283.0784 282.5642
315 5.6218 284(3) 283.0809 282.5605
316 5.6254 286(3) 283.0836 282.5569
317 5.6290 284(3) 283.0865 282.5533
318 5.6326 278(3) 283.0894 282.5496
319 5.6362 281(3) 283.0925 282.5460
320 5.6398 283(4) 283.0957 282.5423
321 5.6434 289(3) 283.0990 282.5387
322 5.6470 284(3) 283.1025 282.5350
323 5.6506 284(3) 283.1061 282.5314
324 5.6542 292(3) 283.1098 282.5278
325 5.6578 285(3) 283.1136 282.5241
326 5.6614 282(3) 283.1177 282.5205
327 5.6650 283(3) 283.1219 282.5168
328 5.6686 283(4) 283.1262 282.5132
329 5.6722 286(3) 283.1307 282.5096
330 5.6758 287(3) 283.1353 282.5059
331 5.6794 283(3) 283.1401 282.5023
332 5.6830 281(3) 283.1451 282.4986
333 5.6866 283(3) 283.1503 282.4950
334 5.6902 284(3) 283.1556 282.4914
335 5.6938 287(3) 283.1611 282.4877
336 5.6974 287(3) 283.1669 282.4841
337 5.7010 284(3) 283.1728 282.4804
338 5.7046 284(3) 283.1789 282.4768
339 5.7082 282(3) 283.1852 282.4731
340 5.7118 281(3) 283.1918 282.4695
341 5.7154 280(3) 283.1985 282.4659
342 5.7190 279(4) 283.2055 282.4622
343 5.7226 288(3) 283.2127 282.4586
344 5.7262 287(3) 283.2202 282.4550
345 5.7298 287(3) 283.2279 282.4513
346 5.7334 285(3) 283.2358 282.4477
347 5.7370 285(3) 283.2440 282.4440
348 5.7406 285(3) 283.2525 282.4404
349 5.7442 282(4) 283.2613 282.4367
350 5.7478 282(3) 283.2704 282.4331
351 5.7514 285(3) 283.2797 282.4295
352 5.7550 280(3) 283.2893 282.4258
353 5.7586 284(3) 283.2993 282.4222
354 5.7622 287(3) 283.3096 282.4185
355 5.7658 283(3) 283.3202 282.4149
356 5.7694 282(3) 283.3312 282.4113
357 5.7730 286(4) 283.3425 282.4076
358 5.7766 290(3) 283.3542 282.4040
359 5.7802 286(3) 283.3663 282.4003
360 5.7838 284(3) 283.3787 282.3967
361 5.7874 284(3) 283.3916 282.3931
362 5.7910 282(3) 283.4049 282.3894
363 5.7946 283(3) 283.4186 282.3858
364 5.7982 285(3) 283.4328 282.3821
365 5.8018 281(3) 283.4474 282.3785
366 5.8054 280(3) 283.4626 282.3748
367 5.8090 281(3) 283.4781 282.3712
368 5.8126 287(3) 283.4943 282.3676
369 5.8162 289(3) 283.5110 282.3640
370 5.8198 286(3) 283.5282 282.3603
371 5.8234 287(3) 283.5460 282.3567
372 5.8270 282(3) 283.5644 282.3530
373 5.8306 287(3) 283.5833 282.3494
374 5.8342 292(3) 283.6030 282.3457
375 5.8378 284(3) 283.6233 282.3421
376 5.8414 279(3) 283.6443 282.3384
377 5.8450 284(3) 283.6660 282.3348
378 5.8486 284(3) 283.6885 282.3312
379 5.8522 287(3) 283.7118 282.3275
380 5.8558 284(4) 283.7358 282.3239
381 5.8594 286(3) 283.7607 282.3203
382 5.8630 283(3) 283.7864 282.3166
383 5.8666 282(3) 283.8130 282.3130
384 5.8702 281(3) 283.8407 282.3093
385 5.8738 282(3) 283.8693 282.3057
386 5.8774 285(3) 283.8989 282.3021
387 5.8810 286(3) 283.9296 282.2984
388 5.8846 282(3) 283.9614 282.2948
389 5.8882 279(3) 283.9944 282.2911
390 5.8918 285(3) 284.0285 282.2875
391 5.8954 286(4) 284.0640 282.2838
392 5.8990 289(3) 284.1008 282.2802
393 5.9026 280(3) 284.1390 282.2766
394 5.9062 281(3) 284.1786 282.2729
395 5.9098 290(3) 284.2198 282.2693
396 5.9134 284(3) 284.2626 282.2657
397 5.9170 282(3) 284.3070 282.2620
398 5.9206 286(3) 284.3532 282.2584
399 5.9242 287(3) 284.4012 282.2547
400 5.9278 284(3) 284.4512 282.2511
401 5.9314 284(3) 284.5032 282.2474
402 5.9350 287(3) 284.5573 282.2438
403 5.9386 283(3) 284.6137 282.2402
404 5.9422 284(3) 284.6725 282.2365
405 5.9458 286(3) 284.7337 282.2329
406 5.9494 286(3) 284.7975 282.2292
407 5.9530 284(3) 284.8641 282.2256
408 5.9566 285(3) 284.9337 282.2220
409 5.9602 285(3) 285.0063 282.2183
410 5.9638 286(3) 285.0822 282.2147
411 5.9674 285(3) 285.1614 282.2110
412 5.9710 282(3) 285.2444 282.2074
413 5.9746 285(3) 285.3312 282.2038
414 5.9782 287(3) 285.4221 282.2001
415 5.9818 286(3) 285.5173 282.1965
416 5.9854 286(3) 285.6172 282.1928
417 5.9890 289(3) 285.7220 282.1892
418 5.9926 291(3) 285.8319 282.1855
419 5.9962 290(3) 285.9474 282.1819
420 5.9998 285(3) 286.0689 282.1783
421 6.0034 283(3) 286.1966 282.1746
422 6.0070 285(3) 286.3311 282.1710
423 6.0106 287(3) 286.4729 282.1674
424 6.0142 285(3) 286.6223 282.1637
425 6.0178 285(3) 286.7801 282.1601
426 6.0214 287(3) 286.9467 282.1564
427 6.0250 285(3) 287.1229 282.1528
428 6.0286 286(3) 287.3094 282.1491
429 6.0322 288(3) 287.5070 282.1455
430 6.0358 291(3) 287.7165 282.1419
431 6.0394 285(3) 287.9389 282.1382
432 6.0430 285(3) 288.1753 282.1346
433 6.0466 286(3) 288.4268 282.1310
434 6.0502 287(3) 288.6948 282.1273
435 6.0538 289(3) 288.9806 282.1237
436 6.0574 287(3) 289.2859 282.1200
437 6.0610 286(3) 289.6125 282.1164
438 6.0646 285(3) 289.9623 282.1127
439 6.0682 283(3) 290.3375 282.1091
440 6.0718 286(3) 290.7406 282.1055
441 6.0754 289(3) 291.1745 282.1018
442 6.0790 287(3) 291.6422 282.0982
443 6.0826 290(3) 292.1473 282.0945
444 6.0862 292(3) 292.6940 282.0909
445 6.0898 294(4) 293.2867 282.0872
446 6.0934 292(3) 293.9307 282.0836
447 6.0970 290(3) 294.6319 282.0800
448 6.1006 293(3) 295.3973 282.0763
449 6.1042 298(4) 296.2350 282.0727
450 6.1078 297(3) 297.1538 282.0691
451 6.1114 296(3) 298.1648 282.0654
452 6.1150 296(3) 299.2802 282.0618
453 6.1186 296(4) 300.5149 282.0581
454 6.1222 294(3) 301.8859 282.0545
455 6.1258 294(3) 303.4142 282.0508
456 6.1294 302(4) 305.1242 282.0472
457 6.1330 306(4) 307.0461 282.0436
458 6.1366 307(4) 309.2175 282.0399
459 6.1402 312(3) 311.6877 282.0363
460 6.1438 315(3) 314.5237 282.0327
461 6.1474 324(4) 317.8222 282.0290
462 6.1510 329(4) 321.7316 282.0254
463 6.1546 331(4) 326.4893 282.0217
464 6.1582 341(4) 332.4768 282.0181
465 6.1618 357(4) 340.3048 282.0145
466 6.1654 371(5) 350.9205 282.0108
467 6.1690 390(4) 365.7372 282.0072
468 6.1726 417(4) 386.7335 282.0035
469 6.1762 451(5) 416.4993 281.9999
470 6.1798 495(6) 458.1377 281.9962
471 6.1834 557(8) 514.9976 281.9926
472 6.1870 617(9) 590.1177 281.9890
473 6.1906 718(12) 685.5082 281.9853
474 6.1942 822(13) 801.2611 281.9817
475 6.1978 953(16) 934.7346 281.9781
476 6.2014 1104(18) 1079.6371 281.9744
477 6.2050 1254(18) 1225.3262 281.9708
478 6.2086 1380(16) 1356.2950 281.9671
479 6.2122 1476(14) 1453.1669 281.9635
480 6.2158 1523(8) 1497.1016 281.9598
481 6.2194 1515(9) 1478.0217 281.9562
482 6.2230 1446(16) 1400.4451 281.9526
483 6.2266 1321(18) 1280.7035 281.9489
484 6.2302 1169(19) 1138.7819 281.9453
485 6.2338 997(17) 992.0096 281.9417
486 6.2374 839(15) 852.9735 281.9380
487 6.2410 704(13) 729.5801 281.9344
488 6.2446 598(9) 625.8746 281.9307
489 6.2482 529(8) 542.7618 281.9271
490 6.2518 467(5) 478.8950 281.9234
491 6.2554 438(4) 431.5307 281.9198
492 6.2590 394(4) 397.3825 281.9162
493 6.2626 376(4) 373.2015 281.9125
494 6.2662 362(4) 356.1701 281.9089
495 6.2698 344(4) 344.0582 281.9052
496 6.2734 333(4) 335.2399 281.9016
497 6.2770 326(4) 328.5956 281.8979
498 6.2806 320(3) 323.3940 281.8943
499 6.2842 312(3) 319.1713 281.8907
500 6.2878 309(3) 315.6417 281.8870
501 6.2914 304(3) 312.6266 281.8834
502 6.2950 303(3) 310.0120 281.8798
503 6.2986 303(3) 307.7198 281.8761
504 6.3022 297(4) 305.6953 281.8725
505 6.3058 296(4) 303.8969 281.8688
506 6.3094 299(3) 302.2919 281.8652
507 6.3130 297(3) 300.8530 281.8615
508 6.3166 297(3) 299.5584 281.8579
509 6.3202 296(3) 298.3897 281.8543
510 6.3238 294(3) 297.3312 281.8506
511 6.3274 296(3) 296.3694 281.8470
512 6.3310 290(3) 295.4930 281.8434
513 6.3346 295(3) 294.6923 281.8397
514 6.3382 294(3) 293.9590 281.8361
515 6.3418 293(3) 293.2855 281.8324
516 6.3454 292(3) 292.6656 281.8288
517 6.3490 289(3) 292.0937 281.8251
518 6.3526 288(3) 291.5652 281.8215
519 6.3562 291(3) 291.0756 281.8179
520 6.3598 294(3) 290.6212 281.8142
521 6.3634 294(3) 290.1988 281.8106
522 6.3670 291(3) 289.8055 281.8069
523 6.3706 290(3) 289.4385 281.8033
524 6.3742 292(3) 289.0955 281.7997
525 6.3778 293(3) 288.7746 281.7960
526 6.3814 295(3) 288.4739 281.7924
527 6.3850 292(3) 288.1917 281.7887
528 6.3886 286(3) 287.9264 281.7851
529 6.3922 285(3) 287.6768 281.7815
530 6.3958 289(3) 287.4416 281.7778
531 6.3994 288(3) 287.2198 281.7742
532 6.4030 283(3) 287.0102 281.7705
533 6.4066 280(3) 286.8121 281.7669
534 6.4102 287(3) 286.6246 281.7632
535 6.4138 291(3) 286.4469 281.7596
536 6.4174 289(3) 286.2784 281.7560
537 6.4210 286(3) 286.1184 281.7523
538 6.4246 288(3) 285.9663 281.7487
539 6.4282 286(3) 285.8217 281.7451
540 6.4318 289(3) 285.6840 281.7414
541 6.4354 282(3) 285.5528 281.7378
542 6.4390 284(3) 285.4276 281.7341
543 6.4426 284(3) 285.3082 281.7305
544 6.4462 282(3) 285.1941 281.7268
545 6.4498 286(3) 285.0851 281.7232
546 6.4534 288(3) 284.9807 281.7196
547 6.4570 287(3) 284.8808 281.7159
548 6.4606 286(3) 284.7851 281.7123
549 6.4642 283(4) 284.6934 281.7086
550 6.4678 288(4) 284.6053 281.7050
551 6.4714 289(3) 284.5208 281.7014
552 6.4750 285(3) 284.4397 281.6977
553 6.4786 285(3) 284.3617 281.6941
554 6.4822 287(3) 284.2866 281.6905
555 6.4858 283(3) 284.2144 281.6868
556 6.4894 281(3) 284.1448 281.6832
557 6.4930 284(3) 284.2917 281.6795
558 6.4966 284(3) 284.2293 281.6759
559 6.5002 284(3) 284.1694 281.6722
560 6.5038 284(3) 284.1116 281.6686
561 6.5074 284(3) 284.0560 281.6649
562 6.5110 284(3) 284.0023 281.6613
563 6.5146 284(4) 283.9506 281.6577
564 6.5182 284(3) 283.9008 281.6541
565 6.5218 284(3) 283.8526 281.6504
566 6.5254 284(3) 283.8061 281.6468
567 6.5290 284(4) 283.7613 281.6431
568 6.5326 284(3) 283.7179 281.6395
569 6.5362 284(3) 283.6760 281.6358
570 6.5398 284(3) 283.6356 281.6322
571 6.5434 284(3) 283.5964 281.6286
572 6.5470 284(4) 283.5586 281.6249
573 6.5506 284(4) 283.5220 281.6213
574 6.5542 284(4) 283.4865 281.6176
575 6.5578 284(4) 283.4522 281.6140
576 6.5614 284(3) 283.4191 281.6104
577 6.5650 284(3) 283.3870 281.6067
578 6.5686 284(3) 283.3559 281.6031
579 6.5722 284(3) 283.3257 281.5994
580 6.5758 284(3) 283.2966 281.5958
581 6.5794 282(3) 283.2683 281.5922
582 6.5830 285(3) 283.2409 281.5885
583 6.5866 284(3) 283.2144 281.5849
584 6.5902 285(3) 283.1887 281.5812
585 6.5938 289(3) 283.1638 281.5776
586 6.5974 283(3) 283.1396 281.5739
587 6.6010 286(3) 283.1162 281.5703
588 6.6046 276(3) 283.0936 281.5667
589 6.6082 289(3) 283.0716 281.5630
590 6.6118 283(3) 283.0503 281.5594
591 6.6154 284(3) 283.0297 281.5558
592 6.6190 286(3) 283.0096 281.5521
593 6.6226 284(3) 282.9903 281.5485
594 6.6262 281(3) 282.9715 281.5448
595 6.6298 282(3) 282.9534 281.5412
596 6.6334 284(3) 282.9358 281.5375
597 6.6370 282(3) 282.9187 281.5339
598 6.6406 281(3) 282.9023 281.5303
599 6.6442 279(3) 282.8863 281.5266
600 6.6478 280(3) 282.8709 281.5230
601 6.6514 283(3) 282.8560 281.5193
602 6.6550 282(3) 282.8416 281.5157
603 6.6586 283(3) 282.8277 281.5121
604 6.6622 280(3) 282.8142 281.5084
605 6.6658 283(3) 282.8013 281.5048
606 6.6694 285(3) 282.7888 281.5011
607 6.6730 282(3) 282.7768 281.4975
608 6.6766 281(3) 282.7652 281.4939
609 6.6802 277(3) 282.7541 281.4902
610 6.6838 287(5) 282.7434 281.4866
611 6.6874 286(3) 282.7332 281.4829
612 6.6910 281(3) 282.7234 281.4793
613 6.6946 284(3) 282.7139 281.4756
614 6.6982 279(3) 282.7050 281.4720
615 6.7018 283(3) 282.6964 281.4684
616 6.7054 281(3) 282.6883 281.4647
617 6.7090 283(3) 282.6805 281.4611
618 6.7126 284(3) 282.6732 281.4575
619 6.7162 284(3) 282.6664 281.4538
620 6.7198 283(3) 282.6598 281.4502
621 6.7234 282(3) 282.6537 281.4465
622 6.7270 281(3) 282.6481 281.4429
623 6.7306 282(3) 282.6428 281.4392
624 6.7342 286(3) 282.6379 281.4356
625 6.7378 288(3) 282.6335 281.4320
626 6.7414 287(3) 282.6294 281.4283
627 6.7450 285(3) 282.6257 281.4247
628 6.7486 285(3) 282.6225 281.4211
629 6.7522 282(3) 282.6197 281.4174
630 6.7558 284(3) 282.6173 281.4138
631 6.7594 289(3) 282.6154 281.4101
632 6.7630 285(3) 282.6139 281.4065
633 6.7666 285(4) 282.6128 281.4028
634 6.7702 285(5) 282.6121 281.3992
635 6.7738 282(3) 282.6119 281.3956
636 6.7774 280(3) 282.6122 281.3919
637 6.7810 279(3) 282.6129 281.3883
638 6.7846 281(3) 282.6141 281.3846
639 6.7882 287(3) 282.6158 281.3810
640 6.7918 285(3) 282.6179 281.3773
641 6.7954 285(3) 282.6206 281.3737
642 6.7990 281(3) 282.6238 281.3701
643 6.8026 279(3) 282.6275 281.3665
644 6.8062 282(3) 282.6317 281.3628
645 6.8098 284(3) 282.6365 281.3592
646 6.8134 284(3) 282.6419 281.3555
647 6.8170 285(3) 282.6478 281.3519
648 6.8206 286(3) 282.6543 281.3482
649 6.8242 285(3) 282.6615 281.3446
650 6.8278 286(3) 282.6692 281.3409
651 6.8314 285(3) 282.6777 281.3373
652 6.8350 282(3) 282.6868 281.3337
653 6.8386 282(3) 282.6966 281.3300
654 6.8422 284(3) 282.7071 281.3264
655 6.8458 291(3) 282.7184 281.3228
656 6.8494 287(3) 282.7305 281.3191
657 6.8530 286(3) 282.2888 281.3155
658 6.8566 284(3) 282.3076 281.3118
659 6.8602 284(3) 282.3272 281.3082
660 6.8638 283(3) 282.3476 281.3046
661 6.8674 283(3) 282.3688 281.3009
662 6.8710 285(3) 282.3910 281.2973
663 6.8746 286(3) 282.4141 281.2936
664 6.8782 286(3) 282.4381 281.2900
665 6.8818 286(3) 282.4633 281.2863
666 6.8854 286(3) 282.4895 281.2827
667 6.8890 286(3) 282.5168 281.2791
668 6.8926 286(3) 282.5454 281.2754
669 6.8962 286(3) 282.5752 281.2718
670 6.8998 286(3) 282.6064 281.2682
671 6.9034 286(3) 282.6389 281.2645
672 6.9070 286(3) 282.6730 281.2609
673 6.9106 286(4) 282.7087 281.2572
674 6.9142 286(4) 282.7459 281.2536
675 6.9178 286(4) 282.7850 281.2499
676 6.9214 286(3) 282.8259 281.2463
677 6.9250 286(3) 282.8688 281.2427
678 6.9286 286(4) 282.9137 281.2390
679 6.9322 286(3) 282.9609 281.2354
680 6.9358 286(3) 283.0104 281.2318
681 6.9394 286(5) 283.0623 281.2281
682 6.9430 286(3) 283.1274 281.2349
683 6.9466 286(3) 283.1999 281.2464
684 6.9502 286(3) 283.2754 281.2578
685 6.9538 286(3) 283.3541 281.2692
686 6.9574 286(3) 283.4362 281.2806
687 6.9610 286(3) 283.5219 281.2921
688 6.9646 286(3) 283.6115 281.3035
689 6.9682 286(3) 283.7054 281.3149
690 6.9718 286(3) 283.8036 281.3264
691 6.9754 286(3) 283.9067 281.3378
692 6.9790 286(3) 284.0149 281.3492
693 6.9826 286(3) 284.1287 281.3607
694 6.9862 287(3) 284.2484 281.3721
695 6.9898 286(3) 284.3747 281.3835
696 6.9934 289(3) 284.5078 281.3949
697 6.9970 288(3) 284.6486 281.4064
698 7.0006 284(3) 284.7975 281.4178
699 7.0042 285(3) 284.9554 281.4292
700 7.0078 291(3) 285.1228 281.4406
701 7.0114 294(3) 285.3008 281.4521
702 7.0150 293(3) 285.4903 281.4635
703 7.0186 293(3) 285.6924 281.4749
704 7.0222 286(3) 285.9082 281.4864
705 7.0258 293(4) 286.1392 281.4978
706 7.0294 287(3) 286.3867 281.5092
707 7.0330 292(3) 286.6526 281.5207
708 7.0366 285(3) 286.9388 281.5321
709 7.0402 286(3) 287.2474 281.5435
710 7.0438 290(3) 287.5811 281.5549
711 7.0474 294(3) 287.9425 281.5664
712 7.0510 292(3) 288.3348 281.5778
713 7.0546 288(3) 288.7621 281.5892
714 7.0582 287(3) 289.2284 281.6006
715 7.0618 289(3) 289.7389 281.6121
716 7.0654 291(3) 290.2991 281.6235
717 7.0690 290(3) 290.9161 281.6349
718 7.0726 290(3) 291.5979 281.6464
719 7.0762 294(3) 292.3537 281.6578
720 7.0798 296(4) 293.1952 281.6692
721 7.0834 293(3) 294.1364 281.6806
722 7.0870 293(3) 295.1952 281.6921
723 7.0906 296(3) 296.3951 281.7035
724 7.0942 298(4) 297.7695 281.7149
725 7.0978 305(3) 299.3668 281.7263
726 7.1014 305(3) 301.2613 281.7378
727 7.1050 307(3) 303.5682 281.7492
728 7.1086 314(4) 306.4694 281.7607
729 7.1122 314(3) 310.2428 281.7721
730 7.1158 323(3) 315.3036 281.7835
731 7.1194 327(4) 322.2435 281.7949
732 7.1230 338(4) 331.8675 281.8064
733 7.1266 352(4) 345.1950 281.8178
734 7.1302 382(6) 363.4255 281.8292
735 7.1338 406(5) 387.8313 281.8406
736 7.1374 437(7) 419.5949 281.8521
737 7.1410 478(8) 459.5459 281.8635
738 7.1446 521(8) 507.8849 281.8749
739 7.1482 580(10) 563.8763 281.8864
740 7.1518 651(11) 625.5989 281.8978
741 7.1554 721(11) 689.6406 281.9092
742 7.1590 787(10) 750.9043 281.9207
743 7.1626 847(10) 802.6058 281.9321
744 7.1662 891(6) 837.1013 281.9435
745 7.1698 897(6) 848.0052 281.9549
746 7.1734 880(6) 833.0547 281.9664
747 7.1770 847(10) 795.3320 281.9778
748 7.1806 779(9) 741.6052 281.9892
749 7.1842 717(9) 679.5032 282.0006
750 7.1878 645(8) 615.5591 282.0121
751 7.1914 569(5) 554.5966 282.0235
752 7.1950 511(4) 499.7523 282.0349
753 7.1986 468(4) 452.7591 282.0464
754 7.2022 438(4) 414.1766 282.0578
755 7.2058 408(5) 383.6863 282.0692
756 7.2094 383(5) 360.3744 282.0807
757 7.2130 367(4) 343.0381 282.0921
758 7.2166 355(4) 330.4039 282.1035
759 7.2202 344(4) 321.2970 282.1149
760 7.2238 338(4) 314.7285 282.1264
761 7.2274 332(4) 309.9317 282.1378
762 7.2310 325(4) 306.3448 282.1492
763 7.2346 316(4) 303.5778 282.1606
764 7.2382 309(3) 301.3696 282.1721
765 7.2418 305(3) 299.5521 282.1835
766 7.2454 302(3) 298.0176 282.1949
767 7.2490 302(3) 296.6969 282.2064
768 7.2526 302(4) 295.5443 282.2178
769 7.2562 294(3) 294.5286 282.2292
770 7.2598 300(3) 293.6273 282.2407
771 7.2634 295(4) 292.8233 282.2521
772 7.2670 299(3) 292.1029 282.2635
773 7.2706 296(3) 291.4550 282.2749
774 7.2742 288(3) 290.8704 282.2864
775 7.2778 296(3) 290.3414 282.2978
776 7.2814 293(3) 289.8613 282.3092
777 7.2850 291(3) 289.4244 282.3206
778 7.2886 287(3) 289.0258 282.3321
779 7.2922 290(3) 288.6615 282.3435
780 7.2958 284(3) 288.3276 282.3549
781 7.2994 293(4) 288.0211 282.3664
782 7.3030 289(4) 287.7390 282.3778
783 7.3066 287(3) 287.4791 282.3892
784 7.3102 286(3) 287.2391 282.4007
785 7.3138 287(3) 287.0172 282.4121
786 7.3174 286(3) 286.8116 282.4235
787 7.3210 285(3) 286.6209 282.4349
788 7.3246 287(3) 286.4438 282.4464
789 7.3282 287(3) 286.2791 282.4578
790 7.3318 286(3) 286.1257 282.4692
791 7.3354 283(3) 285.9827 282.4807
792 7.3390 283(3) 285.8492 282.4921
793 7.3426 290(3) 285.7245 282.5035
794 7.3462 285(3) 285.6078 282.5150
795 7.3498 284(3) 285.4987 282.5264
796 7.3534 287(3) 285.3964 282.5378
797 7.3570 284(3) 285.3004 282.5492
798 7.3606 288(3) 285.2105 282.5607
799 7.3642 284(3) 285.1259 282.5721
800 7.3678 285(3) 285.0465 282.5835
801 7.3714 283(3) 284.9718 282.5949
802 7.3750 284(3) 284.9016 282.6064
803 7.3786 284(3) 284.8355 282.6178
804 7.3822 283(3) 284.7732 282.6292
805 7.3858 283(3) 284.7145 282.6407
806 7.3894 282(3) 284.6592 282.6521
807 7.3930 286(3) 284.6071 282.6635
808 7.3966 285(3) 284.5579 282.6750
809 7.4002 283(3) 284.5115 282.6864
810 7.4038 283(3) 284.4678 282.6978
811 7.4074 279(3) 284.4264 282.7092
812 7.4110 277(3) 284.3875 282.7207
813 7.4146 282(3) 284.3506 282.7321
814 7.4182 284(3) 284.3159 282.7435
815 7.4218 282(3) 284.2831 282.7549
816 7.4254 278(3) 284.2521 282.7664
817 7.4290 277(3) 284.2228 282.7778
818 7.4326 281(3) 284.1953 282.7892
819 7.4362 286(3) 284.1692 282.8007
820 7.4398 284(3) 284.1447 282.8121
821 7.4434 286(3) 284.1215 282.8235
822 7.4470 283(3) 284.0997 282.8350
823 7.4506 280(3) 284.0791 282.8464
824 7.4542 287(3) 284.0597 282.8578
825 7.4578 283(3) 284.0415 282.8692
826 7.4614 283(3) 284.0243 282.8807
827 7.4650 280(3) 284.0082 282.8921
828 7.4686 284(3) 283.9930 282.9035
829 7.4722 281(3) 283.9788 282.9149
830 7.4758 283(3) 283.9655 282.9264
831 7.4794 282(3) 283.9531 282.9378
832 7.4830 284(3) 283.9414 282.9492
833 7.4866 287(3) 283.9305 282.9607
834 7.4902 285(3) 283.9204 282.9721
835 7.4938 283(3) 283.9110 282.9835
836 7.4974 281(3) 283.9023 282.9950
837 7.5010 280(3) 283.8941 283.0064
838 7.5046 283(3) 283.8867 283.0178
839 7.5082 285(3) 283.8798 283.0292
840 7.5118 286(3) 283.8735 283.0407
841 7.5154 286(3) 283.8678 283.0521
842 7.5190 285(3) 283.8625 283.0635
843 7.5226 279(3) 283.8578 283.0750
844 7.5262 284(3) 283.8536 283.0864
845 7.5298 283(3) 283.8498 283.0978
846 7.5334 283(4) 283.8465 283.1093
847 7.5370 279(3) 283.8436 283.1207
848 7.5406 286(3) 283.8411 283.1321
849 7.5442 284(3) 283.8390 283.1435
850 7.5478 284(4) 283.8373 283.1550
851 7.5514 287(3) 283.8360 283.1664
852 7.5550 282(3) 283.8350 283.1778
853 7.5586 282(3) 283.8344 283.1892
854 7.5622 283(3) 283.8340 283.2007
855 7.5658 282(3) 283.8340 283.2121
856 7.5694 281(3) 283.8344 283.2235
857 7.5730 283(3) 283.8350 283.2350
858 7.5766 285(3) 283.8359 283.2464
859 7.5802 285(3) 283.8370 283.2578
860 7.5838 287(3) 283.8385 283.2693
861 7.5874 288(3) 283.8401 283.2807
862 7.5910 284(3) 283.8421 283.2921
863 7.5946 283(3) 283.8442 283.3035
864 7.5982 283(3) 283.8467 283.3150
865 7.6018 281(3) 283.8493 283.3264
866 7.6054 288(3) 283.8521 283.3378
867 7.6090 277(3) 283.8552 283.3492
868 7.6126 281(3) 283.8585 283.3607
869 7.6162 281(3) 283.8619 283.3721
870 7.6198 277(3) 283.8656 283.3835
871 7.6234 282(3) 283.8694 283.3950
872 7.6270 279(3) 283.8734 283.4064
873 7.6306 285(3) 283.8776 283.4178
874 7.6342 281(3) 283.8819 283.4293
875 7.6378 282(3) 283.8864 283.4407
876 7.6414 282(3) 283.8911 283.4521
877 7.6450 284(3) 283.8959 283.4635
878 7.6486 287(3) 283.9009 283.4750
879 7.6522 286(3) 283.9060 283.4864
880 7.6558 286(3) 283.9113 283.4978
881 7.6594 283(3) 283.9166 283.5092
882 7.6630 278(3) 283.9222 283.5207
883 7.6666 281(3) 283.9278 283.5321
884 7.6702 283(3) 283.9336 283.5435
885 7.6738 283(3) 283.9395 283.5550
886 7.6774 283(3) 283.9455 283.5664
887 7.6810 283(3) 283.9516 283.5778
888 7.6846 283(3) 283.9578 283.5893
889 7.6882 283(3) 283.9641 283.6007
890 7.6918 283(3) 283.9706 283.6121
891 7.6954 283(3) 283.9771 283.6235
892 7.6990 283(3) 283.9838 283.6350
893 7.7026 283(3) 283.9905 283.6464
894 7.7062 283(3) 283.9973 283.6578
895 7.7098 283(3) 284.0043 283.6693
896 7.7134 283(3) 284.0113 283.6807
897 7.7170 283(3) 284.0184 283.6921
898 7.7206 283(4) 284.0256 283.7035
899 7.7242 283(4) 284.0329 283.7150
900 7.7278 283(3) 284.0402 283.7264
901 7.7314 283(3) 284.0476 283.7378
902 7.7350 283(3) 284.0551 283.7492
903 7.7386 283(3) 284.0627 283.7607
904 7.7422 283(3) 284.0703 283.7721
905 7.7458 283(3) 284.0781 283.7835
906 7.7494 283(3) 284.0858 283.7950
907 7.7530 283(3) 284.0937 283.8064
908 7.7566 283(4) 284.1016 283.8178
909 7.7602 283(3) 284.1096 283.8293
910 7.7638 283(3) 284.1177 283.8407
911 7.7674 283(3) 284.1258 283.8521
912 7.7710 283(4) 284.1339 283.8635
913 7.7746 283(4) 284.1422 283.8750
914 7.7782 283(4) 284.1505 283.8864
915 7.7818 283(4) 284.1588 283.8978
916 7.7854 283(4) 284.1672 283.9092
917 7.7890 283(6) 284.1756 283.9207
918 7.7926 283(4) 284.1841 283.9321
919 7.7962 283(4) 284.1927 283.9435
920 7.7998 283(4) 284.2012 283.9550
921 7.8034 283(4) 284.2099 283.9664
922 7.8070 283(4) 284.2186 283.9778
923 7.8106 283(4) 284.2273 283.9893
924 7.8142 283(4) 284.2361 284.0007
925 7.8178 283(4) 284.2449 284.0121
926 7.8214 283(4) 284.2538 284.0235
927 7.8250 283(4) 284.2627 284.0350
928 7.8286 283(4) 284.2716 284.0464
929 7.8322 283(4) 284.2806 284.0578
930 7.8358 283(4) 284.2897 284.0692
931 7.8394 283(4) 284.2987 284.0807
932 7.8430 283(3) 284.3078 284.0921
933 7.8466 283(3) 284.3170 284.1035
934 7.8502 283(3) 284.1150 284.1150
935 7.8538 283(3) 284.1264 284.1264
936 7.8574 283(3) 284.1378 284.1378
937 7.8610 283(3) 284.1493 284.1493
938 7.8646 283(3) 284.1607 284.1607
939 7.8682 283(3) 284.1721 284.1721
940 7.8718 283(3) 284.1835 284.1835
941 7.8754 283(3) 284.1950 284.1950
942 7.8790 283(3) 284.2064 284.2064
943 7.8826 283(3) 284.2178 284.2178
944 7.8862 283(3) 284.2292 284.2292
945 7.8898 283(3) 284.2407 284.2407
946 7.8934 283(3) 284.2521 284.2521
947 7.8970 283(3) 284.2635 284.2635
948 7.9006 283(3) 284.2750 284.2750
949 7.9042 283(3) 284.2864 284.2864
950 7.9078 283(3) 284.2978 284.2978
951 7.9114 283(3) 284.3093 284.3093
952 7.9150 283(3) 284.3207 284.3207
953 7.9186 283(3) 284.3321 284.3321
954 7.9222 283(3) 284.3435 284.3435
955 7.9258 283(3) 284.3550 284.3550
956 7.9294 283(3) 284.3664 284.3664
957 7.9330 283(3) 284.3778 284.3778
958 7.9366 283(3) 284.3893 284.3893
959 7.9402 283(3) 284.4007 284.4007
960 7.9438 283(3) 284.4121 284.4121
961 7.9474 283(3) 284.4236 284.4236
962 7.9510 283(3) 284.4350 284.4350
963 7.9546 283(3) 284.4464 284.4464
964 7.9582 283(3) 284.4578 284.4578
965 7.9618 283(3) 284.4693 284.4693
966 7.9654 283(3) 284.4807 284.4807
967 7.9690 283(3) 284.4921 284.4921
968 7.9726 283(3) 284.5035 284.5035
969 7.9762 283(3) 284.5150 284.5150
970 7.9798 283(3) 284.5264 284.5264
971 7.9834 283(4) 284.5378 284.5378
972 7.9870 283(3) 284.5493 284.5493
973 7.9906 283(3) 284.5607 284.5607
974 7.9942 283(3) 284.5721 284.5721
975 7.9978 283(3) 284.5836 284.5836
976 8.0014 283(3) 284.5950 284.5950
977 8.0050 283(3) 284.6064 284.6064
978 8.0086 283(3) 284.6178 284.6178
979 8.0122 283(3) 284.6293 284.6293
980 8.0158 283(3) 284.6407 284.6407
981 8.0194 283(3) 284.6521 284.6521
982 8.0230 283(3) 284.6635 284.6635
983 8.0266 283(3) 284.6750 284.6750
984 8.0302 283(3) 284.6864 284.6864
985 8.0338 283(4) 284.6978 284.6978
986 8.0374 283(3) 284.7093 284.7093
987 8.0410 283(3) 284.7207 284.7207
988 8.0446 283(3) 284.7321 284.7321
989 8.0482 283(3) 284.7436 284.7436
990 8.0518 283(4) 284.7550 284.7550
991 8.0554 283(3) 284.7664 284.7664
992 8.0590 283(3) 284.7778 284.7778
993 8.0626 283(3) 284.7893 284.7893
994 8.0662 283(3) 284.8007 284.8007
995 8.0698 283(3) 284.8121 284.8121
996 8.0734 283(3) 284.8235 284.8235
997 8.0770 283(4) 284.8350 284.8350
998 8.0806 283(4) 284.8464 284.8464
999 8.0842 283(3) 284.8578 284.8578
1000 8.0878 283(3) 284.8693 284.8693
1001 8.0914 283(3) 284.8807 284.8807
1002 8.0950 283(3) 284.8921 284.8921
1003 8.0986 283(3) 284.9036 284.9036
1004 8.1022 283(3) 284.9150 284.9150
1005 8.1058 283(3) 284.9264 284.9264
1006 8.1094 283(3) 284.9378 284.9378
1007 8.1130 283(3) 284.9493 284.9493
1008 8.1166 283(3) 284.9607 284.9607
1009 8.1202 283(3) 284.9721 284.9721
1010 8.1238 283(3) 284.9836 284.9836
1011 8.1274 283(3) 284.9950 284.9950
1012 8.1310 283(3) 285.0064 285.0064
1013 8.1346 281(3) 285.0179 285.0179
1014 8.1382 284(3) 285.0293 285.0293
1015 8.1418 284(3) 285.0407 285.0407
1016 8.1454 282(3) 285.0521 285.0521
1017 8.1490 286(3) 285.0636 285.0636
1018 8.1526 286(3) 285.0750 285.0750
1019 8.1562 287(3) 285.0864 285.0864
1020 8.1598 286(3) 285.0978 285.0978
1021 8.1634 286(3) 285.1093 285.1093
1022 8.1670 287(3) 285.1207 285.1207
1023 8.1706 285(3) 285.1321 285.1321
1024 8.1742 281(3) 285.1436 285.1436
1025 8.1778 281(3) 285.1550 285.1550
1026 8.1814 283(3) 285.1664 285.1664
1027 8.1850 283(3) 285.1779 285.1779
1028 8.1886 281(3) 285.1893 285.1893
1029 8.1922 284(3) 285.2007 285.2007
1030 8.1958 280(3) 285.2121 285.2121
1031 8.1994 283(3) 285.2236 285.2236
1032 8.2030 289(3) 285.2350 285.2350
1033 8.2066 283(3) 285.2464 285.2464
1034 8.2102 282(3) 285.2578 285.2578
1035 8.2138 281(3) 285.2693 285.2693
1036 8.2174 286(3) 285.2807 285.2807
1037 8.2210 288(3) 285.2921 285.2921
1038 8.2246 286(3) 285.3036 285.3036
1039 8.2282 283(3) 285.3150 285.3150
1040 8.2318 282(3) 285.3264 285.3264
1041 8.2354 284(3) 285.3379 285.3379
1042 8.2390 287(3) 285.3493 285.3493
1043 8.2426 284(3) 285.3607 285.3607
1044 8.2462 282(3) 285.3721 285.3721
1045 8.2498 285(3) 285.3836 285.3836
1046 8.2534 286(3) 285.3950 285.3950
1047 8.2570 285(3) 285.4064 285.4064
1048 8.2606 284(3) 285.4178 285.4178
1049 8.2642 284(3) 285.4293 285.4293
1050 8.2678 284(3) 285.4407 285.4407
1051 8.2714 284(3) 285.4521 285.4521
1052 8.2750 285(3) 285.4636 285.4636
1053 8.2786 287(3) 285.4750 285.4750
1054 8.2822 286(3) 285.4864 285.4864
1055 8.2858 285(3) 285.4979 285.4979
1056 8.2894 287(3) 285.5093 285.5093
1057 8.2930 288(3) 285.5207 285.5207
1058 8.2966 280(3) 285.5321 285.5321
1059 8.3002 286(3) 285.5436 285.5436
1060 8.3038 285(3) 285.5550 285.5550
1061 8.3074 288(3) 285.5664 285.5664
1062 8.3110 282(3) 285.5779 285.5779
1063 8.3146 283(3) 285.5893 285.5893
1064 8.3182 285(3) 285.6007 285.6007
1065 8.3218 283(3) 285.6122 285.6122
1066 8.3254 284(3) 285.6236 285.6236
1067 8.3290 286(3) 285.6350 285.6350
1068 8.3326 284(3) 285.6464 285.6464
1069 8.3362 285(3) 285.6579 285.6579
1070 8.3398 284(3) 285.6693 285.6693
1071 8.3434 284(3) 285.6807 285.6807
1072 8.3470 281(3) 285.6921 285.6921
1073 8.3506 280(4) 285.7036 285.7036
1074 8.3542 286(3) 285.7150 285.7150
1075 8.3578 287(3) 285.7264 285.7264
1076 8.3614 286(3) 285.7379 285.7379
1077 8.3650 283(3) 285.7493 285.7493
1078 8.3686 283(3) 285.7607 285.7607
1079 8.3722 285(3) 285.7722 285.7722
1080 8.3758 287(3) 285.7836 285.7836
1081 8.3794 277(3) 285.7950 285.7950
1082 8.3830 291(3) 285.8064 285.8064
1083 8.3866 284(3) 285.8178 285.8178
1084 8.3902 288(3) 285.8293 285.8293
1085 8.3938 282(4) 285.8407 285.8407
1086 8.3974 283(3) 285.8521 285.8521
1087 8.4010 282(3) 285.8636 285.8636
1088 8.4046 287(3) 285.8750 285.8750
1089 8.4082 285(3) 285.8864 285.8864
1090 8.4118 288(3) 285.8979 285.8979
1091 8.4154 290(3) 285.9093 285.9093
1092 8.4190 290(3) 285.9207 285.9207
1093 8.4226 285(3) 285.9321 285.9321
1094 8.4262 285(3) 285.9436 285.9436
1095 8.4298 285(3) 285.9550 285.9550
1096 8.4334 284(3) 285.9664 285.9664
1097 8.4370 283(3) 285.9778 285.9778
1098 8.4406 280(3) 285.9893 285.9893
1099 8.4442 282(3) 286.0007 286.0007
1100 8.4478 283(3) 286.0121 286.0121
1101 8.4514 280(3) 286.0236 286.0236
1102 8.4550 283(4) 286.0350 286.0350
1103 8.4586 282(3) 286.0464 286.0464
1104 8.4622 284(3) 286.0579 286.0579
1105 8.4658 287(3) 286.0693 286.0693
1106 8.4694 288(5) 286.0807 286.0807
1107 8.4730 291(3) 286.0921 286.0921
1108 8.4766 278(3) 286.1036 286.1036
1109 8.4802 285(3) 286.1150 286.1150
1110 8.4838 286(3) 286.1264 286.1264
1111 8.4874 284(3) 286.1378 286.1378
1112 8.4910 284(3) 286.1493 286.1493
1113 8.4946 286(3) 286.1607 286.1607
1114 8.4982 292(3) 286.1721 286.1721
1115 8.5018 291(3) 286.1836 286.1836
1116 8.5054 290(3) 286.1950 286.1950
1117 8.5090 284(3) 286.2064 286.2064
1118 8.5126 284(3) 286.2179 286.2179
1119 8.5162 288(3) 286.2293 286.2293
1120 8.5198 286(3) 286.2407 286.2407
1121 8.5234 283(3) 286.2521 286.2521
1122 8.5270 284(3) 286.2636 286.2636
1123 8.5306 286(3) 286.2750 286.2750
1124 8.5342 286(4) 286.2864 286.2864
1125 8.5378 286(3) 286.2979 286.2979
1126 8.5414 286(3) 286.3093 286.3093
1127 8.5450 288(4) 286.3207 286.3207
1128 8.5486 290(3) 286.3322 286.3322
1129 8.5522 283(4) 286.3436 286.3436
1130 8.5558 290(3) 286.3550 286.3550
1131 8.5594 288(3) 286.3664 286.3664
1132 8.5630 287(3) 286.3779 286.3779
1133 8.5666 285(3) 286.3893 286.3893
1134 8.5702 287(3) 286.4007 286.4007
1135 8.5738 286(3) 286.4121 286.4121
1136 8.5774 288(3) 286.4236 286.4236
1137 8.5810 288(3) 286.4350 286.4350
1138 8.5846 289(3) 286.4464 286.4464
1139 8.5882 283(3) 286.4579 286.4579
1140 8.5918 287(4) 286.4693 286.4693
1141 8.5954 290(3) 286.4807 286.4807
1142 8.5990 288(3) 286.4922 286.4922
1143 8.6026 287(3) 286.5036 286.5036
1144 8.6062 286(3) 286.5150 286.5150
1145 8.6098 285(3) 286.5264 286.5264
1146 8.6134 289(3) 286.5379 286.5379
1147 8.6170 292(3) 286.5493 286.5493
1148 8.6206 285(3) 286.5607 286.5607
1149 8.6242 283(3) 286.5721 286.5721
1150 8.6278 287(3) 286.5836 286.5836
1151 8.6314 289(3) 286.5950 286.5950
1152 8.6350 284(3) 286.6064 286.6064
1153 8.6386 285(3) 286.6179 286.6179
1154 8.6422 287(3) 286.6293 286.6293
1155 8.6458 284(4) 286.6407 286.6407
1156 8.6494 285(3) 286.6522 286.6522
1157 8.6530 288(3) 286.6636 286.6636
1158 8.6566 289(3) 286.6750 286.6750
1159 8.6602 291(3) 286.6864 286.6864
1160 8.6638 287(4) 286.6979 286.6979
1161 8.6674 285(3) 286.7093 286.7093
1162 8.6710 291(3) 286.7207 286.7207
1163 8.6746 287(3) 286.7321 286.7321
1164 8.6782 288(3) 286.7436 286.7436
1165 8.6818 287(3) 286.7550 286.7550
1166 8.6854 291(3) 286.7664 286.7664
1167 8.6890 291(3) 286.7779 286.7779
1168 8.6926 285(3) 286.7893 286.7893
1169 8.6962 286(3) 286.8007 286.8007
1170 8.6998 291(3) 286.8122 286.8122
1171 8.7034 290(3) 286.8236 286.8236
1172 8.7070 288(3) 287.3748 286.8350
1173 8.7106 291(3) 287.3912 286.8464
1174 8.7142 287(3) 287.4077 286.8579
1175 8.7178 292(3) 287.4242 286.8693
1176 8.7214 286(3) 287.4408 286.8807
1177 8.7250 291(3) 287.4575 286.8922
1178 8.7286 289(3) 287.4742 286.9036
1179 8.7322 290(3) 287.4911 286.9150
1180 8.7358 285(3) 287.5080 286.9265
1181 8.7394 290(3) 287.5249 286.9379
1182 8.7430 291(3) 287.5420 286.9493
1183 8.7466 290(3) 287.5591 286.9607
1184 8.7502 286(3) 287.5764 286.9722
1185 8.7538 283(3) 287.5937 286.9836
1186 8.7574 286(3) 287.6111 286.9950
1187 8.7610 288(3) 287.6285 287.0064
1188 8.7646 290(3) 287.6461 287.0179
1189 8.7682 291(3) 287.6638 287.0293
1190 8.7718 290(3) 287.6816 287.0407
1191 8.7754 290(3) 287.6994 287.0522
1192 8.7790 286(4) 287.7174 287.0636
1193 8.7826 285(3) 287.7354 287.0750
1194 8.7862 291(3) 287.7536 287.0865
1195 8.7898 291(3) 287.7718 287.0979
1196 8.7934 289(4) 287.7902 287.1093
1197 8.7970 286(3) 287.8086 287.1207
1198 8.8006 290(3) 287.8272 287.1322
1199 8.8042 285(3) 287.8459 287.1436
1200 8.8078 285(3) 287.8647 287.1550
1201 8.8114 286(3) 287.8836 287.1664
1202 8.8150 289(3) 287.9026 287.1779
1203 8.8186 283(3) 287.9218 287.1893
1204 8.8222 294(4) 287.9411 287.2007
1205 8.8258 286(3) 287.9605 287.2122
1206 8.8294 284(3) 287.9800 287.2236
1207 8.8330 289(3) 287.9997 287.2350
1208 8.8366 285(3) 288.0292 287.2562
1209 8.8402 291(3) 288.0742 287.2927
1210 8.8438 296(3) 288.1194 287.3291
1211 8.8474 296(3) 288.1647 287.3656
1212 8.8510 292(3) 288.2101 287.4021
1213 8.8546 290(3) 288.2556 287.4386
1214 8.8582 290(3) 288.3014 287.4751
1215 8.8618 290(3) 288.3473 287.5115
1216 8.8654 288(3) 288.3933 287.5480
1217 8.8690 287(3) 288.4395 287.5845
1218 8.8726 289(3) 288.4860 287.6210
1219 8.8762 290(3) 288.5325 287.6574
1220 8.8798 288(3) 288.5792 287.6939
1221 8.8834 289(3) 288.6262 287.7304
1222 8.8870 291(3) 288.6733 287.7669
1223 8.8906 291(3) 288.7206 287.8033
1224 8.8942 285(3) 288.7680 287.8398
1225 8.8978 286(3) 288.8157 287.8763
1226 8.9014 292(3) 288.8636 287.9128
1227 8.9050 286(3) 288.9117 287.9492
1228 8.9086 290(3) 288.9600 287.9857
1229 8.9122 290(3) 289.0086 288.0222
1230 8.9158 288(3) 289.0573 288.0587
1231 8.9194 289(3) 289.1063 288.0952
1232 8.9230 289(3) 289.1555 288.1316
1233 8.9266 290(3) 289.2050 288.1681
1234 8.9302 291(3) 289.2548 288.2046
1235 8.9338 291(3) 289.3047 288.2411
1236 8.9374 291(3) 289.3550 288.2776
1237 8.9410 292(3) 289.4055 288.3140
1238 8.9446 291(3) 289.4562 288.3505
1239 8.9482 289(3) 289.5073 288.3870
1240 8.9518 288(3) 289.5587 288.4235
1241 8.9554 290(3) 289.6103 288.4599
1242 8.9590 293(3) 289.6623 288.4964
1243 8.9626 292(3) 289.7146 288.5329
1244 8.9662 294(3) 289.7672 288.5694
1245 8.9698 297(3) 289.8201 288.6058
1246 8.9734 291(3) 289.8734 288.6423
1247 8.9770 289(3) 289.9270 288.6788
1248 8.9806 291(4) 289.9810 288.7153
1249 8.9842 290(3) 290.0353 288.7517
1250 8.9878 296(4) 290.0900 288.7882
1251 8.9914 283(3) 290.1452 288.8247
1252 8.9950 292(3) 290.2007 288.8612
1253 8.9986 295(3) 290.2566 288.8976
1254 9.0022 289(3) 290.3130 288.9341
1255 9.0058 292(3) 290.3698 288.9706
1256 9.0094 296(3) 290.4271 289.0071
1257 9.0130 292(3) 290.4848 289.0435
1258 9.0166 293(3) 290.5430 289.0800
1259 9.0202 291(3) 290.6017 289.1165
1260 9.0238 291(3) 290.6609 289.1530
1261 9.0274 289(3) 290.7207 289.1895
1262 9.0310 293(3) 290.7809 289.2260
1263 9.0346 295(3) 290.8418 289.2624
1264 9.0382 292(3) 290.9032 289.2989
1265 9.0418 293(3) 290.9652 289.3354
1266 9.0454 293(3) 291.0278 289.3719
1267 9.0490 291(3) 291.0911 289.4083
1268 9.0526 292(3) 291.1550 289.4448
1269 9.0562 297(3) 291.2196 289.4813
1270 9.0598 297(3) 291.2849 289.5178
1271 9.0634 294(3) 291.3508 289.5542
1272 9.0670 295(3) 291.4176 289.5907
1273 9.0706 296(4) 291.4851 289.6272
1274 9.0742 295(3) 291.5534 289.6637
1275 9.0778 297(3) 291.6226 289.7001
1276 9.0814 289(3) 291.6926 289.7366
1277 9.0850 292(3) 291.7635 289.7731
1278 9.0886 293(3) 291.8352 289.8096
1279 9.0922 291(3) 291.9080 289.8460
1280 9.0958 296(3) 291.9817 289.8825
1281 9.0994 290(3) 292.0565 289.9190
1282 9.1030 289(3) 292.1322 289.9555
1283 9.1066 293(3) 292.2091 289.9920
1284 9.1102 294(3) 292.2872 290.0284
1285 9.1138 298(3) 292.3664 290.0649
1286 9.1174 295(3) 292.4468 290.1014
1287 9.1210 297(4) 292.5285 290.1379
1288 9.1246 300(3) 292.6115 290.1743
1289 9.1282 295(3) 292.6958 290.2108
1290 9.1318 296(3) 292.7816 290.2473
1291 9.1354 297(3) 292.8689 290.2838
1292 9.1390 296(3) 292.9578 290.3203
1293 9.1426 296(3) 293.0482 290.3567
1294 9.1462 292(3) 293.1403 290.3932
1295 9.1498 293(3) 293.2341 290.4297
1296 9.1534 291(5) 293.3297 290.4662
1297 9.1570 296(3) 293.4273 290.5026
1298 9.1606 291(3) 293.5268 290.5391
1299 9.1642 290(3) 293.6284 290.5756
1300 9.1678 292(3) 293.7321 290.6121
1301 9.1714 295(3) 293.8380 290.6486
1302 9.1750 294(3) 293.9463 290.6850
1303 9.1786 294(3) 294.0570 290.7215
1304 9.1822 298(3) 294.1703 290.7580
1305 9.1858 294(3) 294.2863 290.7945
1306 9.1894 290(3) 294.4051 290.8309
1307 9.1930 296(3) 294.5269 290.8674
1308 9.1966 296(3) 294.6516 290.9039
1309 9.2002 293(3) 294.7797 290.9404
1310 9.2038 295(3) 294.9111 290.9768
1311 9.2074 299(3) 295.0461 291.0133
1312 9.2110 300(3) 295.1848 291.0498
1313 9.2146 298(3) 295.3274 291.0863
1314 9.2182 298(3) 295.4742 291.1227
1315 9.2218 303(3) 295.6253 291.1592
1316 9.2254 301(3) 295.7810 291.1957
1317 9.2290 293(3) 295.9415 291.2322
1318 9.2326 293(3) 296.1071 291.2686
1319 9.2362 298(3) 296.2781 291.3051
1320 9.2398 291(3) 296.4547 291.3416
1321 9.2434 297(3) 296.6374 291.3781
1322 9.2470 298(3) 296.8263 291.4146
1323 9.2506 296(3) 297.0220 291.4510
1324 9.2542 299(4) 297.2248 291.4875
1325 9.2578 295(3) 297.4351 291.5240
1326 9.2614 298(3) 297.6534 291.5605
1327 9.2650 298(3) 297.8802 291.5970
1328 9.2686 299(3) 298.1160 291.6334
1329 9.2722 300(3) 298.3614 291.6699
1330 9.2758 301(3) 298.6170 291.7064
1331 9.2794 296(3) 298.8836 291.7429
1332 9.2830 295(3) 299.1617 291.7793
1333 9.2866 299(3) 299.4523 291.8158
1334 9.2902 299(3) 299.7562 291.8523
1335 9.2938 296(3) 300.0742 291.8888
1336 9.2974 299(3) 300.4075 291.9252
1337 9.3010 300(3) 300.7571 291.9617
1338 9.3046 301(3) 301.1244 291.9982
1339 9.3082 301(3) 301.5106 292.0347
1340 9.3118 301(3) 301.9171 292.0711
1341 9.3154 303(3) 302.3456 292.1076
1342 9.3190 302(3) 302.7976 292.1441
1343 9.3226 306(3) 303.2755 292.1806
1344 9.3262 303(3) 303.7811 292.2170
1345 9.3298 299(3) 304.3170 292.2535
1346 9.3334 303(3) 304.8856 292.2900
1347 9.3370 314(3) 305.4899 292.3265
1348 9.3406 305(3) 306.1331 292.3630
1349 9.3442 310(3) 306.8190 292.3994
1350 9.3478 305(3) 307.5511 292.4359
1351 9.3514 309(4) 308.3346 292.4724
1352 9.3550 310(3) 309.1743 292.5089
1353 9.3586 308(3) 310.0758 292.5453
1354 9.3622 312(3) 311.0456 292.5818
1355 9.3658 316(3) 312.0910 292.6183
1356 9.3694 313(4) 313.2204 292.6548
1357 9.3730 309(3) 314.4431 292.6913
1358 9.3766 316(4) 315.7695 292.7277
1359 9.3802 317(3) 317.2128 292.7642
1360 9.3838 317(3) 318.7870 292.8007
1361 9.3874 321(3) 320.5088 292.8372
1362 9.3910 324(4) 322.3980 292.8736
1363 9.3946 327(4) 324.4784 292.9101
1364 9.3982 330(4) 326.7793 292.9466
1365 9.4018 333(4) 329.3383 292.9831
1366 9.4054 336(4) 332.2040 293.0195
1367 9.4090 342(4) 335.4463 293.0560
1368 9.4126 356(4) 339.1614 293.0925
1369 9.4162 362(4) 343.4905 293.1290
1370 9.4198 363(4) 348.6412 293.1654
1371 9.4234 377(5) 354.9182 293.2019
1372 9.4270 392(5) 362.7623 293.2384
1373 9.4306 402(6) 372.7975 293.2749
1374 9.4342 416(6) 385.8764 293.3113
1375 9.4378 443(8) 403.1393 293.3478
1376 9.4414 466(7) 426.0189 293.3843
1377 9.4450 511(12) 456.2437 293.4208
1378 9.4486 546(9) 495.7714 293.4573
1379 9.4522 591(13) 546.6569 293.4937
1380 9.4558 646(14) 610.8429 293.5302
1381 9.4594 713(17) 689.8803 293.5667
1382 9.4630 800(20) 784.5681 293.6032
1383 9.4666 906(22) 894.7049 293.6396
1384 9.4702 1018(23) 1018.5922 293.6761
1385 9.4738 1139(25) 1152.8070 293.7126
1386 9.4774 1283(28) 1291.8724 293.7491
1387 9.4810 1436(27) 1427.9860 293.7856
1388 9.4846 1568(24) 1550.9340 293.8221
1389 9.4882 1678(23) 1648.6515 293.8585
1390 9.4918 1763(12) 1709.0671 293.8950
1391 9.4954 1777(12) 1723.4221 293.9315
1392 9.4990 1756(17) 1689.4427 293.9679
1393 9.5026 1689(18) 1612.3724 294.0044
1394 9.5062 1593(21) 1502.7991 294.0409
1395 9.5098 1439(13) 1373.1125 294.0774
1396 9.5134 1287(10) 1234.7520 294.1139
1397 9.5170 1132(16) 1096.9526 294.1503
1398 9.5206 991(18) 966.5637 294.1868
1399 9.5242 846(19) 848.1092 294.2233
1400 9.5278 747(16) 744.2897 294.2598
1401 9.5314 677(14) 656.1529 294.2962
1402 9.5350 606(15) 583.4633 294.3327
1403 9.5386 547(13) 525.0534 294.3692
1404 9.5422 507(10) 479.1727 294.4057
1405 9.5458 471(10) 443.8023 294.4421
1406 9.5494 438(10) 416.9125 294.4786
1407 9.5530 415(7) 396.6145 294.5151
1408 9.5566 399(7) 381.3044 294.5516
1409 9.5602 383(6) 369.6721 294.5880
1410 9.5638 371(6) 360.7030 294.6245
1411 9.5674 359(6) 353.6423 294.6610
1412 9.5710 352(5) 347.9474 294.6975
1413 9.5746 351(5) 343.2391 294.7339
1414 9.5782 343(5) 339.2579 294.7704
1415 9.5818 333(5) 335.8249 294.8069
1416 9.5854 326(5) 332.8203 294.8434
1417 9.5890 330(5) 330.1605 294.8799
1418 9.5926 328(5) 327.7862 294.9164
1419 9.5962 322(5) 325.6532 294.9528
1420 9.5998 320(5) 323.7278 294.9893
1421 9.6034 326(5) 321.9833 295.0258
1422 9.6070 324(5) 320.3979 295.0623
1423 9.6106 315(4) 318.9525 295.0987
1424 9.6142 314(3) 317.6318 295.1352
1425 9.6178 314(3) 316.4223 295.1717
1426 9.6214 313(3) 315.3123 295.2082
1427 9.6250 314(3) 314.2916 295.2446
1428 9.6286 313(3) 313.3512 295.2811
1429 9.6322 310(3) 312.4833 295.3176
1430 9.6358 310(3) 311.6812 295.3541
1431 9.6394 313(3) 310.9384 295.3905
1432 9.6430 308(4) 310.2495 295.4270
1433 9.6466 306(4) 309.6098 295.4635
1434 9.6502 310(3) 309.0150 295.5000
1435 9.6538 309(3) 308.4611 295.5364
1436 9.6574 309(3) 307.9449 295.5729
1437 9.6610 311(3) 307.4632 295.6094
1438 9.6646 310(3) 307.0131 295.6459
1439 9.6682 307(3) 306.5921 295.6823
1440 9.6718 311(3) 306.1980 295.7188
1441 9.6754 308(3) 305.8288 295.7553
1442 9.6790 305(4) 305.4825 295.7918
1443 9.6826 309(3) 305.1576 295.8283
1444 9.6862 306(3) 304.8523 295.8647
1445 9.6898 311(4) 304.5655 295.9012
1446 9.6934 308(5) 304.2957 295.9377
1447 9.6970 307(5) 304.0417 295.9742
1448 9.7006 308(5) 303.8026 296.0107
1449 9.7042 305(5) 303.5772 296.0471
1450 9.7078 306(5) 303.3649 296.0836
1451 9.7114 311(5) 303.1646 296.1201
1452 9.7150 310(5) 302.9755 296.1566
1453 9.7186 310(5) 302.7972 296.1930
1454 9.7222 310(5) 302.6288 296.2295
1455 9.7258 303(5) 302.4697 296.2660
1456 9.7294 301(6) 302.3194 296.3025
1457 9.7330 304(9) 302.1774 296.3389
1458 9.7366 304(5) 302.0432 296.3754
1459 9.7402 302(5) 301.9164 296.4119
1460 9.7438 302(5) 301.7964 296.4484
1461 9.7474 301(5) 301.6831 296.4848
1462 9.7510 309(5) 301.5760 296.5213
1463 9.7546 313(5) 301.4746 296.5578
1464 9.7582 307(5) 301.3789 296.5943
1465 9.7618 302(5) 301.2884 296.6308
1466 9.7654 306(5) 301.2028 296.6672
1467 9.7690 309(5) 301.1220 296.7037
1468 9.7726 309(5) 301.0457 296.7402
1469 9.7762 304(5) 300.9736 296.7767
1470 9.7798 308(5) 300.9055 296.8131
1471 9.7834 311(5) 300.8413 296.8496
1472 9.7870 306(5) 300.7808 296.8861
1473 9.7906 305(5) 300.7237 296.9226
1474 9.7942 304(5) 300.6700 296.9590
1475 9.7978 305(5) 300.6194 296.9955
1476 9.8014 306(5) 300.5719 297.0320
1477 9.8050 304(5) 300.5273 297.0685
1478 9.8086 302(5) 300.4854 297.1049
1479 9.8122 303(5) 300.4460 297.1414
1480 9.8158 307(5) 300.4093 297.1779
1481 9.8194 308(5) 300.3749 297.2144
1482 9.8230 308(5) 300.3429 297.2509
1483 9.8266 313(5) 300.3130 297.2874
1484 9.8302 306(5) 300.2853 297.3238
1485 9.8338 307(5) 300.2596 297.3603
1486 9.8374 309(5) 300.2357 297.3968
1487 9.8410 303(5) 300.2138 297.4333
1488 9.8446 303(5) 300.1937 297.4697
1489 9.8482 311(5) 300.1752 297.5062
1490 9.8518 303(5) 300.1584 297.5427
1491 9.8554 302(5) 300.1432 297.5792
1492 9.8590 308(5) 300.1295 297.6156
1493 9.8626 304(5) 300.1172 297.6521
1494 9.8662 310(5) 300.1064 297.6886
1495 9.8698 312(5) 300.0969 297.7251
1496 9.8734 310(5) 300.0887 297.7615
1497 9.8770 307(5) 300.0817 297.7980
1498 9.8806 305(4) 300.0760 297.8345
1499 9.8842 308(3) 300.0714 297.8710
1500 9.8878 311(3) 300.0678 297.9074
1501 9.8914 308(3) 300.0655 297.9439
1502 9.8950 308(3) 300.0641 297.9804
1503 9.8986 308(3) 300.0638 298.0169
1504 9.9022 308(3) 300.0643 298.0533
1505 9.9058 308(3) 300.0659 298.0898
1506 9.9094 308(3) 300.0683 298.1263
1507 9.9130 308(4) 300.0716 298.1628
1508 9.9166 308(5) 300.0758 298.1993
1509 9.9202 308(3) 300.0808 298.2357
1510 9.9238 308(3) 300.0865 298.2722
1511 9.9274 308(3) 300.0930 298.3087
1512 9.9310 308(3) 300.1003 298.3452
1513 9.9346 308(3) 300.1082 298.3817
1514 9.9382 308(3) 300.1169 298.4181
1515 9.9418 308(3) 300.1262 298.4546
1516 9.9454 308(3) 300.1362 298.4911
1517 9.9490 308(3) 300.1468 298.5276
1518 9.9526 308(3) 300.1580 298.5640
1519 9.9562 308(3) 300.1697 298.6005
1520 9.9598 308(3) 300.1821 298.6370
1521 9.9634 308(3) 300.1950 298.6735
1522 9.9670 308(3) 300.2084 298.7099
1523 9.9706 308(3) 300.2224 298.7464
1524 9.9742 308(3) 300.2368 298.7829
1525 9.9778 308(3) 300.2518 298.8194
1526 9.9814 308(3) 300.2672 298.8558
1527 9.9850 308(3) 300.2831 298.8923
1528 9.9886 308(3) 300.2994 298.9288
1529 9.9922 308(3) 300.3162 298.9653
1530 9.9958 308(3) 300.3334 299.0018
1531 9.9994 308(4) 300.3510 299.0382
1532 10.0030 308(5) 300.3690 299.0747
1533 10.0066 308(3) 300.3873 299.1112
1534 10.0102 308(3) 300.4061 299.1476
1535 10.0138 308(3) 300.4252 299.1841
1536 10.0174 308(3) 300.4447 299.2206
1537 10.0210 308(3) 300.4645 299.2571
1538 10.0246 308(3) 300.4847 299.2936
1539 10.0282 308(3) 300.5052 299.3300
1540 10.0318 308(3) 300.5260 299.3665
1541 10.0354 308(3) 300.5471 299.4030
1542 10.0390 308(3) 300.5685 299.4395
1543 10.0426 308(3) 300.5902 299.4760
1544 10.0462 308(3) 300.6122 299.5124
1545 10.0498 308(3) 300.6346 299.5489
1546 10.0534 308(3) 300.6571 299.5854
1547 10.0570 308(3) 300.6799 299.6219
1548 10.0606 308(3) 300.7030 299.6583
1549 10.0642 308(3) 300.7263 299.6948
1550 10.0678 308(3) 300.7499 299.7313
1551 10.0714 308(3) 300.7737 299.7678
1552 10.0750 308(3) 300.7978 299.8042
1553 10.0786 308(3) 300.8221 299.8407
1554 10.0822 308(4) 300.8466 299.8772
1555 10.0858 308(4) 300.8713 299.9137
1556 10.0894 308(4) 300.8962 299.9501
1557 10.0930 308(3) 300.9214 299.9866
1558 10.0966 308(3) 300.9467 300.0231
1559 10.1002 308(3) 300.9723 300.0596
1560 10.1038 308(3) 300.9980 300.0961
1561 10.1074 308(3) 301.0240 300.1325
1562 10.1110 308(3) 301.0501 300.1690
1563 10.1146 308(3) 301.0764 300.2055
1564 10.1182 308(3) 301.1028 300.2420
1565 10.1218 308(3) 301.1295 300.2784
1566 10.1254 308(3) 301.1563 300.3149
1567 10.1290 308(3) 301.1833 300.3514
1568 10.1326 308(3) 301.2104 300.3879
1569 10.1362 308(3) 301.2377 300.4243
1570 10.1398 308(3) 301.2651 300.4608
1571 10.1434 308(3) 301.2927 300.4973
1572 10.1470 308(3) 301.3204 300.5338
1573 10.1506 308(3) 301.3483 300.5703
1574 10.1542 308(3) 301.3763 300.6067
1575 10.1578 308(3) 301.4045 300.6432
1576 10.1614 308(3) 301.4328 300.6797
1577 10.1650 308(3) 301.4612 300.7162
1578 10.1686 308(3) 301.4897 300.7527
1579 10.1722 308(3) 301.5184 300.7891
1580 10.1758 308(3) 301.5472 300.8256
1581 10.1794 308(3) 301.5761 300.8621
1582 10.1830 308(3) 301.6052 300.8986
1583 10.1866 308(3) 301.6343 300.9350
1584 10.1902 308(3) 301.6636 300.9715
1585 10.1938 308(3) 301.6930 301.0080
1586 10.1974 308(3) 301.7224 301.0445
1587 10.2010 308(3) 301.7520 301.0809
1588 10.2046 308(3) 301.7817 301.1174
1589 10.2082 308(3) 301.8116 301.1539
1590 10.2118 308(3) 301.8414 301.1904
1591 10.2154 308(3) 301.8714 301.2268
1592 10.2190 308(4) 301.9015 301.2633
1593 10.2226 308(3) 301.9317 301.2998
1594 10.2262 308(3) 301.9620 301.3363
1595 10.2298 308(3) 301.9923 301.3727
1596 10.2334 308(3) 302.0228 301.4092
1597 10.2370 308(3) 302.0534 301.4457
1598 10.2406 308(3) 302.0840 301.4822
1599 10.2442 308(3) 302.1147 301.5186
1600 10.2478 308(3) 302.1455 301.5551
1601 10.2514 308(3) 302.1764 301.5916
1602 10.2550 308(3) 302.2073 301.6281
1603 10.2586 308(3) 302.2384 301.6646
1604 10.2622 310(3) 302.2695 301.7010
1605 10.2658 309(3) 302.3007 301.7375
1606 10.2694 308(3) 302.3319 301.7740
1607 10.2730 313(3) 302.3633 301.8105
1608 10.2766 309(3) 302.3947 301.8470
1609 10.2802 312(3) 302.4261 301.8834
1610 10.2838 314(3) 302.4577 301.9199
1611 10.2874 313(3) 301.9564 301.9564
1612 10.2910 310(3) 301.9929 301.9929
1613 10.2946 305(3) 302.0293 302.0293
1614 10.2982 310(3) 302.0658 302.0658
1615 10.3018 314(3) 302.1023 302.1023
1616 10.3054 308(3) 302.1388 302.1388
1617 10.3090 310(3) 302.1752 302.1752
1618 10.3126 309(3) 302.2117 302.2117
1619 10.3162 309(3) 302.2482 302.2482
1620 10.3198 311(3) 302.2847 302.2847
1621 10.3234 310(3) 302.3211 302.3211
1622 10.3270 313(3) 302.3576 302.3576
1623 10.3306 313(3) 302.3941 302.3941
1624 10.3342 309(3) 302.4306 302.4306
1625 10.3378 314(3) 302.4671 302.4671
1626 10.3414 309(3) 302.5035 302.5035
1627 10.3450 307(3) 302.5400 302.5400
1628 10.3486 311(3) 302.5765 302.5765
1629 10.3522 314(3) 302.6130 302.6130
1630 10.3558 310(3) 302.6494 302.6494
1631 10.3594 314(3) 302.6859 302.6859
1632 10.3630 314(3) 302.7224 302.7224
1633 10.3666 307(3) 302.7589 302.7589
1634 10.3702 309(3) 302.7953 302.7953
1635 10.3738 313(3) 302.8318 302.8318
1636 10.3774 311(3) 302.8683 302.8683
1637 10.3810 311(3) 302.9048 302.9048
1638 10.3846 315(3) 302.9413 302.9413
1639 10.3882 309(3) 302.9777 302.9777
1640 10.3918 311(3) 303.0142 303.0142
1641 10.3954 314(3) 303.0507 303.0507
1642 10.3990 314(3) 303.0872 303.0872
1643 10.4026 313(3) 303.1236 303.1236
1644 10.4062 311(3) 303.1601 303.1601
1645 10.4098 310(3) 303.1966 303.1966
1646 10.4134 312(3) 303.2331 303.2331
1647 10.4170 312(3) 303.2696 303.2696
1648 10.4206 311(3) 303.3060 303.3060
1649 10.4242 313(3) 303.3425 303.3425
1650 10.4278 312(3) 303.3790 303.3790
1651 10.4314 319(3) 303.4155 303.4155
1652 10.4350 311(3) 303.4519 303.4519
1653 10.4386 307(3) 303.4884 303.4884
1654 10.4422 311(3) 303.5249 303.5249
1655 10.4458 316(3) 303.5614 303.5614
1656 10.4494 307(3) 303.5978 303.5978
1657 10.4530 309(3) 303.6343 303.6343
1658 10.4566 312(3) 303.6708 303.6708
1659 10.4602 310(3) 303.7073 303.7073
1660 10.4638 307(3) 303.7437 303.7437
1661 10.4674 311(3) 303.7802 303.7802
1662 10.4710 308(3) 303.8167 303.8167
1663 10.4746 310(3) 303.8532 303.8532
1664 10.4782 310(3) 303.8896 303.8896
1665 10.4818 309(3) 303.9261 303.9261
1666 10.4854 309(3) 303.9626 303.9626
1667 10.4890 308(3) 303.9991 303.9991
1668 10.4926 309(3) 304.0356 304.0356
1669 10.4962 311(4) 304.0721 304.0721
1670 10.4998 313(3) 304.1085 304.1085
1671 10.5034 312(3) 304.1450 304.1450
1672 10.5070 307(3) 304.1815 304.1815
1673 10.5106 305(3) 304.2180 304.2180
1674 10.5142 307(3) 304.2544 304.2544
1675 10.5178 309(3) 304.2909 304.2909
1676 10.5214 306(3) 304.3274 304.3274
1677 10.5250 310(3) 304.3639 304.3639
1678 10.5286 308(3) 304.4003 304.4003
1679 10.5322 309(3) 304.4368 304.4368
1680 10.5358 311(3) 304.4733 304.4733
1681 10.5394 314(3) 304.5098 304.5098
1682 10.5430 308(3) 304.5462 304.5462
1683 10.5466 305(3) 304.5827 304.5827
1684 10.5502 308(3) 304.6192 304.6192
1685 10.5538 309(3) 304.6557 304.6557
1686 10.5574 308(3) 304.6921 304.6921
1687 10.5610 306(3) 304.7286 304.7286
1688 10.5646 305(3) 304.7651 304.7651
1689 10.5682 307(3) 304.8016 304.8016
1690 10.5718 306(3) 304.8381 304.8381
1691 10.5754 306(3) 304.8745 304.8745
1692 10.5790 309(3) 304.9110 304.9110
1693 10.5826 309(3) 304.9475 304.9475
1694 10.5862 308(3) 304.9839 304.9839
1695 10.5898 310(3) 305.0204 305.0204
1696 10.5934 307(3) 305.0569 305.0569
1697 10.5970 310(4) 305.0934 305.0934
1698 10.6006 302(3) 305.1299 305.1299
1699 10.6042 309(3) 305.1664 305.1664
1700 10.6078 311(3) 305.2028 305.2028
1701 10.6114 308(3) 305.2393 305.2393
1702 10.6150 312(3) 305.2758 305.2758
1703 10.6186 309(3) 305.3123 305.3123
1704 10.6222 308(3) 305.3487 305.3487
1705 10.6258 309(3) 305.3852 305.3852
1706 10.6294 302(3) 305.4217 305.4217
1707 10.6330 305(4) 305.4582 305.4582
1708 10.6366 308(3) 305.4946 305.4946
1709 10.6402 307(3) 305.5311 305.5311
1710 10.6438 311(3) 305.5676 305.5676
1711 10.6474 306(3) 305.6041 305.6041
1712 10.6510 306(3) 305.6406 305.6406
1713 10.6546 308(3) 305.6770 305.6770
1714 10.6582 307(3) 305.7135 305.7135
1715 10.6618 307(3) 305.7500 305.7500
1716 10.6654 309(3) 305.7864 305.7864
1717 10.6690 310(3) 305.8229 305.8229
1718 10.6726 311(3) 305.8594 305.8594
1719 10.6762 311(4) 305.8959 305.8959
1720 10.6798 308(3) 305.9324 305.9324
1721 10.6834 311(3) 305.9688 305.9688
1722 10.6870 313(3) 306.0053 306.0053
1723 10.6906 306(3) 306.0418 306.0418
1724 10.6942 304(3) 306.0783 306.0783
1725 10.6978 308(3) 306.1147 306.1147
1726 10.7014 309(3) 306.1512 306.1512
1727 10.7050 309(3) 306.1877 306.1877
1728 10.7086 315(3) 306.2242 306.2242
1729 10.7122 304(4) 306.2607 306.2607
1730 10.7158 308(3) 306.2971 306.2971
1731 10.7194 310(3) 306.3336 306.3336
1732 10.7230 311(3) 306.3701 306.3701
1733 10.7266 310(3) 306.4066 306.4066
1734 10.7302 309(3) 306.4345 306.4345
1735 10.7338 309(3) 306.3185 306.3185
1736 10.7374 310(3) 306.2025 306.2025
1737 10.7410 310(3) 306.0864 306.0864
1738 10.7446 312(3) 305.9704 305.9704
1739 10.7482 311(3) 305.8544 305.8544
1740 10.7518 307(3) 305.7383 305.7383
1741 10.7554 308(3) 305.6223 305.6223
1742 10.7590 307(3) 305.5062 305.5062
1743 10.7626 306(3) 305.3902 305.3902
1744 10.7662 310(3) 305.2741 305.2741
1745 10.7698 311(3) 305.1581 305.1581
1746 10.7734 307(3) 305.0421 305.0421
1747 10.7770 308(4) 304.9260 304.9260
1748 10.7806 304(3) 304.8100 304.8100
1749 10.7842 308(3) 304.6939 304.6939
1750 10.7878 304(4) 304.5779 304.5779
1751 10.7914 311(3) 304.4619 304.4619
1752 10.7950 308(3) 304.3458 304.3458
1753 10.7986 308(3) 304.2298 304.2298
1754 10.8022 307(3) 304.1137 304.1137
1755 10.8058 305(3) 303.9977 303.9977
1756 10.8094 308(3) 303.8817 303.8817
1757 10.8130 306(3) 303.7656 303.7656
1758 10.8166 307(3) 303.6496 303.6496
1759 10.8202 308(3) 303.5335 303.5335
1760 10.8238 305(3) 303.4175 303.4175
1761 10.8274 305(3) 303.3014 303.3014
1762 10.8310 307(3) 303.1854 303.1854
1763 10.8346 310(3) 303.0694 303.0694
1764 10.8382 312(3) 302.9533 302.9533
1765 10.8418 308(3) 302.8373 302.8373
1766 10.8454 307(3) 302.7213 302.7213
1767 10.8490 312(3) 302.6052 302.6052
1768 10.8526 312(3) 302.4892 302.4892
1769 10.8562 314(3) 302.3731 302.3731
1770 10.8598 315(3) 302.2571 302.2571
1771 10.8634 310(3) 302.1411 302.1411
1772 10.8670 308(4) 302.0250 302.0250
1773 10.8706 312(3) 301.9090 301.9090
1774 10.8742 310(4) 301.7929 301.7929
1775 10.8778 312(3) 301.6769 301.6769
1776 10.8814 309(3) 301.5608 301.5608
1777 10.8850 307(3) 301.4448 301.4448
1778 10.8886 303(3) 301.3288 301.3288
1779 10.8922 307(3) 301.2127 301.2127
1780 10.8958 306(3) 301.0967 301.0967
1781 10.8994 306(3) 300.9806 300.9806
1782 10.9030 305(3) 300.8646 300.8646
1783 10.9066 308(3) 300.7485 300.7485
1784 10.9102 306(3) 300.6325 300.6325
1785 10.9138 303(3) 300.5164 300.5164
1786 10.9174 303(4) 300.4005 300.4005
1787 10.9210 303(3) 300.2844 300.2844
1788 10.9246 304(3) 300.1683 300.1683
1789 10.9282 304(3) 300.0523 300.0523
1790 10.9318 306(3) 299.9362 299.9362
1791 10.9354 303(3) 299.8202 299.8202
1792 10.9390 304(3) 299.7042 299.7042
1793 10.9426 308(3) 299.5882 299.5882
1794 10.9462 308(3) 299.4721 299.4721
1795 10.9498 311(3) 299.3560 299.3560
1796 10.9534 308(3) 299.2400 299.2400
1797 10.9570 305(3) 299.1240 299.1240
1798 10.9606 303(3) 299.0079 299.0079
1799 10.9642 306(3) 298.8919 298.8919
1800 10.9678 301(3) 298.7758 298.7758
1801 10.9714 304(3) 298.6598 298.6598
1802 10.9750 306(3) 298.5438 298.5438
1803 10.9786 308(3) 298.4277 298.4277
1804 10.9822 308(3) 298.3117 298.3117
1805 10.9858 306(3) 298.1956 298.1956
1806 10.9894 305(3) 298.0796 298.0796
1807 10.9930 305(3) 297.9636 297.9636
1808 10.9966 301(3) 297.8475 297.8475
1809 11.0002 302(3) 297.7315 297.7315
1810 11.0038 305(3) 297.6154 297.6154
1811 11.0074 301(3) 297.4994 297.4994
1812 11.0110 302(3) 297.3834 297.3834
1813 11.0146 306(3) 297.2673 297.2673
1814 11.0182 304(3) 297.1513 297.1513
1815 11.0218 305(3) 297.0352 297.0352
1816 11.0254 306(3) 296.9192 296.9192
1817 11.0290 304(3) 296.8032 296.8032
1818 11.0326 310(3) 296.6871 296.6871
1819 11.0362 308(4) 296.5711 296.5711
1820 11.0398 303(3) 296.4550 296.4550
1821 11.0434 300(5) 296.3390 296.3390
1822 11.0470 303(3) 296.2229 296.2229
1823 11.0506 299(3) 296.1069 296.1069
1824 11.0542 301(3) 295.9908 295.9908
1825 11.0578 302(3) 295.8748 295.8748
1826 11.0614 299(3) 295.7588 295.7588
1827 11.0650 306(3) 295.6428 295.6428
1828 11.0686 306(3) 295.5267 295.5267
1829 11.0722 305(3) 295.4107 295.4107
1830 11.0758 304(3) 295.2946 295.2946
1831 11.0794 304(3) 295.1786 295.1786
1832 11.0830 304(3) 295.0625 295.0625
1833 11.0866 301(3) 294.9465 294.9465
1834 11.0902 298(3) 294.8305 294.8305
1835 11.0938 298(3) 294.7144 294.7144
1836 11.0974 296(3) 294.5984 294.5984
1837 11.1010 299(3) 294.4823 294.4823
1838 11.1046 306(3) 294.3663 294.3663
1839 11.1082 302(3) 294.2502 294.2502
1840 11.1118 294(3) 294.1342 294.1342
1841 11.1154 303(3) 294.0182 294.0182
1842 11.1190 306(3) 293.9021 293.9021
1843 11.1226 299(3) 293.7861 293.7861
1844 11.1262 299(3) 293.6700 293.6700
1845 11.1298 302(3) 293.5540 293.5540
1846 11.1334 297(3) 293.4380 293.4380
1847 11.1370 300(3) 293.3219 293.3219
1848 11.1406 304(3) 293.2059 293.2059
1849 11.1442 300(3) 293.0898 293.0898
1850 11.1478 298(3) 292.9738 292.9738
1851 11.1514 299(4) 292.8578 292.8578
1852 11.1550 303(3) 292.7417 292.7417
1853 11.1586 301(3) 292.6257 292.6257
1854 11.1622 300(3) 292.5096 292.5096
1855 11.1658 298(3) 292.3936 292.3936
1856 11.1694 298(3) 292.2775 292.2775
1857 11.1730 300(3) 292.1615 292.1615
1858 11.1766 301(3) 292.0455 292.0455
1859 11.1802 301(3) 291.9294 291.9294
1860 11.1838 299(3) 291.8134 291.8134
1861 11.1874 301(3) 291.6974 291.6974
1862 11.1910 304(3) 291.5813 291.5813
1863 11.1946 297(3) 291.4653 291.4653
1864 11.1982 298(3) 291.3492 291.3492
1865 11.2018 299(3) 291.2332 291.2332
1866 11.2054 296(3) 291.1172 291.1172
1867 11.2090 302(3) 291.0011 291.0011
1868 11.2126 294(3) 290.8851 290.8851
1869 11.2162 303(4) 290.7690 290.7690
1870 11.2198 301(3) 290.6530 290.6530
1871 11.2234 299(3) 290.5369 290.5369
1872 11.2270 300(3) 290.4209 290.4209
1873 11.2306 300(3) 290.3049 290.3049
1874 11.2342 302(3) 290.1888 290.1888
1875 11.2378 302(3) 290.0728 290.0728
1876 11.2414 303(3) 289.9567 289.9567
1877 11.2450 298(4) 289.8407 289.8407
1878 11.2486 297(3) 289.7246 289.7246
1879 11.2522 300(3) 289.6086 289.6086
1880 11.2558 303(3) 289.4926 289.4926
1881 11.2594 303(3) 289.3766 289.3766
1882 11.2630 301(3) 289.2605 289.2605
1883 11.2666 300(3) 289.1444 289.1444
1884 11.2702 301(3) 289.0284 289.0284
1885 11.2738 299(3) 288.9124 288.9124
1886 11.2774 295(3) 288.7963 288.7963
1887 11.2810 298(3) 288.6803 288.6803
1888 11.2846 294(3) 288.5643 288.5643
1889 11.2882 297(3) 288.4482 288.4482
1890 11.2918 301(3) 288.3322 288.3322
1891 11.2954 302(3) 288.2161 288.2161
1892 11.2990 301(3) 288.1001 288.1001
1893 11.3026 297(3) 287.9840 287.9840
1894 11.3062 304(3) 287.8680 287.8680
1895 11.3098 295(3) 287.7520 287.7520
1896 11.3134 298(3) 287.6359 287.6359
1897 11.3170 297(3) 287.5199 287.5199
1898 11.3206 293(3) 287.4038 287.4038
1899 11.3242 295(3) 287.2878 287.2878
1900 11.3278 296(3) 287.1718 287.1718
1901 11.3314 296(3) 287.0557 287.0557
1902 11.3350 296(3) 286.9397 286.9397
1903 11.3386 298(3) 286.8236 286.8236
1904 11.3422 298(3) 286.7076 286.7076
1905 11.3458 296(3) 286.5916 286.5916
1906 11.3494 296(3) 286.4755 286.4755
1907 11.3530 299(3) 286.3595 286.3595
1908 11.3566 301(3) 286.2434 286.2434
1909 11.3602 298(3) 286.1274 286.1274
1910 11.3638 303(3) 286.0113 286.0113
1911 11.3674 296(3) 285.8953 285.8953
1912 11.3710 296(3) 285.7793 285.7793
1913 11.3746 299(3) 285.6632 285.6632
1914 11.3782 296(3) 285.5472 285.5472
1915 11.3818 296(3) 285.4312 285.4312
1916 11.3854 297(3) 285.3151 285.3151
1917 11.3890 298(3) 285.1990 285.1990
1918 11.3926 302(3) 285.0830 285.0830
1919 11.3962 300(3) 284.9669 284.9669
1920 11.3998 295(3) 284.8510 284.8510
1921 11.4034 298(3) 284.7349 284.7349
1922 11.4070 301(3) 284.6189 284.6189
1923 11.4106 296(4) 284.5028 284.5028
1924 11.4142 295(3) 284.3868 284.3868
1925 11.4178 295(3) 284.2707 284.2707
1926 11.4214 295(3) 284.1547 284.1547
1927 11.4250 293(3) 284.0386 284.0386
1928 11.4286 296(3) 283.9226 283.9226
1929 11.4322 300(3) 283.8066 283.8066
1930 11.4358 296(4) 283.6905 283.6905
1931 11.4394 293(3) 283.5745 283.5745
1932 11.4430 298(3) 283.4584 283.4584
1933 11.4466 297(3) 283.3424 283.3424
1934 11.4502 292(3) 283.2263 283.2263
1935 11.4538 293(3) 283.1103 283.1103
1936 11.4574 298(3) 282.9943 282.9943
1937 11.4610 287(3) 282.8782 282.8782
1938 11.4646 295(3) 282.7622 282.7622
1939 11.4682 297(3) 282.6461 282.6461
1940 11.4718 296(3) 282.5301 282.5301
1941 11.4754 297(3) 282.4141 282.4141
1942 11.4790 292(3) 282.2980 282.2980
1943 11.4826 299(3) 282.1820 282.1820
1944 11.4862 296(3) 282.0660 282.0660
1945 11.4898 294(3) 281.9499 281.9499
1946 11.4934 294(3) 281.8339 281.8339
1947 11.4970 293(3) 281.9849 281.7178
1948 11.5006 293(3) 281.8709 281.6018
1949 11.5042 293(3) 281.7569 281.4857
1950 11.5078 292(3) 281.6430 281.3697
1951 11.5114 290(3) 281.5291 281.2537
1952 11.5150 289(3) 281.4153 281.1376
1953 11.5186 290(3) 281.3014 281.0216
1954 11.5222 291(3) 281.1876 280.9055
1955 11.5258 294(3) 281.0738 280.7895
1956 11.5294 291(3) 280.9600 280.6735
1957 11.5330 286(3) 280.8462 280.5574
1958 11.5366 291(3) 280.7325 280.4414
1959 11.5402 288(3) 280.6188 280.3253
1960 11.5438 289(3) 280.5052 280.2093
1961 11.5474 294(3) 280.3915 280.0933
1962 11.5510 292(3) 280.2779 279.9772
1963 11.5546 292(3) 280.1643 279.8612
1964 11.5582 288(3) 280.0508 279.7451
1965 11.5618 290(3) 279.9373 279.6291
1966 11.5654 288(3) 279.8238 279.5130
1967 11.5690 290(3) 279.7104 279.3970
1968 11.5726 286(3) 279.5969 279.2810
1969 11.5762 290(3) 279.4836 279.1649
1970 11.5798 289(4) 279.3702 279.0489
1971 11.5834 287(3) 279.2568 278.9328
1972 11.5870 285(3) 279.1436 278.8168
1973 11.5906 284(3) 279.0303 278.7007
1974 11.5942 286(3) 278.9171 278.5847
1975 11.5978 287(3) 278.8040 278.4687
1976 11.6014 285(3) 278.6908 278.3527
1977 11.6050 287(3) 278.5777 278.2366
1978 11.6086 292(3) 278.4646 278.1206
1979 11.6122 288(3) 278.3516 278.0045
1980 11.6158 288(3) 278.2386 277.8885
1981 11.6194 289(3) 278.1257 277.7724
1982 11.6230 291(3) 278.0128 277.6564
1983 11.6266 286(3) 277.8999 277.5404
1984 11.6302 284(3) 277.7871 277.4243
1985 11.6338 293(3) 277.6743 277.3083
1986 11.6374 285(3) 277.5616 277.1922
1987 11.6410 282(3) 277.4489 277.0762
1988 11.6446 280(3) 277.3362 276.9601
1989 11.6482 286(3) 277.2236 276.8441
1990 11.6518 287(3) 277.1111 276.7281
1991 11.6554 290(3) 276.9986 276.6120
1992 11.6590 282(3) 276.8862 276.4960
1993 11.6626 284(3) 276.7738 276.3799
1994 11.6662 287(3) 276.6614 276.2639
1995 11.6698 285(3) 276.5491 276.1479
1996 11.6734 286(3) 276.4369 276.0318
1997 11.6770 286(3) 276.3247 275.9158
1998 11.6806 285(3) 276.2126 275.7997
1999 11.6842 286(3) 276.1005 275.6837
2000 11.6878 286(3) 275.9885 275.5677
2001 11.6914 283(3) 275.8766 275.4516
2002 11.6950 284(3) 275.7646 275.3356
2003 11.6986 285(3) 275.6528 275.2195
2004 11.7022 280(3) 275.5410 275.1035
2005 11.7058 281(3) 275.4293 274.9874
2006 11.7094 282(3) 275.3177 274.8714
2007 11.7130 284(3) 275.2061 274.7554
2008 11.7166 287(3) 275.0946 274.6393
2009 11.7202 284(3) 274.9831 274.5233
2010 11.7238 282(3) 274.8717 274.4073
2011 11.7274 283(3) 274.7604 274.2912
2012 11.7310 283(3) 274.6492 274.1752
2013 11.7346 281(3) 274.5380 274.0591
2014 11.7382 285(3) 274.4269 273.9431
2015 11.7418 283(3) 274.3159 273.8271
2016 11.7454 281(3) 274.2050 273.7110
2017 11.7490 285(3) 274.0942 273.5950
2018 11.7526 286(3) 273.9834 273.4789
2019 11.7562 285(3) 273.8727 273.3629
2020 11.7598 279(3) 273.7621 273.2468
2021 11.7634 279(3) 273.6516 273.1308
2022 11.7670 285(3) 273.5412 273.0147
2023 11.7706 284(3) 273.4309 272.8987
2024 11.7742 281(3) 273.3207 272.7827
2025 11.7778 281(3) 273.2105 272.6666
2026 11.7814 283(3) 273.1005 272.5506
2027 11.7850 281(3) 272.9905 272.4345
2028 11.7886 280(3) 272.8807 272.3185
2029 11.7922 283(3) 272.7710 272.2025
2030 11.7958 283(3) 272.6613 272.0864
2031 11.7994 282(3) 272.5518 271.9704
2032 11.8030 285(3) 272.4424 271.8544
2033 11.8066 280(3) 272.3331 271.7383
2034 11.8102 281(3) 272.2240 271.6223
2035 11.8138 281(3) 272.1149 271.5062
2036 11.8174 283(3) 272.0060 271.3902
2037 11.8210 283(3) 271.8972 271.2741
2038 11.8246 282(3) 271.7885 271.1581
2039 11.8282 285(3) 271.6799 271.0421
2040 11.8318 281(4) 271.5715 270.9260
2041 11.8354 280(3) 271.4633 270.8100
2042 11.8390 284(3) 271.3551 270.6939
2043 11.8426 285(3) 271.2471 270.5779
2044 11.8462 282(3) 271.1393 270.4619
2045 11.8498 283(3) 271.0316 270.3458
2046 11.8534 285(3) 270.9241 270.2298
2047 11.8570 283(3) 270.8167 270.1137
2048 11.8606 280(3) 270.7095 269.9977
2049 11.8642 279(3) 270.6024 269.8817
2050 11.8678 282(3) 270.4955 269.7656
2051 11.8714 281(3) 270.3889 269.6496
2052 11.8750 282(3) 270.2823 269.5335
2053 11.8786 282(3) 270.1760 269.4175
2054 11.8822 277(3) 270.0698 269.3014
2055 11.8858 281(3) 269.9639 269.1854
2056 11.8894 282(3) 269.8582 269.0694
2057 11.8930 276(4) 269.7526 268.9533
2058 11.8966 278(3) 269.6473 268.8373
2059 11.9002 274(4) 269.5421 268.7212
2060 11.9038 275(3) 269.4373 268.6052
2061 11.9074 277(3) 269.3326 268.4891
2062 11.9110 278(3) 269.2282 268.3731
2063 11.9146 276(3) 269.1240 268.2571
2064 11.9182 271(3) 269.0201 268.1411
2065 11.9218 272(4) 268.9164 268.0250
2066 11.9254 275(4) 268.8129 267.9089
2067 11.9290 277(3) 268.7097 267.7929
2068 11.9326 277(3) 268.6068 267.6768
2069 11.9362 277(3) 268.5043 267.5608
2070 11.9398 281(3) 268.4020 267.4448
2071 11.9434 278(3) 268.3000 267.3288
2072 11.9470 272(3) 268.1983 267.2127
2073 11.9506 277(3) 268.0969 267.0967
2074 11.9542 276(3) 267.9959 266.9806
2075 11.9578 282(3) 267.8952 266.8646
2076 11.9614 279(3) 267.7948 266.7485
2077 11.9650 276(3) 267.6948 266.6325
2078 11.9686 276(3) 267.5952 266.5165
2079 11.9722 276(3) 267.4960 266.4004
2080 11.9758 279(3) 267.3972 266.2844
2081 11.9794 272(3) 267.2987 266.1683
2082 11.9830 272(3) 267.2007 266.0523
2083 11.9866 280(3) 267.1031 265.9362
2084 11.9902 277(3) 267.0060 265.8202
2085 11.9938 280(3) 266.9093 265.7042
2086 11.9974 279(3) 266.8131 265.5881
2087 12.0010 280(3) 266.7175 265.4721
2088 12.0046 280(3) 266.6223 265.3560
2089 12.0082 279(3) 266.5276 265.2400
2090 12.0118 274(4) 266.4335 265.1240
2091 12.0154 272(3) 266.3400 265.0079
2092 12.0190 274(3) 266.2470 264.8919
2093 12.0226 274(3) 266.1546 264.7758
2094 12.0262 273(3) 266.0629 264.6598
2095 12.0298 275(3) 265.9718 264.5438
2096 12.0334 275(3) 265.8814 264.4277
2097 12.0370 277(3) 265.7917 264.3117
2098 12.0406 269(3) 265.7027 264.1956
2099 12.0442 273(3) 265.6144 264.0796
2100 12.0478 267(3) 265.5270 263.9636
2101 12.0514 273(3) 265.4403 263.8475
2102 12.0550 271(3) 265.3545 263.7315
2103 12.0586 273(3) 265.2695 263.6154
2104 12.0622 272(3) 265.1854 263.4994
2105 12.0658 268(3) 265.1023 263.3834
2106 12.0694 265(3) 265.0201 263.2673
2107 12.0730 267(3) 264.9389 263.1513
2108 12.0766 271(3) 264.8588 263.0352
2109 12.0802 267(3) 264.7798 262.9192
2110 12.0838 269(3) 264.7019 262.8032
2111 12.0874 269(3) 264.6252 262.6871
2112 12.0910 264(3) 264.5497 262.5711
2113 12.0946 267(3) 264.4755 262.4550
2114 12.0982 270(3) 264.4027 262.3390
2115 12.1018 269(3) 264.3312 262.2229
2116 12.1054 269(3) 264.2612 262.1069
2117 12.1090 268(3) 264.1927 261.9908
2118 12.1126 270(3) 264.1258 261.8748
2119 12.1162 268(3) 264.0606 261.7588
2120 12.1198 267(3) 263.9971 261.6427
2121 12.1234 269(3) 263.9354 261.5267
2122 12.1270 264(3) 263.8756 261.4106
2123 12.1306 268(3) 263.8179 261.2946
2124 12.1342 267(3) 263.7621 261.1786
2125 12.1378 271(3) 263.7086 261.0625
2126 12.1414 270(3) 263.6574 260.9465
2127 12.1450 271(3) 263.6085 260.8304
2128 12.1486 271(3) 263.5622 260.7144
2129 12.1522 264(3) 263.5185 260.5984
2130 12.1558 267(3) 263.4777 260.4823
2131 12.1594 269(3) 263.4397 260.3663
2132 12.1630 273(4) 263.4048 260.2502
2133 12.1666 269(3) 263.3732 260.1342
2134 12.1702 268(3) 263.3450 260.0182
2135 12.1738 271(3) 263.3204 259.9021
2136 12.1774 272(3) 263.2996 259.7861
2137 12.1810 269(3) 263.2828 259.6700
2138 12.1846 267(3) 263.2702 259.5540
2139 12.1882 268(3) 263.2622 259.4380
2140 12.1918 266(3) 263.2589 259.3219
2141 12.1954 263(3) 263.2607 259.2059
2142 12.1990 265(3) 263.2677 259.0898
2143 12.2026 267(3) 263.2805 258.9738
2144 12.2062 268(3) 263.2992 258.8578
2145 12.2098 269(3) 263.3244 258.7417
2146 12.2134 263(3) 263.3563 258.6257
2147 12.2170 266(3) 263.3955 258.5096
2148 12.2206 265(3) 263.4424 258.3936
2149 12.2242 272(3) 263.4976 258.2776
2150 12.2278 270(3) 263.5615 258.1615
2151 12.2314 268(3) 263.6348 258.0455
2152 12.2350 267(3) 263.7183 257.9294
2153 12.2386 269(3) 263.8125 257.8134
2154 12.2422 271(3) 263.9182 257.6973
2155 12.2458 267(3) 264.0364 257.5813
2156 12.2494 265(3) 264.1680 257.4652
2157 12.2530 268(3) 264.3139 257.3492
2158 12.2566 269(3) 264.4754 257.2332
2159 12.2602 265(3) 264.6537 257.1172
2160 12.2638 264(3) 264.8500 257.0011
2161 12.2674 266(3) 265.0661 256.8851
2162 12.2710 266(3) 265.3033 256.7690
2163 12.2746 266(3) 265.5638 256.6530
2164 12.2782 265(3) 265.8494 256.5369
2165 12.2818 264(3) 266.1623 256.4209
2166 12.2854 269(3) 266.5052 256.3049
2167 12.2890 269(3) 266.8810 256.1888
2168 12.2926 271(3) 267.2926 256.0728
2169 12.2962 270(3) 267.7437 255.9567
2170 12.2998 271(3) 268.2383 255.8407
2171 12.3034 270(3) 268.7809 255.7246
2172 12.3070 268(3) 269.3766 255.6086
2173 12.3106 275(3) 270.0312 255.4926
2174 12.3142 274(3) 270.7521 255.3765
2175 12.3178 279(3) 271.5473 255.2605
2176 12.3214 271(3) 272.4269 255.1444
2177 12.3250 280(3) 273.4035 255.0284
2178 12.3286 278(3) 274.4931 254.9124
2179 12.3322 279(3) 275.7169 254.7963
2180 12.3358 286(3) 277.1032 254.6803
2181 12.3394 284(3) 278.6908 254.5643
2182 12.3430 287(3) 280.5344 254.4482
2183 12.3466 293(3) 282.7083 254.3322
2184 12.3502 295(3) 285.3155 254.2161
2185 12.3538 299(3) 288.4960 254.1001
2186 12.3574 304(3) 292.4371 253.9840
2187 12.3610 308(3) 297.3840 253.8680
2188 12.3646 316(3) 303.6498 253.7519
2189 12.3682 322(4) 311.6197 253.6359
2190 12.3718 332(5) 321.7622 253.5199
2191 12.3754 349(4) 334.6104 253.4038
2192 12.3790 361(4) 350.7536 253.2878
2193 12.3826 378(4) 370.8057 253.1718
2194 12.3862 399(4) 395.3625 253.0557
2195 12.3898 418(5) 424.9450 252.9397
2196 12.3934 440(4) 459.9325 252.8236
2197 12.3970 467(4) 500.4772 252.7076
2198 12.4006 502(6) 546.4740 252.5916
2199 12.4042 547(7) 597.4222 252.4755
2200 12.4078 591(8) 652.3998 252.3595
2201 12.4114 638(8) 709.9874 252.2434
2202 12.4150 687(8) 768.2064 252.1274
2203 12.4186 739(9) 824.4705 252.0113
2204 12.4222 787(9) 875.5951 251.8953
2205 12.4258 833(9) 917.9404 251.7793
2206 12.4294 865(7) 947.8593 251.6632
2207 12.4330 878(6) 962.3094 251.5472
2208 12.4366 879(6) 959.6750 251.4311
2209 12.4402 865(7) 940.2435 251.3151
2210 12.4438 828(9) 906.1143 251.1990
2211 12.4474 775(9) 860.5856 251.0830
2212 12.4510 723(9) 807.3746 250.9669
2213 12.4546 672(9) 750.0250 250.8509
2214 12.4582 623(8) 691.5225 250.7349
2215 12.4618 577(8) 634.2875 250.6189
2216 12.4654 524(8) 580.1301 250.5028
2217 12.4690 475(5) 530.3181 250.3868
2218 12.4726 450(5) 485.6411 250.2707
2219 12.4762 423(5) 446.4767 250.1547
2220 12.4798 396(4) 412.8597 250.0386
2221 12.4834 378(4) 384.5624 249.9226
2222 12.4870 354(4) 361.1421 249.8066
2223 12.4906 343(3) 342.0579 249.6905
2224 12.4942 326(4) 326.7035 249.5745
2225 12.4978 320(3) 314.4683 249.4584
2226 12.5014 310(4) 304.7766 249.3424
2227 12.5050 301(3) 297.1129 249.2263
2228 12.5086 296(3) 291.0348 249.1103
2229 12.5122 290(3) 286.1782 248.9943
2230 12.5158 285(4) 282.2482 248.8782
2231 12.5194 285(4) 279.0190 248.7622
2232 12.5230 279(4) 276.3180 248.6461
2233 12.5266 275(3) 274.0170 248.5301
2234 12.5302 274(3) 272.0221 248.4141
2235 12.5338 267(3) 270.2653 248.2980
2236 12.5374 268(3) 268.6980 248.1820
2237 12.5410 267(3) 267.2836 248.0659
2238 12.5446 263(3) 265.9967 247.9499
2239 12.5482 260(3) 264.8176 247.8339
2240 12.5518 260(3) 263.7316 247.7178
2241 12.5554 266(3) 262.7268 247.6018
2242 12.5590 261(3) 261.7938 247.4857
2243 12.5626 260(3) 260.9248 247.3697
2244 12.5662 253(3) 260.1132 247.2537
2245 12.5698 258(3) 259.3530 247.1376
2246 12.5734 255(3) 258.6394 247.0216
2247 12.5770 259(3) 257.9681 246.9055
2248 12.5806 255(3) 257.3351 246.7895
2249 12.5842 252(3) 256.7372 246.6734
2250 12.5878 251(3) 256.1711 246.5574
2251 12.5914 251(3) 255.6342 246.4414
2252 12.5950 252(3) 255.1242 246.3253
2253 12.5986 252(3) 254.6386 246.2093
2254 12.6022 251(3) 254.1756 246.0933
2255 12.6058 252(3) 253.7334 245.9772
2256 12.6094 251(3) 253.3103 245.8612
2257 12.6130 249(3) 252.9050 245.7451
2258 12.6166 251(3) 252.5161 245.6291
2259 12.6202 251(3) 252.1423 245.5130
2260 12.6238 247(3) 251.7827 245.3970
2261 12.6274 246(3) 251.4392 245.2840
2262 12.6310 251(3) 251.1088 245.1720
2263 12.6346 252(3) 250.7898 245.0600
2264 12.6382 250(3) 250.4813 244.9480
2265 12.6418 252(3) 250.1827 244.8360
2266 12.6454 244(3) 249.8934 244.7240
2267 12.6490 250(3) 249.6126 244.6120
2268 12.6526 248(3) 249.3400 244.5000
2269 12.6562 249(3) 249.0750 244.3881
2270 12.6598 243(3) 248.8170 244.2761
2271 12.6634 240(3) 248.5657 244.1641
2272 12.6670 245(3) 248.3207 244.0521
2273 12.6706 245(3) 248.0816 243.9401
2274 12.6742 247(3) 247.8480 243.8281
2275 12.6778 245(3) 247.6198 243.7161
2276 12.6814 245(3) 247.3965 243.6041
2277 12.6850 246(3) 247.1778 243.4921
2278 12.6886 246(3) 246.9636 243.3801
2279 12.6922 244(3) 246.7535 243.2681
2280 12.6958 243(3) 246.5474 243.1561
2281 12.6994 246(3) 246.3450 243.0441
2282 12.7030 249(3) 246.1462 242.9321
2283 12.7066 248(3) 245.9507 242.8201
2284 12.7102 245(3) 245.7585 242.7081
2285 12.7138 245(3) 245.5693 242.5961
2286 12.7174 245(3) 245.3830 242.4842
2287 12.7210 243(3) 245.1994 242.3722
2288 12.7246 246(3) 245.0184 242.2602
2289 12.7282 245(4) 244.8400 242.1482
2290 12.7318 245(3) 244.6638 242.0362
2291 12.7354 247(3) 244.4900 241.9242
2292 12.7390 246(3) 244.3183 241.8122
2293 12.7426 244(3) 244.1486 241.7002
2294 12.7462 242(3) 243.9809 241.5882
2295 12.7498 246(3) 243.8151 241.4762
2296 12.7534 239(3) 243.6511 241.3642
2297 12.7570 240(3) 243.4888 241.2522
2298 12.7606 238(3) 243.3281 241.1402
2299 12.7642 239(3) 243.1690 241.0282
2300 12.7678 243(3) 243.0114 240.9162
2301 12.7714 243(3) 242.8552 240.8042
2302 12.7750 240(3) 242.7004 240.6922
2303 12.7786 241(3) 242.5470 240.5803
2304 12.7822 245(3) 242.3948 240.4683
2305 12.7858 242(3) 242.2438 240.3563
2306 12.7894 239(3) 242.0940 240.2443
2307 12.7930 240(3) 241.9453 240.1323
2308 12.7966 244(3) 241.7977 240.0203
2309 12.8002 241(3) 241.6511 239.9083
2310 12.8038 241(3) 241.5055 239.7963
2311 12.8074 240(3) 241.3609 239.6843
2312 12.8110 239(3) 241.2172 239.5723
2313 12.8146 240(3) 241.0744 239.4603
2314 12.8182 242(3) 240.9325 239.3483
2315 12.8218 235(3) 240.7913 239.2363
2316 12.8254 239(3) 240.6510 239.1243
2317 12.8290 239(3) 240.5115 239.0123
2318 12.8326 237(3) 240.3726 238.9003
2319 12.8362 240(3) 240.2345 238.7883
2320 12.8398 240(3) 240.0971 238.6764
2321 12.8434 239(3) 239.9603 238.5644
2322 12.8470 239(3) 239.8242 238.4524
2323 12.8506 243(3) 239.6888 238.3404
2324 12.8542 245(3) 239.5538 238.2284
2325 12.8578 243(3) 239.4195 238.1164
2326 12.8614 241(3) 239.2857 238.0044
2327 12.8650 239(3) 239.1525 237.8924
2328 12.8686 239(3) 239.0198 237.7804
2329 12.8722 239(3) 238.8876 237.6684
2330 12.8758 242(3) 238.7559 237.5564
2331 12.8794 241(3) 238.6247 237.4444
2332 12.8830 239(3) 238.4939 237.3324
2333 12.8866 240(3) 238.3636 237.2204
2334 12.8902 238(3) 238.2337 237.1084
2335 12.8938 235(3) 238.1042 236.9964
2336 12.8974 235(3) 237.9751 236.8844
2337 12.9010 236(3) 237.8645 236.7725
2338 12.9046 236(3) 237.7363 236.6605
2339 12.9082 237(3) 237.6085 236.5485
2340 12.9118 236(3) 237.4811 236.4365
2341 12.9154 237(3) 237.3539 236.3245
2342 12.9190 237(3) 237.2272 236.2125
2343 12.9226 236(3) 237.1007 236.1005
2344 12.9262 235(3) 236.9746 235.9885
2345 12.9298 236(3) 236.8488 235.8765
2346 12.9334 236(3) 236.7233 235.7645
2347 12.9370 235(3) 236.5981 235.6525
2348 12.9406 234(3) 236.4732 235.5405
2349 12.9442 234(3) 236.3485 235.4285
2350 12.9478 234(3) 236.2241 235.3165
2351 12.9514 235(3) 236.1000 235.2045
2352 12.9550 237(3) 235.9761 235.0925
2353 12.9586 235(3) 235.8525 234.9805
2354 12.9622 234(3) 235.7291 234.8686
2355 12.9658 234(3) 235.6060 234.7566
2356 12.9694 232(3) 235.4831 234.6446
2357 12.9730 233(3) 235.3604 234.5326
2358 12.9766 234(3) 235.2379 234.4206
2359 12.9802 234(3) 235.1156 234.3086
2360 12.9838 236(3) 234.9936 234.1966
2361 12.9874 232(3) 234.8717 234.0846
2362 12.9910 231(3) 234.7500 233.9726
2363 12.9946 235(3) 234.6286 233.8606
2364 12.9982 237(3) 234.5073 233.7486
2365 13.0018 236(3) 234.3862 233.6366
2366 13.0054 231(3) 234.2652 233.5246
2367 13.0090 228(3) 234.1445 233.4126
2368 13.0126 230(3) 234.0239 233.3006
2369 13.0162 232(3) 233.9035 233.1886
2370 13.0198 235(3) 233.7832 233.0766
2371 13.0234 235(3) 233.6631 232.9647
2372 13.0270 236(3) 233.5432 232.8527
2373 13.0306 235(3) 233.4233 232.7407
2374 13.0342 232(3) 233.3037 232.6287
2375 13.0378 232(3) 233.1841 232.5167
2376 13.0414 233(3) 233.0647 232.4047
2377 13.0450 231(3) 232.9455 232.2927
2378 13.0486 225(3) 232.8264 232.1807
2379 13.0522 228(3) 232.7074 232.0687
2380 13.0558 224(3) 232.5886 231.9567
2381 13.0594 228(3) 232.4698 231.8447
2382 13.0630 229(3) 232.3512 231.7327
2383 13.0666 229(3) 232.2327 231.6207
2384 13.0702 231(3) 232.1143 231.5087
2385 13.0738 230(3) 231.9961 231.3967
2386 13.0774 230(3) 231.8779 231.2847
2387 13.0810 226(3) 231.7599 231.1728
2388 13.0846 226(3) 231.6420 231.0608
2389 13.0882 226(3) 231.5241 230.9488
2390 13.0918 229(3) 231.4064 230.8368
2391 13.0954 228(3) 231.2888 230.7248
2392 13.0990 229(3) 231.1712 230.6128
2393 13.1026 232(3) 231.0538 230.5008
2394 13.1062 229(3) 230.9364 230.3888
2395 13.1098 224(3) 230.8192 230.2768
2396 13.1134 225(3) 230.7020 230.1648
2397 13.1170 229(3) 230.5850 230.0528
2398 13.1206 234(3) 230.4680 229.9408
2399 13.1242 231(3) 230.3511 229.8288
2400 13.1278 228(3) 230.2343 229.7168
2401 13.1314 229(3) 230.1176 229.6048
2402 13.1350 224(3) 230.0009 229.4928
2403 13.1386 226(3) 229.8844 229.3809
2404 13.1422 227(3) 229.7679 229.2689
2405 13.1458 229(3) 229.6514 229.1569
2406 13.1494 232(3) 229.5351 229.0449
2407 13.1530 227(3) 229.4188 228.9329
2408 13.1566 226(3) 229.3026 228.8209
2409 13.1602 232(3) 229.1865 228.7089
2410 13.1638 229(3) 229.0704 228.5969
2411 13.1674 230(3) 228.9545 228.4849
2412 13.1710 227(3) 228.8386 228.3729
2413 13.1746 228(3) 228.7227 228.2609
2414 13.1782 225(3) 228.6069 228.1489
2415 13.1818 224(3) 228.4912 228.0369
2416 13.1854 224(3) 228.3755 227.9249
2417 13.1890 224(3) 228.2599 227.8129
2418 13.1926 223(3) 228.1444 227.7010
2419 13.1962 223(3) 228.0289 227.5890
2420 13.1998 224(3) 227.9135 227.4770
2421 13.2034 226(3) 227.7982 227.3650
2422 13.2070 224(3) 227.6829 227.2530
2423 13.2106 222(4) 227.5676 227.1410
2424 13.2142 228(3) 227.4524 227.0290
2425 13.2178 227(3) 227.3373 226.9170
2426 13.2214 229(3) 227.2222 226.8050
2427 13.2250 223(3) 227.1072 226.6930
2428 13.2286 220(3) 226.9922 226.5810
2429 13.2322 224(3) 226.8773 226.4690
2430 13.2358 223(3) 226.7624 226.3570
2431 13.2394 224(3) 226.6476 226.2450
2432 13.2430 219(3) 226.5329 226.1330
2433 13.2466 223(3) 226.4181 226.0210
2434 13.2502 225(3) 226.3035 225.9091
2435 13.2538 226(3) 226.1889 225.7971
2436 13.2574 228(3) 226.0743 225.6851
2437 13.2610 226(3) 225.9598 225.5731
2438 13.2646 224(3) 225.8453 225.4611
2439 13.2682 225(3) 225.7309 225.3491
2440 13.2718 225(3) 225.6165 225.2371
2441 13.2754 225(3) 225.5021 225.1251
2442 13.2790 223(3) 225.3879 225.0131
2443 13.2826 220(3) 225.2736 224.9011
2444 13.2862 223(3) 225.1594 224.7891
2445 13.2898 223(3) 225.0452 224.6771
2446 13.2934 220(3) 224.9311 224.5651
2447 13.2970 220(3) 224.8170 224.4531
2448 13.3006 223(3) 224.7030 224.3411
2449 13.3042 219(3) 224.5890 224.2291
2450 13.3078 222(3) 224.4751 224.1172
2451 13.3114 226(3) 224.3612 224.0052
2452 13.3150 219(3) 224.2473 223.8932
2453 13.3186 227(3) 224.1335 223.7812
2454 13.3222 224(3) 224.0197 223.6692
2455 13.3258 226(3) 223.9059 223.5572
2456 13.3294 220(3) 223.8885 223.4452
2457 13.3330 218(3) 223.7755 223.3332
2458 13.3366 221(3) 223.6626 223.2212
2459 13.3402 221(4) 223.5497 223.1092
2460 13.3438 218(3) 223.4725 222.9972
2461 13.3474 220(3) 223.3599 222.8852
2462 13.3510 219(3) 223.2474 222.7732
2463 13.3546 219(3) 223.1349 222.6612
2464 13.3582 219(3) 223.0225 222.5492
2465 13.3618 222(3) 222.9102 222.4372
2466 13.3654 222(3) 222.7979 222.3253
2467 13.3690 220(3) 222.6857 222.2133
2468 13.3726 220(3) 222.5735 222.1013
2469 13.3762 219(3) 222.1969 221.9893
2470 13.3798 221(3) 222.0868 221.8773
2471 13.3834 222(3) 221.9768 221.7653
2472 13.3870 220(3) 221.8667 221.6533
2473 13.3906 216(3) 221.7567 221.5413
2474 13.3942 222(3) 221.6467 221.4293
2475 13.3978 220(3) 221.5368 221.3173
2476 13.4014 220(3) 221.4269 221.2053
2477 13.4050 213(3) 221.3170 221.0933
2478 13.4086 218(3) 221.2072 220.9813
2479 13.4122 220(3) 221.0974 220.8693
2480 13.4158 219(3) 220.9876 220.7573
2481 13.4194 216(3) 220.8779 220.6453
2482 13.4230 215(3) 220.7682 220.5334
2483 13.4266 214(3) 220.6586 220.4214
2484 13.4302 215(3) 220.5490 220.3094
2485 13.4338 219(3) 220.4394 220.1974
2486 13.4374 217(3) 220.3298 220.0854
2487 13.4410 216(3) 220.2204 219.9734
2488 13.4446 218(3) 220.1109 219.8614
2489 13.4482 219(3) 220.0015 219.7494
2490 13.4518 219(3) 219.8922 219.6374
2491 13.4554 219(3) 219.7829 219.5254
2492 13.4590 218(3) 219.6736 219.4134
2493 13.4626 218(3) 219.5644 219.3014
2494 13.4662 217(3) 219.4552 219.1894
2495 13.4698 219(4) 219.3461 219.0774
2496 13.4734 215(3) 219.2371 218.9654
2497 13.4770 214(3) 219.1281 218.8534
2498 13.4806 217(3) 219.0191 218.7415
2499 13.4842 213(3) 218.9103 218.6295
2500 13.4878 222(3) 218.8014 218.5175
2501 13.4914 213(3) 218.6927 218.4055
2502 13.4950 221(3) 218.5840 218.2935
2503 13.4986 217(3) 218.4753 218.1815
2504 13.5022 214(3) 218.3667 218.0695
2505 13.5058 213(3) 218.2583 217.9575
2506 13.5094 217(3) 218.1498 217.8455
2507 13.5130 216(3) 218.0415 217.7335
2508 13.5166 217(3) 217.9332 217.6215
2509 13.5202 214(3) 217.8250 217.5095
2510 13.5238 212(3) 217.7169 217.3975
2511 13.5274 214(3) 217.6088 217.2855
2512 13.5310 216(3) 217.5009 217.1735
2513 13.5346 215(3) 217.3930 217.0616
2514 13.5382 212(3) 217.2853 216.9496
2515 13.5418 212(3) 217.1776 216.8376
2516 13.5454 213(3) 217.0700 216.7256
2517 13.5490 212(3) 216.9625 216.6136
2518 13.5526 216(3) 216.8551 216.5016
2519 13.5562 213(3) 216.7479 216.3896
2520 13.5598 213(3) 216.6407 216.2776
2521 13.5634 214(3) 216.5337 216.1656
2522 13.5670 216(3) 216.4268 216.0536
2523 13.5706 210(3) 216.3200 215.9416
2524 13.5742 217(3) 216.2133 215.8296
2525 13.5778 214(3) 216.1068 215.7176
2526 13.5814 209(3) 216.0004 215.6056
2527 13.5850 206(3) 215.8941 215.4936
2528 13.5886 215(3) 215.7880 215.3816
2529 13.5922 214(3) 215.6821 215.2697
2530 13.5958 212(3) 215.5763 215.1577
2531 13.5994 214(3) 215.4707 215.0457
2532 13.6030 215(3) 215.3652 214.9337
2533 13.6066 213(3) 215.2600 214.8217
2534 13.6102 212(3) 215.1549 214.7097
2535 13.6138 213(3) 215.0501 214.5977
2536 13.6174 214(3) 214.9454 214.4857
2537 13.6210 215(3) 214.8410 214.3737
2538 13.6246 215(3) 214.7368 214.2617
2539 13.6282 213(3) 214.6328 214.1497
2540 13.6318 208(3) 214.5291 214.0377
2541 13.6354 209(3) 214.4256 213.9257
2542 13.6390 209(3) 214.3224 213.8137
2543 13.6426 209(3) 214.2195 213.7017
2544 13.6462 214(3) 214.1168 213.5897
2545 13.6498 213(3) 214.0145 213.4778
2546 13.6534 209(3) 213.9126 213.3658
2547 13.6570 208(3) 213.8109 213.2538
2548 13.6606 215(3) 213.7096 213.1418
2549 13.6642 211(3) 213.6087 213.0298
2550 13.6678 208(3) 213.5082 212.9178
2551 13.6714 206(3) 213.4082 212.8058
2552 13.6750 210(3) 213.3086 212.6938
2553 13.6786 209(3) 213.2094 212.5818
2554 13.6822 211(3) 213.1108 212.4698
2555 13.6858 210(3) 213.0127 212.3578
2556 13.6894 209(3) 212.9151 212.2458
2557 13.6930 213(3) 212.8181 212.1338
2558 13.6966 210(3) 212.7218 212.0218
2559 13.7002 205(3) 212.6261 211.9098
2560 13.7038 207(3) 212.5312 211.7978
2561 13.7074 210(3) 212.4370 211.6859
2562 13.7110 209(3) 212.3436 211.5739
2563 13.7146 207(3) 212.2511 211.4619
2564 13.7182 209(3) 212.1594 211.3499
2565 13.7218 209(3) 212.0688 211.2379
2566 13.7254 207(3) 211.9792 211.1259
2567 13.7290 209(3) 211.8907 211.0139
2568 13.7326 208(3) 211.8035 210.9019
2569 13.7362 208(3) 211.7176 210.7899
2570 13.7398 209(3) 211.6331 210.6779
2571 13.7434 208(3) 211.5500 210.5659
2572 13.7470 207(3) 211.4687 210.4539
2573 13.7506 213(3) 211.3890 210.3419
2574 13.7542 212(3) 211.3114 210.2299
2575 13.7578 210(3) 211.2357 210.1179
2576 13.7614 212(3) 211.1624 210.0059
2577 13.7650 207(3) 211.0915 209.8940
2578 13.7686 209(3) 211.0233 209.7820
2579 13.7722 207(3) 210.9580 209.6700
2580 13.7758 205(3) 210.8960 209.5580
2581 13.7794 205(3) 210.8376 209.4460
2582 13.7830 208(3) 210.7831 209.3340
2583 13.7866 210(3) 210.7330 209.2220
2584 13.7902 209(3) 210.6878 209.1100
2585 13.7938 211(3) 210.6483 208.9980
2586 13.7974 212(3) 210.6152 208.8860
2587 13.8010 208(3) 210.5895 208.7740
2588 13.8046 208(3) 210.5728 208.6620
2589 13.8082 207(3) 210.5667 208.5500
2590 13.8118 212(3) 210.5739 208.4380
2591 13.8154 211(3) 210.5977 208.3260
2592 13.8190 208(3) 210.6425 208.2141
2593 13.8226 209(3) 210.7146 208.1021
2594 13.8262 211(3) 210.8219 207.9901
2595 13.8298 211(3) 210.9749 207.8781
2596 13.8334 214(3) 211.1871 207.7661
2597 13.8370 213(3) 211.4753 207.6541
2598 13.8406 211(3) 211.8600 207.5421
2599 13.8442 211(3) 212.3655 207.4301
2600 13.8478 216(3) 213.0193 207.3181
2601 13.8514 217(3) 213.8528 207.2061
2602 13.8550 218(3) 214.8983 207.0941
2603 13.8586 218(3) 216.1883 206.9821
2604 13.8622 220(3) 217.7531 206.8701
2605 13.8658 221(3) 219.6178 206.7581
2606 13.8694 220(3) 221.7992 206.6461
2607 13.8730 223(3) 224.3020 206.5341
2608 13.8766 229(3) 227.1153 206.4221
2609 13.8802 233(3) 230.2116 206.3102
2610 13.8838 240(3) 233.5398 206.1982
2611 13.8874 244(3) 237.0249 206.0862
2612 13.8910 244(3) 240.5645 205.9742
2613 13.8946 248(3) 244.0264 205.8622
2614 13.8982 255(3) 247.2481 205.7502
2615 13.9018 259(3) 250.0417 205.6382
2616 13.9054 265(3) 252.2078 205.5262
2617 13.9090 264(3) 253.5636 205.4142
2618 13.9126 264(3) 253.9754 205.3022
2619 13.9162 270(3) 253.3935 205.1902
2620 13.9198 267(3) 251.8645 205.0782
2621 13.9234 264(3) 249.5192 204.9662
2622 13.9270 255(3) 246.5403 204.8542
2623 13.9306 248(3) 243.1268 204.7422
2624 13.9342 249(3) 239.4684 204.6302
2625 13.9378 244(3) 235.7264 204.5182
2626 13.9414 236(3) 232.0351 204.4062
2627 13.9450 232(3) 228.4979 204.2943
2628 13.9486 228(3) 225.1907 204.1823
2629 13.9522 226(3) 222.1646 204.0703
2630 13.9558 225(3) 219.4493 203.9583
2631 13.9594 225(3) 217.0556 203.8463
2632 13.9630 220(3) 214.9796 203.7343
2633 13.9666 215(3) 213.2038 203.6223
2634 13.9702 213(3) 211.7040 203.5103
2635 13.9738 212(3) 210.4501 203.3983
2636 13.9774 210(3) 209.4096 203.2863
2637 13.9810 208(3) 208.5499 203.1743
2638 13.9846 208(3) 207.8401 203.0623
2639 13.9882 207(3) 207.2523 202.9503
2640 13.9918 206(3) 206.7622 202.8383
2641 13.9954 207(3) 206.3490 202.7263
2642 13.9990 208(3) 205.9959 202.6143
2643 14.0026 204(3) 205.6893 202.5023
2644 14.0062 205(3) 205.4188 202.3904
2645 14.0098 202(3) 205.1761 202.2784
2646 14.0134 201(3) 204.9553 202.1664
2647 14.0170 202(3) 204.7518 202.0544
2648 14.0206 205(3) 204.5621 201.9424
2649 14.0242 197(3) 204.3839 201.8304
2650 14.0278 201(3) 204.2151 201.7184
2651 14.0314 203(3) 204.0546 201.6064
2652 14.0350 200(3) 203.9013 201.4944
2653 14.0386 200(3) 203.7543 201.3824
2654 14.0422 204(3) 203.6131 201.2704
2655 14.0458 206(3) 203.4771 201.1584
2656 14.0494 203(3) 203.3460 201.0464
2657 14.0530 200(3) 203.2193 200.9344
2658 14.0566 201(3) 203.0969 200.8224
2659 14.0602 201(3) 202.9784 200.7104
2660 14.0638 197(3) 202.8636 200.5984
2661 14.0674 197(3) 202.7525 200.4865
2662 14.0710 202(3) 202.6448 200.3745
2663 14.0746 200(3) 202.5405 200.2625
2664 14.0782 196(3) 202.4393 200.1505
2665 14.0818 193(3) 202.3413 200.0385
2666 14.0854 196(3) 202.2464 199.9265
2667 14.0890 199(3) 202.1545 199.8145
2668 14.0926 200(3) 202.0657 199.7025
2669 14.0962 200(3) 201.9798 199.5905
2670 14.0998 201(3) 201.8970 199.4785
2671 14.1034 200(3) 201.8171 199.3665
2672 14.1070 198(3) 201.7404 199.2545
2673 14.1106 198(3) 201.6667 199.1425
2674 14.1142 201(3) 201.5961 199.0305
2675 14.1178 198(3) 201.5288 198.9185
2676 14.1214 198(3) 201.4648 198.8065
2677 14.1250 199(3) 201.4041 198.6945
2678 14.1286 200(3) 201.3470 198.5826
2679 14.1322 201(3) 201.2935 198.4706
2680 14.1358 200(3) 201.2438 198.3586
2681 14.1394 202(3) 201.1981 198.2466
2682 14.1430 204(3) 201.1564 198.1346
2683 14.1466 203(3) 201.1191 198.0226
2684 14.1502 202(3) 201.0863 197.9106
2685 14.1538 199(3) 201.0583 197.7986
2686 14.1574 199(3) 201.0353 197.6866
2687 14.1610 198(3) 201.0176 197.5746
2688 14.1646 200(3) 201.0056 197.4626
2689 14.1682 199(3) 200.9995 197.3506
2690 14.1718 198(3) 200.9998 197.2386
2691 14.1754 198(3) 201.0068 197.1266
2692 14.1790 203(3) 201.0210 197.0146
2693 14.1826 200(3) 201.0429 196.9026
2694 14.1862 198(3) 201.0731 196.7906
2695 14.1898 198(3) 201.1121 196.6787
2696 14.1934 200(3) 201.1607 196.5667
2697 14.1970 203(3) 201.2194 196.4547
2698 14.2006 199(3) 201.2892 196.3427
2699 14.2042 198(3) 201.3709 196.2307
2700 14.2078 197(3) 201.4654 196.1187
2701 14.2114 198(3) 201.5740 196.0067
2702 14.2150 203(3) 201.6976 195.8947
2703 14.2186 205(3) 201.8378 195.7827
2704 14.2222 202(3) 201.9959 195.6707
2705 14.2258 201(3) 202.1738 195.5587
2706 14.2294 201(3) 202.3732 195.4467
2707 14.2330 202(3) 202.5963 195.3347
2708 14.2366 200(3) 202.8458 195.2227
2709 14.2402 203(3) 203.1245 195.1107
2710 14.2438 204(3) 203.4359 194.9987
2711 14.2474 197(3) 203.7843 194.8868
2712 14.2510 202(3) 204.1751 194.7748
2713 14.2546 204(3) 204.6153 194.6628
2714 14.2582 205(3) 205.1136 194.5508
2715 14.2618 207(3) 205.6817 194.4388
2716 14.2654 212(3) 206.3353 194.3268
2717 14.2690 209(3) 207.0951 194.2148
2718 14.2726 207(3) 207.9890 194.1028
2719 14.2762 213(3) 209.0535 193.9908
2720 14.2798 214(3) 210.3378 193.8788
2721 14.2834 214(3) 211.9042 193.7668
2722 14.2870 217(3) 213.8328 193.6548
2723 14.2906 219(3) 216.2232 193.5428
2724 14.2942 224(3) 219.1971 193.4308
2725 14.2978 229(3) 222.8994 193.3188
2726 14.3014 232(3) 227.4970 193.2068
2727 14.3050 235(3) 233.1754 193.0949
2728 14.3086 239(3) 240.1390 192.9829
2729 14.3122 244(4) 248.5937 192.8709
2730 14.3158 254(3) 258.7409 192.7589
2731 14.3194 264(3) 270.7615 192.6469
2732 14.3230 276(3) 284.7979 192.5349
2733 14.3266 283(3) 300.9351 192.4229
2734 14.3302 290(4) 319.1801 192.3109
2735 14.3338 304(4) 339.4356 192.1989
2736 14.3374 323(3) 361.5018 192.0869
2737 14.3410 335(4) 385.0237 191.9749
2738 14.3446 358(5) 409.4926 191.8629
2739 14.3482 376(4) 434.2232 191.7509
2740 14.3518 400(5) 458.3439 191.6389
2741 14.3554 426(4) 480.8091 191.5269
2742 14.3590 435(4) 500.4510 191.4149
2743 14.3626 452(5) 516.0868 191.3030
2744 14.3662 467(4) 526.6948 191.1910
2745 14.3698 479(4) 531.5607 191.0790
2746 14.3734 487(4) 530.4091 190.9670
2747 14.3770 483(4) 523.4155 190.8550
2748 14.3806 476(4) 511.1334 190.7430
2749 14.3842 468(4) 494.3838 190.6310
2750 14.3878 449(6) 474.1486 190.5190
2751 14.3914 430(5) 451.4820 190.4070
2752 14.3950 411(6) 427.4026 190.2950
2753 14.3986 393(6) 402.8594 190.1830
2754 14.4022 373(6) 378.6592 190.0710
2755 14.4058 347(6) 355.4477 189.9590
2756 14.4094 325(5) 333.7061 189.8470
2757 14.4130 311(4) 313.7617 189.7350
2758 14.4166 297(4) 295.8058 189.6230
2759 14.4202 281(4) 279.9173 189.5111
2760 14.4238 266(4) 266.0690 189.3991
2761 14.4274 259(4) 254.1735 189.2871
2762 14.4310 262(4) 244.0865 189.1751
2763 14.4346 248(4) 235.6299 189.0631
2764 14.4382 243(4) 228.6085 188.9511
2765 14.4418 230(4) 222.8230 188.8391
2766 14.4454 221(4) 218.0811 188.7271
2767 14.4490 220(4) 214.2057 188.6151
2768 14.4526 215(4) 211.0358 188.5031
2769 14.4562 214(4) 208.4345 188.3911
2770 14.4598 214(4) 206.2858 188.2791
2771 14.4634 207(5) 204.4937 188.1671
2772 14.4670 205(4) 202.9814 188.0551
2773 14.4706 207(4) 201.6876 187.9431
2774 14.4742 207(4) 200.5652 187.8312
2775 14.4778 207(4) 199.5773 187.7192
2776 14.4814 207(4) 198.6964 187.6072
2777 14.4850 204(4) 197.9017 187.4952
2778 14.4886 198(4) 197.1775 187.3832
2779 14.4922 196(4) 196.5117 187.2712
2780 14.4958 203(4) 195.8954 187.1592
2781 14.4994 198(4) 195.3215 187.0472
2782 14.5030 196(4) 194.7848 186.9352
2783 14.5066 194(4) 194.2805 186.8232
2784 14.5102 191(4) 193.8051 186.7112
2785 14.5138 198(4) 193.3558 186.5992
2786 14.5174 196(4) 192.9300 186.4872
2787 14.5210 198(4) 192.5453 186.3951
2788 14.5246 193(4) 192.2047 186.3277
2789 14.5282 193(4) 191.8819 186.2603
2790 14.5318 187(4) 191.5753 186.1929
2791 14.5354 188(4) 191.2835 186.1255
2792 14.5390 189(4) 191.0053 186.0582
2793 14.5426 187(4) 190.7398 185.9908
2794 14.5462 189(4) 190.4858 185.9234
2795 14.5498 187(4) 190.2426 185.8560
2796 14.5534 186(4) 190.0093 185.7886
2797 14.5570 190(4) 189.7852 185.7213
2798 14.5606 192(4) 189.5948 185.6539
2799 14.5642 190(4) 189.3874 185.5865
2800 14.5678 188(4) 189.1873 185.5191
2801 14.5714 188(4) 188.9941 185.4518
2802 14.5750 188(4) 188.8073 185.3844
2803 14.5786 186(4) 188.6266 185.3170
2804 14.5822 184(4) 188.4514 185.2496
2805 14.5858 185(4) 188.2814 185.1822
2806 14.5894 185(4) 188.1164 185.1149
2807 14.5930 187(4) 187.9559 185.0475
2808 14.5966 190(4) 187.7998 184.9801
2809 14.6002 189(4) 187.6477 184.9127
2810 14.6038 189(4) 187.4995 184.8453
2811 14.6074 180(3) 187.3548 184.7780
2812 14.6110 184(3) 187.2135 184.7106
2813 14.6146 187(3) 187.0754 184.6432
2814 14.6182 186(3) 186.9403 184.5758
2815 14.6218 188(3) 186.8081 184.5085
2816 14.6254 186(3) 186.6785 184.4411
2817 14.6290 186(3) 186.5515 184.3737
2818 14.6326 184(3) 186.4269 184.3063
2819 14.6362 181(3) 186.3046 184.2389
2820 14.6398 184(3) 186.1844 184.1715
2821 14.6434 186(3) 186.0662 184.1042
2822 14.6470 185(3) 185.9501 184.0368
2823 14.6506 185(3) 185.8357 183.9694
2824 14.6542 187(3) 185.7232 183.9020
2825 14.6578 187(3) 185.6123 183.8347
2826 14.6614 185(3) 185.5029 183.7673
2827 14.6650 189(3) 185.3951 183.6999
2828 14.6686 186(3) 185.2888 183.6325
2829 14.6722 185(3) 185.1838 183.5651
2830 14.6758 189(3) 185.0801 183.4978
2831 14.6794 189(3) 184.9777 183.4304
2832 14.6830 183(3) 184.8765 183.3630
2833 14.6866 181(3) 184.7764 183.2956
2834 14.6902 178(2) 184.6774 183.2282
2835 14.6938 181(4) 184.5795 183.1609
2836 14.6974 183(4) 184.4825 183.0935
2837 14.7010 186(4) 184.3866 183.0261
2838 14.7046 186(4) 184.2915 182.9587
2839 14.7082 183(4) 184.1973 182.8913
2840 14.7118 182(4) 184.1040 182.8240
2841 14.7154 182(4) 184.0115 182.7566
2842 14.7190 184(4) 183.9197 182.6892
2843 14.7226 185(4) 183.8287 182.6218
2844 14.7262 186(4) 183.7384 182.5544
2845 14.7298 186(4) 183.6488 182.4871
2846 14.7334 181(4) 183.5598 182.4197
2847 14.7370 180(4) 183.4715 182.3523
2848 14.7406 187(4) 183.3838 182.2849
2849 14.7442 184(4) 183.2967 182.2175
2850 14.7478 178(4) 183.2101 182.1502
2851 14.7514 175(4) 183.1241 182.0828
2852 14.7550 183(4) 183.0387 182.0154
2853 14.7586 177(4) 182.9537 181.9480
2854 14.7622 182(4) 182.8692 181.8807
2855 14.7658 184(4) 182.7852 181.8133
2856 14.7694 181(4) 182.7016 181.7459
2857 14.7730 181(4) 182.6185 181.6785
2858 14.7766 181(4) 182.5358 181.6111
2859 14.7802 179(4) 182.4535 181.5438
2860 14.7838 181(4) 182.3716 181.4764
2861 14.7874 180(4) 182.2901 181.4090
2862 14.7910 184(4) 182.2090 181.3416
2863 14.7946 182(4) 182.1282 181.2742
2864 14.7982 176(4) 182.0478 181.2069
2865 14.8018 177(4) 181.9676 181.1395
2866 14.8054 179(4) 181.8879 181.0721
2867 14.8090 180(4) 181.8084 181.0047
2868 14.8126 182(4) 181.7292 180.9373
2869 14.8162 181(4) 181.6504 180.8700
2870 14.8198 181(4) 181.5718 180.8026
2871 14.8234 177(4) 181.4935 180.7352
2872 14.8270 182(4) 181.4154 180.6678
2873 14.8306 177(4) 181.3376 180.6004
2874 14.8342 178(4) 181.2601 180.5331
2875 14.8378 176(4) 181.1828 180.4657
2876 14.8414 175(4) 181.1058 180.3983
2877 14.8450 177(4) 181.0290 180.3309
2878 14.8486 181(4) 180.9524 180.2636
2879 14.8522 175(4) 180.8760 180.1962
2880 14.8558 184(4) 180.7998 180.1288
2881 14.8594 179(4) 180.7238 180.0614
2882 14.8630 173(4) 180.6481 179.9940
2883 14.8666 175(4) 180.5725 179.9267
2884 14.8702 180(4) 180.4971 179.8593
2885 14.8738 179(4) 180.4220 179.7919
2886 14.8774 180(3) 180.3470 179.7245
2887 14.8810 179(2) 180.2721 179.6572
2888 14.8846 179(2) 180.1974 179.5898
2889 14.8882 180(2) 180.1229 179.5224
2890 14.8918 179(3) 180.0486 179.4550
2891 14.8954 179(3) 179.9744 179.3876
2892 14.8990 178(3) 179.9003 179.3202
2893 14.9026 178(3) 179.8265 179.2529
2894 14.9062 174(2) 179.7527 179.1855
2895 14.9098 176(2) 179.6792 179.1181
2896 14.9134 178(3) 179.6057 179.0507
2897 14.9170 178(3) 179.5324 178.9834
2898 14.9206 179(3) 179.4592 178.9160
2899 14.9242 176(2) 179.3861 178.8486
2900 14.9278 180(3) 179.2952 178.7812
2901 14.9314 179(3) 179.2226 178.7139
2902 14.9350 174(2) 179.1500 178.6465
2903 14.9386 177(3) 179.0776 178.5791
2904 14.9422 174(2) 179.0052 178.5117
2905 14.9458 177(3) 178.9330 178.4443
2906 14.9494 175(2) 178.8609 178.3769
2907 14.9530 173(2) 178.7889 178.3096
2908 14.9566 176(3) 178.7170 178.2422
2909 14.9602 178(3) 178.6452 178.1748
2910 14.9638 177(3) 178.5735 178.1074
2911 14.9674 176(2) 178.5019 178.0401
2912 14.9710 175(2) 178.4304 177.9727
2913 14.9746 176(3) 178.3590 177.9053
2914 14.9782 177(3) 178.2877 177.8379
2915 14.9818 179(3) 178.2164 177.7705
2916 14.9854 178(3) 178.1453 177.7031
2917 14.9890 173(2) 178.0743 177.6358
2918 14.9926 174(2) 178.0033 177.5684
2919 14.9962 174(2) 177.9325 177.5010
2920 14.9998 176(2) 177.8617 177.4336
2921 15.0034 180(3) 177.7910 177.3663
2922 15.0070 176(3) 177.7203 177.2989
2923 15.0106 172(2) 177.6498 177.2315
2924 15.0142 177(3) 177.5793 177.1641
2925 15.0178 179(3) 177.5089 177.0967
2926 15.0214 173(4) 177.4386 177.0294
2927 15.0250 174(2) 177.3684 176.9620
2928 15.0286 171(2) 177.2982 176.8946
2929 15.0322 173(2) 177.2281 176.8272
2930 15.0358 176(2) 177.1581 176.7598
2931 15.0394 176(2) 177.0882 176.6925
2932 15.0430 173(2) 177.0183 176.6251
2933 15.0466 170(2) 176.9485 176.5577
2934 15.0502 173(2) 176.8788 176.4903
2935 15.0538 174(2) 176.8091 176.4230
2936 15.0574 171(2) 176.7395 176.3556
2937 15.0610 172(3) 176.6699 176.2882
2938 15.0646 176(3) 176.6004 176.2208
2939 15.0682 177(3) 176.5310 176.1534
2940 15.0718 175(2) 176.4617 176.0860
2941 15.0754 175(2) 176.3924 176.0187
2942 15.0790 173(2) 176.3232 175.9513
2943 15.0826 171(2) 176.2541 175.8839
2944 15.0862 172(2) 176.1850 175.8165
2945 15.0898 176(3) 176.1160 175.7492
2946 15.0934 174(2) 176.0470 175.6818
2947 15.0970 173(2) 175.9781 175.6144
2948 15.1006 171(2) 175.9093 175.5470
2949 15.1042 170(2) 175.8405 175.4796
2950 15.1078 173(2) 175.7718 175.4123
2951 15.1114 175(2) 175.7031 175.3449
2952 15.1150 175(2) 175.6345 175.2775
2953 15.1186 174(2) 175.5660 175.2101
2954 15.1222 177(3) 175.4975 175.1427
2955 15.1258 174(3) 175.4291 175.0754
2956 15.1294 173(2) 175.3608 175.0080
2957 15.1330 173(3) 175.2925 174.9406
2958 15.1366 172(2) 175.2243 174.8732
2959 15.1402 172(2) 175.1561 174.8058
2960 15.1438 174(2) 175.0880 174.7385
2961 15.1474 172(2) 175.0200 174.6711
2962 15.1510 172(3) 174.9520 174.6037
2963 15.1546 173(2) 174.8841 174.5363
2964 15.1582 171(2) 174.8163 174.4690
2965 15.1618 173(2) 174.7485 174.4016
2966 15.1654 171(2) 174.6808 174.3342
2967 15.1690 173(2) 174.6131 174.2668
2968 15.1726 177(3) 174.5455 174.1994
2969 15.1762 175(2) 174.4780 174.1321
2970 15.1798 173(2) 174.4105 174.0647
2971 15.1834 172(2) 174.3431 173.9973
2972 15.1870 173(2) 174.2758 173.9299
2973 15.1906 171(2) 174.2086 173.8625
2974 15.1942 173(2) 174.1414 173.7952
2975 15.1978 168(3) 174.0743 173.7278
2976 15.2014 168(2) 174.0072 173.6604
2977 15.2050 172(2) 173.9403 173.5930
2978 15.2086 173(2) 173.8734 173.5257
2979 15.2122 173(2) 173.8065 173.4583
2980 15.2158 171(2) 173.7398 173.3909
2981 15.2194 171(2) 173.6731 173.3235
2982 15.2230 172(2) 173.6066 173.2561
2983 15.2266 173(2) 173.5400 173.1888
2984 15.2302 172(2) 173.4736 173.1214
2985 15.2338 170(2) 173.4073 173.0540
2986 15.2374 170(2) 173.3410 172.9866
2987 15.2410 171(2) 173.2749 172.9192
2988 15.2446 169(2) 173.2088 172.8519
2989 15.2482 169(2) 173.1428 172.7845
2990 15.2518 170(2) 173.0769 172.7171
2991 15.2554 173(2) 173.0111 172.6497
2992 15.2590 170(2) 172.9454 172.5823
2993 15.2626 172(2) 172.8799 172.5150
2994 15.2662 177(3) 172.8144 172.4476
2995 15.2698 170(2) 172.7490 172.3802
2996 15.2734 171(2) 172.6837 172.3128
2997 15.2770 170(3) 172.6186 172.2455
2998 15.2806 171(2) 172.5535 172.1781
2999 15.2842 173(2) 172.4886 172.1107
3000 15.2878 170(2) 172.4238 172.0433
3001 15.2914 169(2) 172.3591 171.9759
3002 15.2950 167(2) 172.2946 171.9085
3003 15.2986 170(3) 172.2302 171.8412
3004 15.3022 172(3) 172.1660 171.7738
3005 15.3058 169(2) 172.1018 171.7064
3006 15.3094 167(2) 172.0379 171.6390
3007 15.3130 169(2) 171.9740 171.5717
3008 15.3166 170(2) 171.9104 171.5043
3009 15.3202 170(2) 171.8469 171.4369
3010 15.3238 170(2) 171.7836 171.3695
3011 15.3274 172(2) 171.7205 171.3021
3012 15.3310 174(2) 171.6575 171.2348
3013 15.3346 174(2) 171.5948 171.1674
3014 15.3382 170(2) 171.5322 171.1000
3015 15.3418 172(2) 171.4699 171.0326
3016 15.3454 170(2) 171.4077 170.9652
3017 15.3490 171(2) 171.3458 170.8979
3018 15.3526 173(2) 171.2841 170.8305
3019 15.3562 171(2) 171.2227 170.7631
3020 15.3598 172(2) 171.1616 170.6957
3021 15.3634 164(2) 171.1007 170.6284
3022 15.3670 170(2) 171.0401 170.5610
3023 15.3706 172(2) 170.9797 170.4936
3024 15.3742 172(2) 170.9197 170.4262
3025 15.3778 171(2) 170.8600 170.3588
3026 15.3814 169(2) 170.8006 170.2914
3027 15.3850 171(2) 170.7416 170.2241
3028 15.3886 169(2) 170.6830 170.1567
3029 15.3922 171(2) 170.6247 170.0893
3030 15.3958 172(2) 170.5668 170.0219
3031 15.3994 171(2) 170.5094 169.9546
3032 15.4030 171(3) 170.4524 169.8872
3033 15.4066 171(3) 170.2999 169.8198
3034 15.4102 171(2) 170.2445 169.7524
3035 15.4138 170(2) 170.1897 169.6850
3036 15.4174 169(2) 170.1354 169.6177
3037 15.4210 168(2) 170.0816 169.5503
3038 15.4246 167(2) 169.9931 169.4829
3039 15.4282 166(2) 169.9409 169.4155
3040 15.4318 169(2) 169.8893 169.3481
3041 15.4354 170(2) 169.8385 169.2808
3042 15.4390 169(2) 169.7884 169.2134
3043 15.4426 169(2) 169.7392 169.1460
3044 15.4462 170(2) 169.6908 169.0786
3045 15.4498 170(2) 169.6433 169.0113
3046 15.4534 169(3) 169.5968 168.9439
3047 15.4570 168(2) 169.5513 168.8765
3048 15.4606 168(2) 169.5070 168.8091
3049 15.4642 167(2) 169.4638 168.7417
3050 15.4678 170(2) 169.4219 168.6743
3051 15.4714 167(2) 169.3814 168.6070
3052 15.4750 163(2) 169.3423 168.5396
3053 15.4786 168(3) 169.3048 168.4722
3054 15.4822 169(2) 169.2690 168.4048
3055 15.4858 166(2) 169.2350 168.3375
3056 15.4894 167(2) 169.2029 168.2701
3057 15.4930 170(2) 169.1729 168.2027
3058 15.4966 168(2) 169.1452 168.1353
3059 15.5002 166(2) 169.1199 168.0679
3060 15.5038 166(2) 169.0973 168.0006
3061 15.5074 167(2) 169.0775 167.9332
3062 15.5110 167(2) 169.0609 167.8658
3063 15.5146 169(2) 169.0477 167.7984
3064 15.5182 168(2) 169.0382 167.7310
3065 15.5218 169(2) 169.0327 167.6637
3066 15.5254 168(2) 169.0318 167.5963
3067 15.5290 167(2) 169.0357 167.5289
3068 15.5326 167(2) 169.0452 167.4615
3069 15.5362 169(2) 169.0608 167.3942
3070 15.5398 168(2) 169.0834 167.3268
3071 15.5434 170(2) 169.1140 167.2594
3072 15.5470 170(2) 169.1537 167.1920
3073 15.5506 167(2) 169.2043 167.1246
3074 15.5542 172(2) 169.2680 167.0573
3075 15.5578 169(2) 169.3474 166.9899
3076 15.5614 169(2) 169.4464 166.9225
3077 15.5650 172(2) 169.5698 166.8551
3078 15.5686 168(3) 169.7240 166.7878
3079 15.5722 167(2) 169.9172 166.7204
3080 15.5758 169(2) 170.1602 166.6530
3081 15.5794 171(2) 170.4662 166.5856
3082 15.5830 172(3) 170.8517 166.5182
3083 15.5866 171(2) 171.3367 166.4509
3084 15.5902 174(2) 171.9453 166.3835
3085 15.5938 174(2) 172.7048 166.3161
3086 15.5974 178(3) 173.6461 166.2487
3087 15.6010 176(3) 174.8029 166.1813
3088 15.6046 175(3) 176.2102 166.1140
3089 15.6082 176(3) 177.9032 166.0466
3090 15.6118 181(3) 179.9148 165.9792
3091 15.6154 184(3) 182.2725 165.9118
3092 15.6190 186(3) 184.9980 165.8444
3093 15.6226 186(3) 188.1006 165.7771
3094 15.6262 191(3) 191.5763 165.7097
3095 15.6298 191(3) 195.4044 165.6423
3096 15.6334 194(3) 199.5443 165.5749
3097 15.6370 198(3) 203.9330 165.5075
3098 15.6406 203(3) 208.4824 165.4402
3099 15.6442 206(3) 213.0756 165.3728
3100 15.6478 211(3) 217.5695 165.3054
3101 15.6514 216(3) 221.7878 165.2380
3102 15.6550 219(3) 225.5294 165.1706
3103 15.6586 222(3) 228.5800 165.1033
3104 15.6622 226(3) 230.7338 165.0359
3105 15.6658 228(3) 231.8253 164.9685
3106 15.6694 229(3) 231.7608 164.9011
3107 15.6730 227(3) 230.5408 164.8338
3108 15.6766 220(3) 228.2574 164.7664
3109 15.6802 218(3) 225.0763 164.6990
3110 15.6838 221(3) 221.2030 164.6316
3111 15.6874 214(3) 216.8520 164.5642
3112 15.6910 207(3) 212.2242 164.4969
3113 15.6946 200(3) 207.4952 164.4295
3114 15.6982 196(3) 202.8105 164.3621
3115 15.7018 190(3) 198.2871 164.2947
3116 15.7054 190(3) 194.0109 164.2273
3117 15.7090 184(3) 190.0463 164.1600
3118 15.7126 180(3) 186.4339 164.0926
3119 15.7162 178(3) 183.1945 164.0252
3120 15.7198 178(3) 180.3323 163.9578
3121 15.7234 180(3) 177.8374 163.8904
3122 15.7270 178(3) 175.6894 163.8231
3123 15.7306 176(3) 173.8605 163.7557
3124 15.7342 172(2) 172.3170 163.6883
3125 15.7378 173(2) 171.0242 163.6209
3126 15.7414 171(2) 169.9471 163.5535
3127 15.7450 169(2) 169.0519 163.4862
3128 15.7486 169(2) 168.3079 163.4188
3129 15.7522 169(2) 167.6874 163.3514
3130 15.7558 170(2) 167.1668 163.2840
3131 15.7594 170(2) 166.7256 163.2167
3132 15.7630 165(2) 166.3477 163.1493
3133 15.7666 166(2) 166.0194 163.0819
3134 15.7702 167(2) 165.7303 163.0145
3135 15.7738 170(2) 165.4720 162.9471
3136 15.7774 170(3) 165.2381 162.8797
3137 15.7810 163(2) 165.0238 162.8124
3138 15.7846 166(2) 164.8254 162.7450
3139 15.7882 167(2) 164.6399 162.6776
3140 15.7918 164(2) 164.4653 162.6102
3141 15.7954 165(2) 164.3000 162.5429
3142 15.7990 162(2) 164.1426 162.4755
3143 15.8026 168(2) 163.9922 162.4081
3144 15.8062 164(2) 163.8479 162.3407
3145 15.8098 163(2) 163.7092 162.2733
3146 15.8134 161(2) 163.5754 162.2060
3147 15.8170 164(2) 163.4460 162.1386
3148 15.8206 162(2) 163.3208 162.0712
3149 15.8242 162(2) 163.1992 162.0038
3150 15.8278 164(2) 163.0811 161.9364
3151 15.8314 163(2) 162.9660 161.8691
3152 15.8350 164(2) 162.8539 161.8017
3153 15.8386 163(2) 162.7444 161.7343
3154 15.8422 162(2) 162.6374 161.6669
3155 15.8458 164(2) 162.5326 161.5996
3156 15.8494 163(3) 162.4299 161.5322
3157 15.8530 165(2) 162.3291 161.4648
3158 15.8566 169(2) 162.2302 161.3974
3159 15.8602 164(2) 162.1329 161.3300
3160 15.8638 161(2) 162.0372 161.2626
3161 15.8674 163(2) 161.9430 161.1953
3162 15.8710 164(2) 161.8501 161.1279
3163 15.8746 159(2) 161.7585 161.0605
3164 15.8782 160(2) 161.6681 160.9931
3165 15.8818 161(2) 161.5788 160.9258
3166 15.8854 160(2) 161.4905 160.8584
3167 15.8890 163(2) 161.4032 160.7910
3168 15.8926 165(2) 161.3169 160.7236
3169 15.8962 163(2) 161.2314 160.6562
3170 15.8998 162(3) 161.1467 160.5889
3171 15.9034 157(3) 161.0628 160.5215
3172 15.9070 158(2) 160.9796 160.4541
3173 15.9106 161(2) 160.8970 160.3867
3174 15.9142 158(3) 160.8151 160.3194
3175 15.9178 156(3) 160.7339 160.2520
3176 15.9214 159(2) 160.6532 160.1846
3177 15.9250 159(2) 160.5730 160.1172
3178 15.9286 158(2) 160.4933 160.0498
3179 15.9322 160(2) 160.4142 159.9825
3180 15.9358 163(2) 160.3355 159.9151
3181 15.9394 162(2) 160.2572 159.8477
3182 15.9430 161(2) 160.1794 159.7803
3183 15.9466 161(2) 160.1019 159.7129
3184 15.9502 160(2) 160.0248 159.6456
3185 15.9538 161(2) 159.9481 159.5782
3186 15.9574 159(2) 159.8717 159.5108
3187 15.9610 160(3) 159.7957 159.4434
3188 15.9646 164(2) 159.7199 159.3760
3189 15.9682 160(2) 159.6445 159.3087
3190 15.9718 161(3) 159.5693 159.2413
3191 15.9754 159(2) 159.4944 159.1739
3192 15.9790 162(2) 159.4197 159.1065
3193 15.9826 161(2) 159.3453 159.0391
3194 15.9862 160(2) 159.2711 158.9718
3195 15.9898 164(2) 159.1972 158.9044
3196 15.9934 162(2) 159.1234 158.8370
3197 15.9970 160(2) 159.0499 158.7696
3198 16.0006 160(3) 158.9765 158.7023
3199 16.0042 160(3) 158.9034 158.6349
3200 16.0078 159(2) 158.8304 158.5675
3201 16.0114 157(2) 158.7576 158.5001
3202 16.0150 160(2) 158.6850 158.4327
3203 16.0186 158(2) 158.6125 158.3653
3204 16.0222 158(2) 158.5402 158.2980
3205 16.0258 163(2) 158.4680 158.2306
3206 16.0294 161(2) 158.3960 158.1632
3207 16.0330 158(2) 158.3241 158.0959
3208 16.0366 156(2) 158.2523 158.0285
3209 16.0402 160(2) 158.1806 157.9611
3210 16.0438 162(2) 158.1091 157.8937
3211 16.0474 162(2) 158.0377 157.8263
3212 16.0510 160(2) 157.9664 157.7589
3213 16.0546 158(3) 157.8952 157.6916
3214 16.0582 158(2) 157.8241 157.6242
3215 16.0618 157(3) 157.7531 157.5568
3216 16.0654 157(3) 157.6823 157.4894
3217 16.0690 157(3) 157.6114 157.4220
3218 16.0726 158(2) 157.5407 157.3547
3219 16.0762 158(2) 157.4701 157.2873
3220 16.0798 157(2) 157.3996 157.2199
3221 16.0834 160(2) 157.3291 157.1526
3222 16.0870 162(2) 157.2587 157.0851
3223 16.0906 159(2) 157.1885 157.0178
3224 16.0942 158(2) 157.1182 156.9504
3225 16.0978 158(2) 157.0481 156.8830
3226 16.1014 157(2) 156.9780 156.8156
3227 16.1050 158(2) 156.9079 156.7483
3228 16.1086 157(2) 156.8380 156.6809
3229 16.1122 156(2) 156.7681 156.6135
3230 16.1158 156(2) 156.6983 156.5461
3231 16.1194 156(2) 156.6285 156.4787
3232 16.1230 157(2) 156.5588 156.4114
3233 16.1266 163(2) 156.4891 156.3440
3234 16.1302 158(2) 156.4195 156.2766
3235 16.1338 156(2) 156.3499 156.2092
3236 16.1374 158(2) 156.2804 156.1418
3237 16.1410 157(2) 156.2109 156.0745
3238 16.1446 163(2) 156.1415 156.0071
3239 16.1482 159(2) 156.0721 155.9397
3240 16.1518 156(2) 156.0028 155.8723
3241 16.1554 159(2) 155.9335 155.8050
3242 16.1590 156(2) 155.8642 155.7376
3243 16.1626 157(2) 155.7951 155.6702
3244 16.1662 158(2) 155.7259 155.6028
3245 16.1698 157(2) 155.6568 155.5354
3246 16.1734 158(2) 155.5877 155.4681
3247 16.1770 158(2) 155.5186 155.4007
3248 16.1806 155(2) 155.4496 155.3333
3249 16.1842 154(2) 155.3806 155.2659
3250 16.1878 154(2) 155.3116 155.1985
3251 16.1914 154(2) 155.2427 155.1311
3252 16.1950 154(2) 155.1738 155.0638
3253 16.1986 153(2) 155.1050 154.9964
3254 16.2022 157(2) 155.0361 154.9290
3255 16.2058 155(2) 154.9674 154.8617
3256 16.2094 154(2) 154.8986 154.7943
3257 16.2130 156(2) 154.8298 154.7269
3258 16.2166 152(2) 154.7611 154.6595
3259 16.2202 154(2) 154.6924 154.5921
3260 16.2238 154(2) 154.6237 154.5247
3261 16.2274 153(2) 154.5551 154.4574
3262 16.2310 155(2) 154.4865 154.3900
3263 16.2346 156(2) 154.4179 154.3226
3264 16.2382 154(2) 154.3493 154.2552
3265 16.2418 156(2) 154.2807 154.1878
3266 16.2454 156(2) 154.2122 154.1205
3267 16.2490 155(2) 154.1437 154.0531
3268 16.2526 155(2) 154.0752 153.9857
3269 16.2562 154(2) 154.0068 153.9184
3270 16.2598 155(2) 153.9383 153.8510
3271 16.2634 154(2) 153.8699 153.7836
3272 16.2670 153(2) 153.8015 153.7162
3273 16.2706 155(2) 153.7331 153.6488
3274 16.2742 156(2) 153.6647 153.5814
3275 16.2778 156(2) 153.5964 153.5141
3276 16.2814 153(2) 153.5280 153.4467
3277 16.2850 151(2) 153.4597 153.3793
3278 16.2886 155(2) 153.3914 153.3119
3279 16.2922 153(2) 153.3231 153.2445
3280 16.2958 153(2) 153.2549 153.1772
3281 16.2994 151(2) 153.1866 153.1098
3282 16.3030 153(2) 153.1183 153.0424
3283 16.3066 151(2) 153.0501 152.9750
3284 16.3102 153(2) 152.9819 152.9077
3285 16.3138 151(2) 152.9137 152.8403
3286 16.3174 152(2) 152.8455 152.7729
3287 16.3210 157(2) 152.7773 152.7055
3288 16.3246 157(2) 152.7092 152.6381
3289 16.3282 151(2) 152.6410 152.5708
3290 16.3318 149(3) 152.5728 152.5034
3291 16.3354 153(3) 152.5048 152.4360
3292 16.3390 155(3) 152.4366 152.3686
3293 16.3426 154(2) 152.3685 152.3012
3294 16.3462 154(2) 152.3005 152.2339
3295 16.3498 156(2) 152.2324 152.1665
3296 16.3534 156(2) 152.1643 152.0991
3297 16.3570 151(2) 152.0962 152.0317
3298 16.3606 149(2) 152.0282 151.9644
3299 16.3642 153(2) 151.9601 151.8969
3300 16.3678 151(2) 151.8921 151.8296
3301 16.3714 152(2) 151.8241 151.7622
3302 16.3750 154(2) 151.7561 151.6948
3303 16.3786 154(3) 151.6881 151.6275
3304 16.3822 152(2) 151.6201 151.5601
3305 16.3858 150(2) 151.5522 151.4927
3306 16.3894 152(3) 151.4842 151.4253
3307 16.3930 152(2) 151.4162 151.3579
3308 16.3966 148(2) 151.3483 151.2906
3309 16.4002 150(2) 151.2803 151.2232
3310 16.4038 153(2) 151.2124 151.1558
3311 16.4074 153(2) 151.1445 151.0884
3312 16.4110 153(2) 151.0766 151.0210
3313 16.4146 154(2) 151.0123 150.9573
3314 16.4182 153(2) 150.9705 150.9160
3315 16.4218 153(2) 150.9534 150.8747
3316 16.4254 151(2) 150.9118 150.8335
3317 16.4290 149(2) 150.8702 150.7922
3318 16.4326 149(2) 150.8286 150.7510
3319 16.4362 148(2) 150.7870 150.7097
3320 16.4398 152(2) 150.7454 150.6684
3321 16.4434 152(2) 150.7038 150.6272
3322 16.4470 152(3) 150.6622 150.5859
3323 16.4506 150(3) 150.6207 150.5447
3324 16.4542 147(2) 150.5791 150.5034
3325 16.4578 152(2) 150.5376 150.4621
3326 16.4614 151(2) 150.4960 150.4209
3327 16.4650 149(2) 150.4545 150.3796
3328 16.4686 151(2) 150.4129 150.3384
3329 16.4722 152(2) 150.3714 150.2971
3330 16.4758 154(2) 150.3299 150.2558
3331 16.4794 151(2) 150.2884 150.2146
3332 16.4830 149(2) 150.2469 150.1733
3333 16.4866 151(2) 150.2054 150.1321
3334 16.4902 149(2) 150.1639 150.0908
3335 16.4938 151(2) 150.1225 150.0495
3336 16.4974 152(2) 150.0810 150.0083
3337 16.5010 150(2) 150.0395 149.9670
3338 16.5046 151(2) 149.9980 149.9257
3339 16.5082 153(2) 149.9566 149.8845
3340 16.5118 151(3) 149.9152 149.8432
3341 16.5154 149(2) 149.8737 149.8020
3342 16.5190 150(2) 149.8323 149.7607
3343 16.5226 148(2) 149.7908 149.7194
3344 16.5262 147(2) 149.7494 149.6782
3345 16.5298 147(2) 149.7080 149.6369
3346 16.5334 147(2) 149.6666 149.5957
3347 16.5370 149(2) 149.6252 149.5544
3348 16.5406 151(2) 149.5838 149.5131
3349 16.5442 146(2) 149.5424 149.4719
3350 16.5478 150(2) 149.5010 149.4306
3351 16.5514 152(3) 149.4597 149.3894
3352 16.5550 152(2) 149.4183 149.3481
3353 16.5586 152(2) 149.3769 149.3068
3354 16.5622 150(2) 149.3356 149.2656
3355 16.5658 152(2) 149.2942 149.2243
3356 16.5694 149(2) 149.2529 149.1831
3357 16.5730 151(2) 149.2115 149.1418
3358 16.5766 149(2) 149.1702 149.1005
3359 16.5802 148(2) 149.1288 149.0592
3360 16.5838 148(2) 149.0875 149.0180
3361 16.5874 149(2) 149.0462 148.9767
3362 16.5910 149(2) 149.0049 148.9355
3363 16.5946 149(2) 148.9636 148.8942
3364 16.5982 152(2) 148.9223 148.8530
3365 16.6018 152(2) 148.8810 148.8117
3366 16.6054 150(2) 148.8397 148.7704
3367 16.6090 149(2) 148.7984 148.7292
3368 16.6126 147(2) 148.7571 148.6879
3369 16.6162 149(2) 148.7159 148.6467
3370 16.6198 147(3) 148.6746 148.6054
3371 16.6234 146(2) 148.6333 148.5641
3372 16.6270 150(2) 148.5921 148.5229
3373 16.6306 149(2) 148.5508 148.4816
3374 16.6342 150(2) 148.5096 148.4404
3375 16.6378 150(2) 148.4683 148.3991
3376 16.6414 148(2) 148.4271 148.3578
3377 16.6450 146(2) 148.3858 148.3165
3378 16.6486 148(2) 148.3447 148.2753
3379 16.6522 147(2) 148.3034 148.2340
3380 16.6558 145(2) 148.2622 148.1928
3381 16.6594 146(2) 148.2210 148.1515
3382 16.6630 148(2) 148.1798 148.1102
3383 16.6666 146(2) 148.1386 148.0690
3384 16.6702 146(3) 148.0974 148.0277
3385 16.6738 147(3) 148.0562 147.9865
3386 16.6774 147(2) 148.0150 147.9452
3387 16.6810 146(2) 147.9739 147.9039
3388 16.6846 146(2) 147.9327 147.8627
3389 16.6882 147(2) 147.8916 147.8214
3390 16.6918 147(2) 147.8504 147.7802
3391 16.6954 145(2) 147.8092 147.7389
3392 16.6990 146(2) 147.7681 147.6976
3393 16.7026 145(2) 147.7269 147.6564
3394 16.7062 146(2) 147.6858 147.6151
3395 16.7098 149(2) 147.6447 147.5739
3396 16.7134 150(3) 147.6036 147.5326
3397 16.7170 145(2) 147.5625 147.4913
3398 16.7206 150(2) 147.5213 147.4501
3399 16.7242 146(2) 147.4802 147.4088
3400 16.7278 144(2) 147.4391 147.3675
3401 16.7314 148(2) 147.3981 147.3263
3402 16.7350 149(2) 147.3570 147.2850
3403 16.7386 150(2) 147.3159 147.2438
3404 16.7422 147(2) 147.2748 147.2025
3405 16.7458 149(2) 147.2337 147.1612
3406 16.7494 150(2) 147.1927 147.1200
3407 16.7530 148(2) 147.1516 147.0787
3408 16.7566 148(2) 147.1106 147.0375
3409 16.7602 149(2) 147.0695 146.9962
3410 16.7638 148(2) 147.0285 146.9549
3411 16.7674 147(2) 146.9875 146.9137
3412 16.7710 146(2) 146.9465 146.8724
3413 16.7746 147(2) 146.9055 146.8312
3414 16.7782 148(2) 146.8395 146.7899
3415 16.7818 145(2) 146.7987 146.7486
3416 16.7854 146(2) 146.7579 146.7074
3417 16.7890 148(2) 146.7170 146.6661
3418 16.7926 148(3) 146.6762 146.6248
3419 16.7962 147(2) 146.6354 146.5836
3420 16.7998 148(2) 146.5946 146.5423
3421 16.8034 145(3) 146.5538 146.5011
3422 16.8070 145(2) 146.5130 146.4598
3423 16.8106 145(2) 146.4722 146.4185
3424 16.8142 141(2) 146.4314 146.3773
3425 16.8178 146(2) 146.3906 146.3360
3426 16.8214 144(2) 146.3498 146.2948
3427 16.8250 146(2) 146.3091 146.2535
3428 16.8286 146(2) 146.2683 146.2122
3429 16.8322 145(2) 146.2275 146.1710
3430 16.8358 144(2) 146.1868 146.1297
3431 16.8394 144(2) 146.1460 146.0885
3432 16.8430 146(2) 146.1053 146.0472
3433 16.8466 148(2) 146.0646 146.0059
3434 16.8502 146(2) 146.0238 145.9647
3435 16.8538 143(2) 145.9831 145.9234
3436 16.8574 145(2) 145.9425 145.8822
3437 16.8610 146(2) 145.9017 145.8409
3438 16.8646 146(2) 145.8611 145.7996
3439 16.8682 145(2) 145.8204 145.7584
3440 16.8718 145(2) 145.7797 145.7171
3441 16.8754 147(2) 145.7390 145.6758
3442 16.8790 143(2) 145.6984 145.6346
3443 16.8826 151(2) 145.6577 145.5933
3444 16.8862 145(3) 145.6171 145.5520
3445 16.8898 145(2) 145.5765 145.5108
3446 16.8934 146(2) 145.5358 145.4695
3447 16.8970 145(2) 145.4952 145.4283
3448 16.9006 146(2) 145.4546 145.3870
3449 16.9042 147(2) 145.4140 145.3457
3450 16.9078 150(2) 145.3734 145.3045
3451 16.9114 144(2) 145.3329 145.2632
3452 16.9150 142(2) 145.2923 145.2220
3453 16.9186 143(2) 145.2518 145.1807
3454 16.9222 146(2) 145.2112 145.1395
3455 16.9258 142(2) 145.1707 145.0982
3456 16.9294 143(3) 145.1302 145.0569
3457 16.9330 148(2) 145.0897 145.0157
3458 16.9366 147(2) 145.0492 144.9744
3459 16.9402 143(2) 145.0087 144.9332
3460 16.9438 141(2) 144.9682 144.8919
3461 16.9474 141(2) 144.9278 144.8506
3462 16.9510 142(2) 144.8873 144.8093
3463 16.9546 146(2) 144.8469 144.7681
3464 16.9582 147(2) 144.8065 144.7268
3465 16.9618 144(2) 144.7661 144.6856
3466 16.9654 143(2) 144.7257 144.6443
3467 16.9690 144(2) 144.6853 144.6030
3468 16.9726 145(2) 144.6449 144.5618
3469 16.9762 144(2) 144.6046 144.5205
3470 16.9798 140(2) 144.5642 144.4793
3471 16.9834 145(2) 144.5239 144.4380
3472 16.9870 142(2) 144.4836 144.3967
3473 16.9906 144(2) 144.4433 144.3555
3474 16.9942 147(2) 144.4031 144.3142
3475 16.9978 146(2) 144.3628 144.2730
3476 17.0014 142(2) 144.3226 144.2317
3477 17.0050 142(2) 144.2824 144.1904
3478 17.0086 142(2) 144.2422 144.1492
3479 17.0122 143(2) 144.2020 144.1079
3480 17.0158 142(2) 144.1618 144.0667
3481 17.0194 142(2) 144.1217 144.0254
3482 17.0230 144(2) 144.0815 143.9841
3483 17.0266 143(2) 144.0414 143.9429
3484 17.0302 144(2) 144.0014 143.9016
3485 17.0338 144(2) 143.9613 143.8603
3486 17.0374 141(2) 143.9213 143.8191
3487 17.0410 143(2) 143.8812 143.7778
3488 17.0446 143(3) 143.8412 143.7366
3489 17.0482 140(2) 143.8013 143.6953
3490 17.0518 141(2) 143.7613 143.6540
3491 17.0554 142(2) 143.7214 143.6128
3492 17.0590 143(2) 143.6815 143.5715
3493 17.0626 142(2) 143.6416 143.5303
3494 17.0662 143(2) 143.6018 143.4890
3495 17.0698 145(2) 143.5620 143.4477
3496 17.0734 147(2) 143.5222 143.4065
3497 17.0770 145(2) 143.4824 143.3652
3498 17.0806 145(2) 143.4427 143.3240
3499 17.0842 142(2) 143.4030 143.2827
3500 17.0878 142(2) 143.3633 143.2414
3501 17.0914 143(2) 143.3237 143.2002
3502 17.0950 144(2) 143.2841 143.1589
3503 17.0986 143(2) 143.2445 143.1176
3504 17.1022 145(2) 143.2050 143.0764
3505 17.1058 145(2) 143.1654 143.0351
3506 17.1094 142(2) 143.1260 142.9939
3507 17.1130 142(2) 143.0865 142.9526
3508 17.1166 145(2) 143.0471 142.9113
3509 17.1202 143(2) 143.0078 142.8701
3510 17.1238 140(2) 142.9685 142.8288
3511 17.1274 142(2) 142.9292 142.7876
3512 17.1310 139(2) 142.8900 142.7463
3513 17.1346 144(2) 142.8508 142.7050
3514 17.1382 144(2) 142.8117 142.6638
3515 17.1418 142(2) 142.7726 142.6225
3516 17.1454 143(2) 142.7335 142.5813
3517 17.1490 141(2) 142.6945 142.5400
3518 17.1526 140(2) 142.6556 142.4987
3519 17.1562 140(2) 142.6167 142.4575
3520 17.1598 138(2) 142.5779 142.4162
3521 17.1634 143(2) 142.5391 142.3749
3522 17.1670 142(2) 142.5003 142.3337
3523 17.1706 142(2) 142.4617 142.2924
3524 17.1742 143(2) 142.4231 142.2512
3525 17.1778 143(2) 142.3845 142.2099
3526 17.1814 141(2) 142.3460 142.1686
3527 17.1850 140(2) 142.3076 142.1274
3528 17.1886 142(2) 142.2693 142.0861
3529 17.1922 142(2) 142.2310 142.0448
3530 17.1958 140(2) 142.1928 142.0036
3531 17.1994 140(2) 142.1547 141.9623
3532 17.2030 140(3) 142.1167 141.9211
3533 17.2066 140(2) 142.0787 141.8798
3534 17.2102 143(3) 142.0408 141.8385
3535 17.2138 139(2) 142.0030 141.7973
3536 17.2174 140(2) 141.9653 141.7560
3537 17.2210 139(2) 141.9277 141.7148
3538 17.2246 139(2) 141.8902 141.6735
3539 17.2282 144(2) 141.8528 141.6322
3540 17.2318 143(2) 141.8155 141.5910
3541 17.2354 139(2) 141.7783 141.5497
3542 17.2390 141(2) 141.7412 141.5085
3543 17.2426 142(2) 141.7042 141.4672
3544 17.2462 140(2) 141.6673 141.4259
3545 17.2498 138(2) 141.6306 141.3847
3546 17.2534 139(2) 141.5940 141.3434
3547 17.2570 139(2) 141.5575 141.3022
3548 17.2606 138(2) 141.5212 141.2609
3549 17.2642 140(2) 141.4850 141.2196
3550 17.2678 140(2) 141.4490 141.1784
3551 17.2714 139(2) 141.4131 141.1371
3552 17.2750 140(2) 141.3773 141.0958
3553 17.2786 138(2) 141.3418 141.0546
3554 17.2822 138(2) 141.3064 141.0133
3555 17.2858 142(2) 141.2712 140.9721
3556 17.2894 143(2) 141.2362 140.9308
3557 17.2930 138(2) 141.2014 140.8895
3558 17.2966 141(2) 141.1668 140.8483
3559 17.3002 140(2) 141.1324 140.8070
3560 17.3038 141(2) 141.0982 140.7657
3561 17.3074 140(2) 141.0642 140.7245
3562 17.3110 140(3) 141.0306 140.6832
3563 17.3146 144(2) 140.9971 140.6420
3564 17.3182 138(2) 140.9639 140.6007
3565 17.3218 141(2) 140.9310 140.5594
3566 17.3254 137(2) 140.8984 140.5182
3567 17.3290 141(3) 140.8661 140.4769
3568 17.3326 139(2) 140.8341 140.4357
3569 17.3362 141(2) 140.8025 140.3944
3570 17.3398 140(2) 140.7711 140.3531
3571 17.3434 138(2) 140.7402 140.3119
3572 17.3470 139(2) 140.7097 140.2706
3573 17.3506 140(2) 140.6795 140.2294
3574 17.3542 141(2) 140.6498 140.1881
3575 17.3578 141(2) 140.6205 140.1468
3576 17.3614 140(2) 140.5917 140.1056
3577 17.3650 141(3) 140.5634 140.0643
3578 17.3686 140(2) 140.5356 140.0231
3579 17.3722 138(2) 140.5083 139.9818
3580 17.3758 140(2) 140.4817 139.9405
3581 17.3794 139(2) 140.4556 139.8993
3582 17.3830 140(2) 140.4302 139.8580
3583 17.3866 138(2) 140.4055 139.8167
3584 17.3902 140(2) 140.3815 139.7755
3585 17.3938 139(2) 140.3582 139.7342
3586 17.3974 139(2) 140.3358 139.6930
3587 17.4010 137(2) 140.3142 139.6517
3588 17.4046 138(2) 140.2935 139.6104
3589 17.4082 137(2) 140.2738 139.5692
3590 17.4118 139(2) 140.2551 139.5279
3591 17.4154 139(2) 140.2375 139.4867
3592 17.4190 140(2) 140.2211 139.4454
3593 17.4226 140(2) 140.2059 139.4041
3594 17.4262 136(2) 140.1920 139.3629
3595 17.4298 136(2) 140.1796 139.3216
3596 17.4334 138(2) 140.1686 139.2803
3597 17.4370 140(2) 140.1593 139.2391
3598 17.4406 142(2) 140.1517 139.1978
3599 17.4442 140(2) 140.1459 139.1566
3600 17.4478 138(2) 140.1422 139.1153
3601 17.4514 139(2) 140.1405 139.0741
3602 17.4550 138(2) 140.1479 139.0328
3603 17.4586 138(2) 140.1512 138.9915
3604 17.4622 138(2) 140.1571 138.9503
3605 17.4658 140(2) 140.1659 138.9090
3606 17.4694 136(2) 140.1778 138.8677
3607 17.4730 140(3) 140.1932 138.8265
3608 17.4766 142(2) 140.2124 138.7852
3609 17.4802 137(2) 140.2356 138.7440
3610 17.4838 138(2) 140.2634 138.7027
3611 17.4874 140(2) 140.2962 138.6614
3612 17.4910 138(2) 140.3345 138.6202
3613 17.4946 138(2) 140.3793 138.5789
3614 17.4982 138(2) 140.4312 138.5376
3615 17.5018 139(2) 140.4914 138.4964
3616 17.5054 140(2) 140.5614 138.4551
3617 17.5090 138(2) 140.6429 138.4139
3618 17.5126 138(2) 140.7384 138.3726
3619 17.5162 140(2) 140.8507 138.3313
3620 17.5198 141(2) 140.9838 138.2901
3621 17.5234 142(2) 141.1426 138.2488
3622 17.5270 144(2) 141.3334 138.2076
3623 17.5306 143(2) 141.5639 138.1663
3624 17.5342 143(2) 141.8440 138.1250
3625 17.5378 142(2) 142.1853 138.0838
3626 17.5414 141(2) 142.6020 138.0425
3627 17.5450 141(2) 143.1112 138.0013
3628 17.5486 146(2) 143.7316 137.9600
3629 17.5522 147(2) 144.4857 137.9187
3630 17.5558 148(2) 145.3966 137.8775
3631 17.5594 150(2) 146.4909 137.8362
3632 17.5630 150(2) 147.7941 137.7950
3633 17.5666 151(2) 149.3329 137.7537
3634 17.5702 154(2) 151.1331 137.7124
3635 17.5738 153(2) 153.2144 137.6712
3636 17.5774 154(2) 155.5957 137.6299
3637 17.5810 156(2) 158.2843 137.5886
3638 17.5846 160(2) 161.2841 137.5474
3639 17.5882 163(2) 164.5822 137.5061
3640 17.5918 165(2) 168.1599 137.4648
3641 17.5954 168(2) 171.9766 137.4236
3642 17.5990 172(2) 175.9814 137.3823
3643 17.6026 172(2) 180.1064 137.3411
3644 17.6062 175(2) 184.2575 137.2998
3645 17.6098 178(3) 188.3288 137.2585
3646 17.6134 180(3) 192.1855 137.2173
3647 17.6170 186(3) 195.6827 137.1760
3648 17.6206 188(3) 198.6565 137.1348
3649 17.6242 186(3) 200.9497 137.0935
3650 17.6278 193(3) 202.4234 137.0522
3651 17.6314 193(3) 202.9767 137.0110
3652 17.6350 190(3) 202.5693 136.9697
3653 17.6386 192(3) 201.2269 136.9285
3654 17.6422 193(3) 199.0348 136.8872
3655 17.6458 188(3) 196.1272 136.8459
3656 17.6494 186(3) 192.6575 136.8047
3657 17.6530 181(3) 188.7906 136.7634
3658 17.6566 180(3) 184.6773 136.7222
3659 17.6602 174(3) 180.4504 136.6809
3660 17.6638 173(2) 176.2295 136.6396
3661 17.6674 166(2) 172.1048 136.5984
3662 17.6710 169(2) 168.1553 136.5571
3663 17.6746 165(3) 164.4337 136.5158
3664 17.6782 160(2) 160.9843 136.4746
3665 17.6818 155(2) 157.8307 136.4333
3666 17.6854 152(2) 154.9838 136.3921
3667 17.6890 152(2) 152.4482 136.3508
3668 17.6926 152(2) 150.2132 136.3095
3669 17.6962 150(2) 148.2659 136.2683
3670 17.6998 148(2) 146.5837 136.2270
3671 17.7034 145(2) 145.1442 136.1858
3672 17.7070 142(2) 143.9204 136.1445
3673 17.7106 143(2) 142.8852 136.1032
3674 17.7142 141(2) 142.0138 136.0620
3675 17.7178 139(2) 141.2808 136.0207
3676 17.7214 144(3) 140.6647 135.9795
3677 17.7250 145(2) 140.1448 135.9382
3678 17.7286 144(2) 139.7045 135.8969
3679 17.7322 137(2) 139.3285 135.8557
3680 17.7358 139(2) 139.0048 135.8144
3681 17.7394 140(2) 138.7229 135.7731
3682 17.7430 138(2) 138.4747 135.7319
3683 17.7466 138(3) 138.2536 135.6906
3684 17.7502 139(2) 138.0542 135.6494
3685 17.7538 138(2) 137.8727 135.6081
3686 17.7574 136(2) 137.7379 135.5668
3687 17.7610 135(2) 137.5831 135.5256
3688 17.7646 135(2) 137.4386 135.4843
3689 17.7682 135(2) 137.3495 135.4431
3690 17.7718 136(2) 137.2212 135.4018
3691 17.7754 138(2) 137.0995 135.3605
3692 17.7790 138(2) 136.9835 135.3193
3693 17.7826 136(2) 136.8726 135.2780
3694 17.7862 137(2) 136.7664 135.2368
3695 17.7898 138(2) 136.6644 135.1955
3696 17.7934 137(2) 136.5662 135.1542
3697 17.7970 135(2) 136.4716 135.1130
3698 17.8006 133(2) 136.3801 135.0717
3699 17.8042 132(2) 136.2917 135.0305
3700 17.8078 131(2) 136.2059 134.9892
3701 17.8114 133(2) 136.1227 134.9479
3702 17.8150 136(3) 136.0419 134.9066
3703 17.8186 135(2) 135.9633 134.8654
3704 17.8222 136(2) 135.8866 134.8241
3705 17.8258 134(2) 135.8119 134.7829
3706 17.8294 133(2) 135.7390 134.7416
3707 17.8330 134(2) 135.6676 134.7003
3708 17.8366 130(2) 135.5979 134.6591
3709 17.8402 133(2) 135.5295 134.6178
3710 17.8438 135(2) 135.4625 134.5766
3711 17.8474 135(2) 135.3968 134.5353
3712 17.8510 135(2) 135.3323 134.4940
3713 17.8546 136(2) 135.2688 134.4528
3714 17.8582 135(2) 135.2064 134.4115
3715 17.8618 133(2) 135.1451 134.3703
3716 17.8654 135(2) 135.0846 134.3290
3717 17.8690 134(3) 135.0250 134.2878
3718 17.8726 130(2) 134.9662 134.2465
3719 17.8762 133(2) 134.9083 134.2052
3720 17.8798 136(2) 134.8510 134.1640
3721 17.8834 136(2) 134.7945 134.1227
3722 17.8870 138(2) 134.7386 134.0814
3723 17.8906 135(2) 134.6833 134.0402
3724 17.8942 138(2) 134.6287 133.9989
3725 17.8978 133(2) 134.5745 133.9576
3726 17.9014 132(2) 134.5210 133.9164
3727 17.9050 133(2) 134.4679 133.8751
3728 17.9086 137(2) 134.4153 133.8339
3729 17.9122 139(2) 134.3632 133.7926
3730 17.9158 139(2) 134.3115 133.7513
3731 17.9194 133(2) 134.2603 133.7101
3732 17.9230 133(2) 134.2094 133.6688
3733 17.9266 135(2) 134.1589 133.6276
3734 17.9302 135(2) 134.1088 133.5863
3735 17.9338 134(2) 134.0590 133.5450
3736 17.9374 134(2) 134.0096 133.5038
3737 17.9410 132(2) 133.9604 133.4625
3738 17.9446 132(2) 133.9116 133.4213
3739 17.9482 133(2) 133.8631 133.3800
3740 17.9518 132(2) 133.8148 133.3387
3741 17.9554 132(2) 133.7668 133.2975
3742 17.9590 135(2) 133.7191 133.2562
3743 17.9626 134(2) 133.6715 133.2149
3744 17.9662 134(2) 133.6243 133.1737
3745 17.9698 135(2) 133.5773 133.1324
3746 17.9734 134(2) 133.5304 133.0912
3747 17.9770 132(2) 133.4838 133.0499
3748 17.9806 131(2) 133.4374 133.0086
3749 17.9842 133(2) 133.3912 132.9674
3750 17.9878 137(2) 133.3452 132.9261
3751 17.9914 129(2) 133.2993 132.8849
3752 17.9950 132(2) 133.2537 132.8436
3753 17.9986 136(2) 133.2081 132.8023
3754 18.0022 132(2) 133.1628 132.7611
3755 18.0058 134(2) 133.1176 132.7198
3756 18.0094 134(2) 133.0726 132.6786
3757 18.0130 133(2) 133.0277 132.6373
3758 18.0166 131(2) 132.9829 132.5960
3759 18.0202 132(2) 132.9383 132.5548
3760 18.0238 134(2) 132.8938 132.5135
3761 18.0274 134(2) 132.8495 132.4723
3762 18.0310 134(2) 132.8052 132.4310
3763 18.0346 133(2) 132.7611 132.3897
3764 18.0382 132(2) 132.7171 132.3484
3765 18.0418 134(2) 132.6733 132.3072
3766 18.0454 132(2) 132.6295 132.2659
3767 18.0490 132(2) 132.5858 132.2247
3768 18.0526 132(2) 132.5423 132.1834
3769 18.0562 133(2) 132.4988 132.1422
3770 18.0598 133(2) 132.4555 132.1009
3771 18.0634 133(2) 132.4122 132.0596
3772 18.0670 134(2) 132.3691 132.0184
3773 18.0706 134(2) 132.3260 131.9771
3774 18.0742 131(2) 132.2830 131.9359
3775 18.0778 133(2) 132.2401 131.8946
3776 18.0814 135(2) 132.1973 131.8533
3777 18.0850 130(2) 132.1546 131.8121
3778 18.0886 135(2) 132.1119 131.7708
3779 18.0922 134(2) 132.0694 131.7296
3780 18.0958 133(2) 132.0269 131.6883
3781 18.0994 132(2) 131.9845 131.6470
3782 18.1030 130(2) 131.9422 131.6057
3783 18.1066 131(2) 131.8999 131.5645
3784 18.1102 130(2) 131.8578 131.5233
3785 18.1138 130(2) 131.8156 131.4820
3786 18.1174 131(2) 131.7736 131.4407
3787 18.1210 131(2) 131.7316 131.3994
3788 18.1246 133(2) 131.6897 131.3582
3789 18.1282 132(2) 131.6479 131.3169
3790 18.1318 132(2) 131.6061 131.2757
3791 18.1354 130(2) 131.5644 131.2344
3792 18.1390 130(2) 131.5228 131.1931
3793 18.1426 129(2) 131.4812 131.1519
3794 18.1462 128(2) 131.4397 131.1106
3795 18.1498 128(2) 131.3982 131.0694
3796 18.1534 133(2) 131.3568 131.0281
3797 18.1570 129(2) 131.3155 130.9868
3798 18.1606 132(2) 131.2742 130.9456
3799 18.1642 136(2) 131.2330 130.9043
3800 18.1678 131(2) 131.1919 130.8631
3801 18.1714 129(2) 131.1508 130.8218
3802 18.1750 131(2) 131.1098 130.7805
3803 18.1786 131(2) 131.0688 130.7393
3804 18.1822 131(2) 131.0279 130.6980
3805 18.1858 132(2) 130.9870 130.6567
3806 18.1894 128(2) 130.9462 130.6155
3807 18.1930 129(2) 130.9055 130.5742
3808 18.1966 131(2) 130.8648 130.5330
3809 18.2002 131(2) 130.8242 130.4917
3810 18.2038 131(2) 130.7836 130.4504
3811 18.2074 131(2) 130.7431 130.4092
3812 18.2110 131(2) 130.7026 130.3679
3813 18.2146 129(2) 130.6622 130.3267
3814 18.2182 129(2) 130.6219 130.2854
3815 18.2218 132(2) 130.5816 130.2441
3816 18.2254 131(2) 130.5414 130.2029
3817 18.2290 129(2) 130.5012 130.1616
3818 18.2326 131(2) 130.4611 130.1204
3819 18.2362 129(2) 130.4210 130.0791
3820 18.2398 129(2) 130.3810 130.0378
3821 18.2434 133(2) 130.3411 129.9966
3822 18.2470 131(2) 130.3012 129.9553
3823 18.2506 130(2) 130.2614 129.9141
3824 18.2542 128(2) 130.2216 129.8728
3825 18.2578 128(2) 130.1820 129.8315
3826 18.2614 134(3) 130.1423 129.7903
3827 18.2650 131(2) 130.1027 129.7490
3828 18.2686 130(2) 130.0632 129.7077
3829 18.2722 132(2) 130.0238 129.6665
3830 18.2758 130(2) 129.9844 129.6252
3831 18.2794 130(2) 129.9451 129.5840
3832 18.2830 131(2) 129.9058 129.5427
3833 18.2866 130(2) 129.8666 129.5014
3834 18.2902 130(2) 129.8275 129.4602
3835 18.2938 129(2) 129.7885 129.4189
3836 18.2974 129(2) 129.7495 129.3777
3837 18.3010 132(2) 129.7106 129.3364
3838 18.3046 128(2) 129.6717 129.2951
3839 18.3082 130(2) 129.6330 129.2539
3840 18.3118 126(2) 129.6016 129.2200
3841 18.3154 129(2) 129.5718 129.1875
3842 18.3190 131(2) 129.5421 129.1550
3843 18.3226 130(3) 129.5124 129.1226
3844 18.3262 130(2) 129.4829 129.0901
3845 18.3298 126(2) 129.4534 129.0577
3846 18.3334 128(2) 129.4240 129.0253
3847 18.3370 126(2) 129.3947 128.9928
3848 18.3406 126(2) 129.3654 128.9604
3849 18.3442 126(2) 129.3363 128.9279
3850 18.3478 128(2) 129.3072 128.8955
3851 18.3514 129(2) 129.2783 128.8630
3852 18.3550 126(2) 129.2494 128.8306
3853 18.3586 126(2) 129.2206 128.7981
3854 18.3622 127(2) 129.1920 128.7657
3855 18.3658 127(2) 129.1634 128.7332
3856 18.3694 128(2) 129.1349 128.7008
3857 18.3730 130(2) 129.1066 128.6683
3858 18.3766 130(2) 129.0783 128.6359
3859 18.3802 129(2) 129.0502 128.6034
3860 18.3838 129(2) 129.0222 128.5710
3861 18.3874 131(2) 128.9943 128.5385
3862 18.3910 129(2) 128.9665 128.5061
3863 18.3946 129(2) 128.9389 128.4736
3864 18.3982 130(2) 128.9114 128.4412
3865 18.4018 130(2) 128.8840 128.4087
3866 18.4054 126(2) 128.8568 128.3763
3867 18.4090 132(2) 128.8297 128.3438
3868 18.4126 130(2) 128.8027 128.3114
3869 18.4162 127(2) 128.7760 128.2789
3870 18.4198 125(2) 128.7493 128.2465
3871 18.4234 127(2) 128.7229 128.2141
3872 18.4270 129(2) 128.6966 128.1816
3873 18.4306 128(2) 128.6705 128.1491
3874 18.4342 130(2) 128.6445 128.1167
3875 18.4378 130(2) 128.6188 128.0842
3876 18.4414 129(2) 128.5932 128.0518
3877 18.4450 129(2) 128.5679 128.0193
3878 18.4486 130(2) 128.5428 127.9869
3879 18.4522 132(2) 128.5178 127.9544
3880 18.4558 131(2) 128.4932 127.9220
3881 18.4594 128(2) 128.4687 127.8895
3882 18.4630 130(2) 128.4445 127.8571
3883 18.4666 131(2) 128.4206 127.8246
3884 18.4702 129(2) 128.3969 127.7922
3885 18.4738 127(2) 128.3736 127.7598
3886 18.4774 127(2) 128.3505 127.7273
3887 18.4810 132(2) 128.3277 127.6949
3888 18.4846 127(2) 128.3053 127.6624
3889 18.4882 132(2) 128.2831 127.6300
3890 18.4918 130(2) 128.2614 127.5975
3891 18.4954 132(2) 128.2400 127.5651
3892 18.4990 130(2) 128.2190 127.5326
3893 18.5026 126(2) 128.1984 127.5002
3894 18.5062 130(2) 128.1783 127.4677
3895 18.5098 129(2) 128.1586 127.4353
3896 18.5134 131(2) 128.1394 127.4028
3897 18.5170 130(2) 128.1207 127.3704
3898 18.5206 128(2) 128.1026 127.3379
3899 18.5242 130(2) 128.0850 127.3055
3900 18.5278 130(2) 128.0680 127.2730
3901 18.5314 129(2) 128.0517 127.2406
3902 18.5350 127(2) 128.0360 127.2081
3903 18.5386 126(2) 128.0211 127.1757
3904 18.5422 127(2) 128.0069 127.1432
3905 18.5458 128(2) 127.9935 127.1108
3906 18.5494 130(2) 127.9811 127.0783
3907 18.5530 130(2) 127.9696 127.0459
3908 18.5566 129(2) 127.9590 127.0134
3909 18.5602 130(2) 127.9496 126.9810
3910 18.5638 128(2) 127.9413 126.9485
3911 18.5674 130(2) 127.9344 126.9161
3912 18.5710 131(2) 127.9288 126.8836
3913 18.5746 130(2) 127.9247 126.8512
3914 18.5782 130(3) 127.9224 126.8187
3915 18.5818 130(2) 127.9219 126.7863
3916 18.5854 129(2) 127.9236 126.7538
3917 18.5890 130(2) 127.9277 126.7214
3918 18.5926 130(2) 127.9346 126.6889
3919 18.5962 133(2) 127.9448 126.6565
3920 18.5998 129(2) 127.9589 126.6240
3921 18.6034 130(2) 127.9777 126.5916
3922 18.6070 131(2) 128.0022 126.5591
3923 18.6106 130(2) 128.0337 126.5267
3924 18.6142 132(2) 128.0735 126.4942
3925 18.6178 133(2) 128.1238 126.4618
3926 18.6214 131(2) 128.1867 126.4294
3927 18.6250 131(2) 128.2653 126.3969
3928 18.6286 131(2) 128.3627 126.3645
3929 18.6322 130(2) 128.4829 126.3320
3930 18.6358 129(2) 128.6305 126.2996
3931 18.6394 129(2) 128.8106 126.2671
3932 18.6430 131(2) 129.0286 126.2347
3933 18.6466 132(2) 129.2906 126.2022
3934 18.6502 133(2) 129.6030 126.1698
3935 18.6538 138(2) 129.9718 126.1373
3936 18.6574 138(2) 130.4034 126.1049
3937 18.6610 135(2) 130.9029 126.0724
3938 18.6646 138(2) 131.4753 126.0400
3939 18.6682 137(2) 132.1234 126.0075
3940 18.6718 138(2) 132.8491 125.9751
3941 18.6754 140(2) 133.6513 125.9426
3942 18.6790 140(2) 134.5268 125.9102
3943 18.6826 143(2) 135.4701 125.8777
3944 18.6862 147(2) 136.4705 125.8453
3945 18.6898 150(2) 137.5159 125.8128
3946 18.6934 149(2) 138.5878 125.7804
3947 18.6970 147(2) 139.6656 125.7479
3948 18.7006 151(3) 140.7219 125.7155
3949 18.7042 156(2) 141.7262 125.6830
3950 18.7078 156(2) 142.6440 125.6506
3951 18.7114 156(2) 143.4816 125.6181
3952 18.7150 160(3) 144.1119 125.5857
3953 18.7186 163(2) 144.5450 125.5532
3954 18.7222 163(2) 144.7555 125.5208
3955 18.7258 163(2) 144.7297 125.4883
3956 18.7294 164(2) 144.4893 125.4559
3957 18.7330 163(2) 144.0096 125.4234
3958 18.7366 160(2) 143.3385 125.3910
3959 18.7402 158(3) 142.5106 125.3585
3960 18.7438 153(2) 141.5650 125.3261
3961 18.7474 155(2) 140.5383 125.2936
3962 18.7510 149(2) 139.4661 125.2612
3963 18.7546 148(2) 138.3776 125.2287
3964 18.7582 144(2) 137.2996 125.1963
3965 18.7618 142(2) 136.2526 125.1639
3966 18.7654 141(2) 135.2527 125.1314
3967 18.7690 138(2) 134.3138 125.0990
3968 18.7726 137(2) 133.4439 125.0665
3969 18.7762 138(2) 132.6498 125.0341
3970 18.7798 135(2) 131.9335 125.0016
3971 18.7834 132(2) 131.2961 124.9692
3972 18.7870 133(2) 130.7354 124.9367
3973 18.7906 132(2) 130.2485 124.9043
3974 18.7942 131(2) 129.8304 124.8718
3975 18.7978 132(2) 129.4756 124.8394
3976 18.8014 130(2) 129.1784 124.8069
3977 18.8050 128(2) 128.9323 124.7745
3978 18.8086 128(2) 128.7316 124.7420
3979 18.8122 132(2) 128.5703 124.7096
3980 18.8158 130(2) 128.4431 124.6771
3981 18.8194 128(2) 128.3453 124.6447
3982 18.8230 127(2) 128.2724 124.6122
3983 18.8266 134(2) 128.2211 124.5798
3984 18.8302 126(2) 128.1882 124.5473
3985 18.8338 127(2) 128.1712 124.5149
3986 18.8374 129(2) 128.1681 124.4824
3987 18.8410 131(2) 128.1774 124.4500
3988 18.8446 129(2) 128.1732 124.4175
3989 18.8482 129(2) 128.2040 124.3851
3990 18.8518 132(2) 128.2445 124.3526
3991 18.8554 130(2) 128.2944 124.3202
3992 18.8590 131(2) 128.3533 124.2877
3993 18.8626 129(2) 128.4215 124.2553
3994 18.8662 131(2) 128.4989 124.2228
3995 18.8698 131(2) 128.5859 124.1904
3996 18.8734 127(2) 128.6827 124.1579
3997 18.8770 128(2) 128.7899 124.1255
3998 18.8806 129(2) 128.9080 124.0930
3999 18.8842 128(2) 129.0378 124.0606
4000 18.8878 130(3) 129.1801 124.0281
4001 18.8914 131(2) 129.3358 123.9957
4002 18.8950 130(2) 129.5063 123.9632
4003 18.8986 134(2) 129.6928 123.9308
4004 18.9022 132(2) 129.8973 123.8983
4005 18.9058 133(2) 130.1216 123.8659
4006 18.9094 135(3) 130.3686 123.8335
4007 18.9130 133(2) 130.6416 123.8010
4008 18.9166 138(2) 130.9447 123.7686
4009 18.9202 133(2) 131.2835 123.7361
4010 18.9238 143(2) 131.6642 123.7037
4011 18.9274 141(2) 132.0959 123.6712
4012 18.9310 139(2) 132.5887 123.6388
4013 18.9346 140(2) 133.1564 123.6063
4014 18.9382 143(2) 133.8159 123.5739
4015 18.9418 145(2) 134.5872 123.5414
4016 18.9454 144(2) 135.4960 123.5090
4017 18.9490 148(2) 136.5715 123.4765
4018 18.9526 152(2) 137.8504 123.4441
4019 18.9562 153(2) 139.3730 123.4116
4020 18.9598 154(2) 141.1875 123.3792
4021 18.9634 159(2) 143.3488 123.3467
4022 18.9670 165(2) 145.9135 123.3143
4023 18.9706 169(2) 148.9482 123.2818
4024 18.9742 171(3) 152.5163 123.2494
4025 18.9778 177(3) 156.6891 123.2169
4026 18.9814 184(3) 161.5284 123.1845
4027 18.9850 189(3) 167.1007 123.1520
4028 18.9886 195(3) 173.4529 123.1196
4029 18.9922 207(3) 180.6281 123.0871
4030 18.9958 214(3) 188.6545 123.0547
4031 18.9994 222(3) 197.5260 123.0222
4032 19.0030 226(3) 207.2286 122.9898
4033 19.0066 239(3) 217.6988 122.9573
4034 19.0102 249(3) 228.8598 122.9249
4035 19.0138 266(3) 240.5735 122.8924
4036 19.0174 276(3) 252.6773 122.8600
4037 19.0210 288(4) 264.9634 122.8275
4038 19.0246 302(4) 277.1570 122.7951
4039 19.0282 312(4) 288.9615 122.7626
4040 19.0318 330(5) 300.0136 122.7302
4041 19.0354 339(4) 309.9439 122.6977
4042 19.0390 348(4) 318.3526 122.6653
4043 19.0426 363(4) 324.8794 122.6328
4044 19.0462 370(4) 329.2036 122.6004
4045 19.0498 368(4) 331.1057 122.5679
4046 19.0534 363(4) 330.4791 122.5355
4047 19.0570 356(4) 327.3514 122.5031
4048 19.0606 347(5) 321.8771 122.4706
4049 19.0642 333(3) 314.3313 122.4381
4050 19.0678 322(5) 305.0538 122.4057
4051 19.0714 304(5) 294.4432 122.3732
4052 19.0750 292(4) 282.8889 122.3408
4053 19.0786 277(4) 270.7571 122.3083
4054 19.0822 259(3) 258.3948 122.2759
4055 19.0858 249(3) 246.0768 122.2434
4056 19.0894 231(3) 234.0548 122.2110
4057 19.0930 224(4) 222.5076 122.1786
4058 19.0966 217(3) 211.5946 122.1461
4059 19.1002 207(3) 201.4107 122.1136
4060 19.1038 194(3) 192.0370 122.0812
4061 19.1074 191(3) 183.5059 122.0488
4062 19.1110 183(3) 175.8236 122.0163
4063 19.1146 177(3) 168.9846 121.9839
4064 19.1182 170(2) 162.9493 121.9514
4065 19.1218 167(2) 157.6767 121.9190
4066 19.1254 158(3) 153.1035 121.8865
4067 19.1290 152(2) 149.1702 121.8541
4068 19.1326 152(2) 145.8068 121.8216
4069 19.1362 150(2) 142.9442 121.7892
4070 19.1398 147(2) 140.5198 121.7567
4071 19.1434 147(2) 138.4693 121.7243
4072 19.1470 144(2) 136.7382 121.6918
4073 19.1506 139(2) 135.2737 121.6594
4074 19.1542 138(2) 134.0326 121.6269
4075 19.1578 141(2) 132.9749 121.5945
4076 19.1614 138(2) 132.0689 121.5620
4077 19.1650 137(2) 131.2863 121.5296
4078 19.1686 132(2) 130.6042 121.4971
4079 19.1722 128(2) 130.0046 121.4647
4080 19.1758 130(2) 129.4720 121.4322
4081 19.1794 128(2) 128.9948 121.3998
4082 19.1830 130(2) 128.5629 121.3673
4083 19.1866 136(2) 128.1694 121.3349
4084 19.1902 130(2) 127.8079 121.3024
4085 19.1938 131(2) 127.4735 121.2700
4086 19.1974 128(2) 127.1628 121.2375
4087 19.2010 127(2) 126.8725 121.2051
4088 19.2046 127(2) 126.6005 121.1726
4089 19.2082 126(2) 126.3444 121.1402
4090 19.2118 126(2) 126.1030 121.1077
4091 19.2154 128(2) 125.8746 121.0753
4092 19.2190 126(2) 125.6583 121.0428
4093 19.2226 124(2) 125.4529 121.0104
4094 19.2262 126(2) 125.2575 120.9779
4095 19.2298 127(2) 125.0714 120.9455
4096 19.2334 125(3) 124.8939 120.9130
4097 19.2370 124(2) 124.7243 120.8806
4098 19.2406 121(2) 124.5621 120.8481
4099 19.2442 123(2) 124.4069 120.8157
4100 19.2478 124(2) 124.2581 120.7833
4101 19.2514 121(2) 124.1152 120.7508
4102 19.2550 124(2) 123.9779 120.7184
4103 19.2586 125(2) 123.8459 120.6859
4104 19.2622 123(2) 123.7188 120.6535
4105 19.2658 127(2) 123.5962 120.6210
4106 19.2694 119(2) 123.4780 120.5886
4107 19.2730 121(2) 123.3638 120.5561
4108 19.2766 119(2) 123.2535 120.5237
4109 19.2802 122(2) 123.1468 120.4912
4110 19.2838 124(2) 123.0433 120.4588
4111 19.2874 122(2) 122.9432 120.4263
4112 19.2910 122(2) 122.8460 120.3939
4113 19.2946 124(2) 122.7517 120.3614
4114 19.2982 122(2) 122.6600 120.3290
4115 19.3018 122(2) 122.5709 120.2965
4116 19.3054 121(2) 122.4843 120.2641
4117 19.3090 123(2) 122.3998 120.2316
4118 19.3126 123(2) 122.3176 120.1992
4119 19.3162 122(2) 122.2374 120.1667
4120 19.3198 122(2) 122.1592 120.1343
4121 19.3234 121(2) 122.0828 120.1018
4122 19.3270 121(2) 122.0082 120.0694
4123 19.3306 122(2) 121.9353 120.0369
4124 19.3342 122(2) 121.8639 120.0045
4125 19.3378 124(2) 121.7941 119.9720
4126 19.3414 123(2) 121.7258 119.9396
4127 19.3450 121(2) 121.6588 119.9071
4128 19.3486 124(2) 121.5932 119.8747
4129 19.3522 120(2) 121.5288 119.8422
4130 19.3558 120(2) 121.4657 119.8098
4131 19.3594 122(2) 121.4037 119.7773
4132 19.3630 122(2) 121.3428 119.7449
4133 19.3666 119(2) 121.2830 119.7124
4134 19.3702 119(2) 121.2242 119.6800
4135 19.3738 119(2) 121.1663 119.6475
4136 19.3774 123(2) 121.1095 119.6151
4137 19.3810 124(2) 121.0535 119.5826
4138 19.3846 120(2) 120.9984 119.5502
4139 19.3882 119(2) 120.9441 119.5178
4140 19.3918 120(2) 120.8906 119.4853
4141 19.3954 120(2) 120.8380 119.4529
4142 19.3990 119(2) 120.7860 119.4204
4143 19.4026 118(2) 120.7348 119.3880
4144 19.4062 119(2) 120.6842 119.3555
4145 19.4098 120(2) 120.6344 119.3231
4146 19.4134 121(2) 120.5851 119.2906
4147 19.4170 120(2) 120.5365 119.2582
4148 19.4206 118(3) 120.4885 119.2257
4149 19.4242 121(3) 120.4411 119.1933
4150 19.4278 116(3) 120.3943 119.1608
4151 19.4314 118(3) 120.3480 119.1284
4152 19.4350 125(3) 120.3022 119.0959
4153 19.4386 120(3) 120.2570 119.0635
4154 19.4422 117(3) 120.2122 119.0310
4155 19.4458 114(3) 120.1680 118.9986
4156 19.4494 119(3) 120.1242 118.9661
4157 19.4530 118(3) 120.0809 118.9337
4158 19.4566 114(3) 120.0380 118.9012
4159 19.4602 115(3) 119.9956 118.8688
4160 19.4638 120(3) 119.9536 118.8363
4161 19.4674 118(3) 119.9120 118.8039
4162 19.4710 116(3) 119.8708 118.7714
4163 19.4746 117(3) 119.8300 118.7390
4164 19.4782 117(3) 119.7896 118.7065
4165 19.4818 118(3) 119.7496 118.6741
4166 19.4854 122(3) 119.7100 118.6416
4167 19.4890 121(3) 119.6707 118.6092
4168 19.4926 119(3) 119.6318 118.5767
4169 19.4962 119(4) 119.5932 118.5443
4170 19.4998 113(3) 119.5550 118.5118
4171 19.5034 116(6) 119.5171 118.4794
4172 19.5070 116(3) 119.4795 118.4469
4173 19.5106 114(3) 119.4423 118.4145
4174 19.5142 119(3) 119.4054 118.3820
4175 19.5178 118(3) 119.3689 118.3496
4176 19.5214 118(3) 119.3326 118.3171
4177 19.5250 119(3) 119.2967 118.2847
4178 19.5286 117(3) 119.2611 118.2522
4179 19.5322 115(3) 119.2258 118.2198
4180 19.5358 117(3) 119.1908 118.1874
4181 19.5394 120(3) 119.1561 118.1549
4182 19.5430 113(3) 119.1217 118.1225
4183 19.5466 113(3) 119.0876 118.0900
4184 19.5502 117(3) 119.0538 118.0576
4185 19.5538 117(3) 119.0203 118.0251
4186 19.5574 121(3) 118.9871 117.9927
4187 19.5610 121(3) 118.9542 117.9602
4188 19.5646 120(3) 118.9216 117.9278
4189 19.5682 119(3) 118.8893 117.8953
4190 19.5718 114(3) 118.8572 117.8629
4191 19.5754 113(3) 118.8255 117.8304
4192 19.5790 116(3) 118.7941 117.7980
4193 19.5826 115(3) 118.7630 117.7655
4194 19.5862 114(3) 118.7322 117.7331
4195 19.5898 117(3) 118.7017 117.7006
4196 19.5934 118(3) 118.6715 117.6682
4197 19.5970 117(3) 118.6416 117.6357
4198 19.6006 116(3) 118.6121 117.6033
4199 19.6042 116(3) 118.5828 117.5708
4200 19.6078 116.1(19) 118.5539 117.5384
4201 19.6114 116.0(20) 118.5253 117.5059
4202 19.6150 118(2) 118.4970 117.4735
4203 19.6186 120(2) 118.4691 117.4410
4204 19.6222 119(2) 118.4415 117.4086
4205 19.6258 119(2) 118.4142 117.3761
4206 19.6294 120(2) 118.3873 117.3437
4207 19.6330 115(2) 118.3608 117.3112
4208 19.6366 114(2) 118.3346 117.2788
4209 19.6402 118(2) 118.3088 117.2463
4210 19.6438 118(2) 118.2834 117.2139
4211 19.6474 119(2) 118.2583 117.1814
4212 19.6510 119(2) 118.2337 117.1490
4213 19.6546 118(2) 118.2094 117.1165
4214 19.6582 118(2) 118.1856 117.0841
4215 19.6618 119(2) 118.1622 117.0516
4216 19.6654 117(2) 118.1392 117.0192
4217 19.6690 115(2) 118.1167 116.9867
4218 19.6726 117(2) 118.0947 116.9543
4219 19.6762 117(2) 118.0731 116.9219
4220 19.6798 117(2) 118.0520 116.8894
4221 19.6834 116.8(20) 118.0314 116.8569
4222 19.6870 117(2) 118.0113 116.8245
4223 19.6906 121(3) 117.9917 116.7921
4224 19.6942 115(3) 117.9727 116.7596
4225 19.6978 116(3) 117.9543 116.7271
4226 19.7014 114(3) 117.9365 116.6947
4227 19.7050 118(3) 117.9192 116.6623
4228 19.7086 116(3) 117.9026 116.6298
4229 19.7122 117(3) 117.8866 116.5974
4230 19.7158 119(3) 117.8713 116.5649
4231 19.7194 114(3) 117.8568 116.5325
4232 19.7230 118(3) 117.8429 116.5000
4233 19.7266 117(3) 117.8298 116.4676
4234 19.7302 118(3) 117.8174 116.4351
4235 19.7338 116(3) 117.8059 116.4027
4236 19.7374 116(3) 117.7952 116.3702
4237 19.7410 115(3) 117.7854 116.3378
4238 19.7446 116(3) 117.7765 116.3053
4239 19.7482 119(3) 117.7686 116.2729
4240 19.7518 119(3) 117.7617 116.2404
4241 19.7554 119(3) 117.7558 116.2080
4242 19.7590 118(3) 117.7510 116.1755
4243 19.7626 116(3) 117.7473 116.1431
4244 19.7662 116(3) 117.7448 116.1106
4245 19.7698 118(3) 117.7436 116.0782
4246 19.7734 117(3) 117.7436 116.0457
4247 19.7770 121(3) 117.7450 116.0133
4248 19.7806 119(3) 117.7479 115.9808
4249 19.7842 119(3) 117.7522 115.9484
4250 19.7878 113(3) 117.7581 115.9159
4251 19.7914 121(3) 117.7657 115.8835
4252 19.7950 118(3) 117.7750 115.8510
4253 19.7986 114(3) 117.7861 115.8186
4254 19.8022 117(3) 117.7992 115.7861
4255 19.8058 118(3) 117.8143 115.7537
4256 19.8094 115(3) 117.8316 115.7212
4257 19.8130 114(3) 117.8511 115.6888
4258 19.8166 114(3) 117.8730 115.6563
4259 19.8202 117(3) 117.8974 115.6239
4260 19.8238 117(3) 117.9245 115.5914
4261 19.8274 116(3) 117.9545 115.5590
4262 19.8310 117(3) 117.9875 115.5266
4263 19.8346 116(3) 118.0236 115.4941
4264 19.8382 117(3) 118.0631 115.4616
4265 19.8418 117(3) 118.1063 115.4292
4266 19.8454 117(3) 118.1533 115.3967
4267 19.8490 119(3) 118.2043 115.3643
4268 19.8526 122(3) 118.2597 115.3318
4269 19.8562 119(3) 118.3198 115.2994
4270 19.8598 117(3) 118.3848 115.2669
4271 19.8634 119(3) 118.4551 115.2345
4272 19.8670 122(3) 118.5312 115.2020
4273 19.8706 115(3) 118.6134 115.1696
4274 19.8742 117(3) 118.7021 115.1372
4275 19.8778 117.1(19) 118.7980 115.1047
4276 19.8814 120.2(20) 118.9015 115.0723
4277 19.8850 120(2) 119.0135 115.0398
4278 19.8886 119(2) 119.1344 115.0074
4279 19.8922 121(2) 119.2654 114.9749
4280 19.8958 119(2) 119.4073 114.9425
4281 19.8994 122(2) 119.5614 114.9100
4282 19.9030 122(2) 119.7291 114.8776
4283 19.9066 121(2) 119.9122 114.8451
4284 19.9102 120(2) 120.1129 114.8127
4285 19.9138 122(2) 120.3338 114.7802
4286 19.9174 122(2) 120.5783 114.7478
4287 19.9210 122(2) 120.8506 114.7153
4288 19.9246 125(2) 121.1560 114.6829
4289 19.9282 126(2) 121.5008 114.6504
4290 19.9318 124(2) 121.8932 114.6180
4291 19.9354 125(2) 122.3437 114.5855
4292 19.9390 127(2) 122.8639 114.5531
4293 19.9426 130(2) 123.4694 114.5206
4294 19.9462 131(2) 124.1777 114.4882
4295 19.9498 134(2) 125.0108 114.4557
4296 19.9534 131(2) 125.9930 114.4233
4297 19.9570 134(2) 127.1536 114.3908
4298 19.9606 135(2) 128.5264 114.3584
4299 19.9642 137(2) 130.1467 114.3259
4300 19.9678 139(2) 132.0570 114.2935
4301 19.9714 145(2) 134.2984 114.2610
4302 19.9750 148(2) 136.9192 114.2286
4303 19.9786 153(2) 139.9631 114.1961
4304 19.9822 155(2) 143.4792 114.1637
4305 19.9858 155(2) 147.5072 114.1312
4306 19.9894 154(3) 152.0879 114.0988
4307 19.9930 164(3) 157.2559 114.0663
4308 19.9966 171(2) 163.0212 114.0339
4309 20.0002 175(2) 169.4135 114.0014
4310 20.0038 182(3) 176.4140 113.9690
4311 20.0074 188(3) 184.0074 113.9365
4312 20.0110 197(4) 192.1420 113.9041
4313 20.0146 208(3) 200.7549 113.8717
4314 20.0182 214(3) 209.7579 113.8392
4315 20.0218 222(3) 219.0196 113.8068
4316 20.0254 230(3) 228.3967 113.7743
4317 20.0290 239(4) 237.6938 113.7419
4318 20.0326 253(3) 246.7035 113.7094
4319 20.0362 263(3) 255.1722 113.6770
4320 20.0398 275(3) 262.8478 113.6445
4321 20.0434 284(3) 269.4604 113.6121
4322 20.0470 284(3) 274.7727 113.5796
4323 20.0506 294(3) 278.5886 113.5472
4324 20.0542 297(3) 280.7680 113.5147
4325 20.0578 296(3) 281.2503 113.4823
4326 20.0614 296(3) 280.0440 113.4498
4327 20.0650 295(3) 277.2205 113.4174
4328 20.0686 287(3) 272.9058 113.3849
4329 20.0722 283(3) 267.2604 113.3525
4330 20.0758 274(3) 260.4709 113.3200
4331 20.0794 262(4) 252.7558 113.2876
4332 20.0830 251(4) 244.3295 113.2551
4333 20.0866 243(3) 235.4259 113.2227
4334 20.0902 233(3) 226.2518 113.1902
4335 20.0938 225(3) 217.0159 113.1578
4336 20.0974 216(3) 207.8836 113.1253
4337 20.1010 203(4) 199.0121 113.0929
4338 20.1046 193(3) 190.5151 113.0604
4339 20.1082 187(3) 182.4796 113.0280
4340 20.1118 178(3) 174.9792 112.9955
4341 20.1154 170(3) 168.0479 112.9631
4342 20.1190 163(2) 161.7146 112.9306
4343 20.1226 161(2) 155.9766 112.8982
4344 20.1262 159(2) 150.8299 112.8657
4345 20.1298 154(2) 146.2492 112.8333
4346 20.1334 148(2) 142.2017 112.8008
4347 20.1370 147(2) 138.6544 112.7684
4348 20.1406 145(2) 135.5619 112.7359
4349 20.1442 141(2) 132.8837 112.7035
4350 20.1478 136(2) 130.5728 112.6710
4351 20.1514 136(2) 128.5883 112.6386
4352 20.1550 135(2) 126.8867 112.6061
4353 20.1586 132(2) 125.4311 112.5737
4354 20.1622 130(2) 124.1852 112.5413
4355 20.1658 128(2) 123.1169 112.5088
4356 20.1694 126(2) 122.1993 112.4764
4357 20.1730 124(2) 121.4068 112.4439
4358 20.1766 125(2) 120.7194 112.4115
4359 20.1802 124(2) 120.1186 112.3790
4360 20.1838 121(2) 119.5900 112.3466
4361 20.1874 120(2) 119.1210 112.3141
4362 20.1910 120(2) 118.7011 112.2817
4363 20.1946 120(2) 118.3225 112.2492
4364 20.1982 119(2) 117.9780 112.2168
4365 20.2018 119(2) 117.6626 112.1843
4366 20.2054 119(2) 117.3811 112.1614
4367 20.2090 120(2) 117.1292 112.1471
4368 20.2126 118(2) 116.8954 112.1327
4369 20.2162 120(3) 116.6775 112.1184
4370 20.2198 118(2) 116.4735 112.1041
4371 20.2234 121(2) 116.2819 112.0897
4372 20.2270 115(2) 116.1015 112.0754
4373 20.2306 119(2) 115.9312 112.0610
4374 20.2342 118(2) 115.7701 112.0467
4375 20.2378 116(2) 115.6173 112.0323
4376 20.2414 114(2) 115.4723 112.0180
4377 20.2450 117(2) 115.3344 112.0037
4378 20.2486 114(2) 115.2031 111.9893
4379 20.2522 111.4(20) 115.0779 111.9750
4380 20.2558 114(2) 114.9584 111.9606
4381 20.2594 116(2) 114.8442 111.9463
4382 20.2630 115(2) 114.7350 111.9319
4383 20.2666 114(2) 114.6304 111.9176
4384 20.2702 114(2) 114.5302 111.9033
4385 20.2738 114(2) 114.4340 111.8889
4386 20.2774 116(2) 114.3416 111.8746
4387 20.2810 116(2) 114.2528 111.8602
4388 20.2846 113(2) 114.1674 111.8459
4389 20.2882 113(2) 114.0851 111.8315
4390 20.2918 112.5(20) 114.0058 111.8172
4391 20.2954 111.4(20) 113.9293 111.8029
4392 20.2990 111.5(20) 113.8555 111.7885
4393 20.3026 113.2(20) 113.7842 111.7742
4394 20.3062 115(2) 113.7153 111.7598
4395 20.3098 114(2) 113.6486 111.7455
4396 20.3134 112.0(20) 113.5839 111.7311
4397 20.3170 114(2) 113.5214 111.7168
4398 20.3206 113(2) 113.4607 111.7025
4399 20.3242 115(2) 113.4018 111.6881
4400 20.3278 113(2) 113.3446 111.6738
4401 20.3314 114(2) 113.2890 111.6594
4402 20.3350 115(2) 113.2029 111.6451
4403 20.3386 114(2) 113.1506 111.6307
4404 20.3422 113(2) 113.0996 111.6164
4405 20.3458 111.8(20) 113.0032 111.6021
4406 20.3494 111.6(20) 112.9550 111.5877
4407 20.3530 113(2) 112.9081 111.5734
4408 20.3566 113(2) 112.8623 111.5590
4409 20.3602 111.6(20) 112.8176 111.5447
4410 20.3638 112.3(20) 112.7739 111.5303
4411 20.3674 113.0(20) 112.7313 111.5160
4412 20.3710 112(2) 112.6896 111.5017
4413 20.3746 113(2) 112.6488 111.4873
4414 20.3782 112.2(20) 112.6089 111.4730
4415 20.3818 114(2) 112.5698 111.4586
4416 20.3854 114(2) 112.5315 111.4443
4417 20.3890 115(2) 112.4939 111.4300
4418 20.3926 114(2) 112.4571 111.4156
4419 20.3962 115(2) 112.4210 111.4013
4420 20.3998 113(2) 112.3856 111.3869
4421 20.4034 113(2) 112.3508 111.3726
4422 20.4070 113(2) 112.3167 111.3582
4423 20.4106 111(2) 112.2831 111.3439
4424 20.4142 112.0(20) 112.2501 111.3296
4425 20.4178 114(2) 112.2176 111.3152
4426 20.4214 111.8(20) 112.1857 111.3009
4427 20.4250 108.9(20) 112.1543 111.2865
4428 20.4286 109.3(20) 112.1233 111.2722
4429 20.4322 108.9(20) 112.0929 111.2578
4430 20.4358 109.1(20) 112.0629 111.2435
4431 20.4394 111.2(20) 112.0333 111.2292
4432 20.4430 112.0(20) 112.0042 111.2148
4433 20.4466 111.5(20) 111.9754 111.2005
4434 20.4502 111.8(20) 111.9470 111.1861
4435 20.4538 111.4(20) 111.9191 111.1718
4436 20.4574 112.3(20) 111.8914 111.1574
4437 20.4610 114(2) 111.8642 111.1431
4438 20.4646 110(2) 111.8372 111.1288
4439 20.4682 111.3(20) 111.8106 111.1144
4440 20.4718 109.0(20) 111.7843 111.1001
4441 20.4754 110.9(20) 111.7583 111.0857
4442 20.4790 112(2) 111.7326 111.0714
4443 20.4826 114(2) 111.7072 111.0570
4444 20.4862 111.8(20) 111.6821 111.0427
4445 20.4898 112.5(20) 111.6572 111.0284
4446 20.4934 110.5(20) 111.6326 111.0140
4447 20.4970 114(2) 111.6082 110.9997
4448 20.5006 113(2) 111.5841 110.9853
4449 20.5042 111.5(20) 111.5602 110.9710
4450 20.5078 111.8(20) 111.5366 110.9566
4451 20.5114 111.2(20) 111.5131 110.9423
4452 20.5150 113(2) 111.4899 110.9280
4453 20.5186 113(2) 111.4669 110.9136
4454 20.5222 110.2(20) 111.4440 110.8993
4455 20.5258 109.4(20) 111.4214 110.8849
4456 20.5294 109.2(20) 111.3990 110.8706
4457 20.5330 109.8(20) 111.3767 110.8562
4458 20.5366 110.6(20) 111.3546 110.8419
4459 20.5402 111.1(20) 111.3327 110.8276
4460 20.5438 111.5(20) 111.3109 110.8132
4461 20.5474 111.1(20) 111.2894 110.7989
4462 20.5510 110.7(20) 111.2679 110.7845
4463 20.5546 109.8(20) 111.2466 110.7702
4464 20.5582 110.0(20) 111.2255 110.7559
4465 20.5618 111.4(20) 111.2045 110.7415
4466 20.5654 112.7(20) 111.1837 110.7272
4467 20.5690 114(2) 111.1630 110.7128
4468 20.5726 112.4(20) 111.1424 110.6985
4469 20.5762 110.5(20) 111.1219 110.6841
4470 20.5798 107.9(20) 111.1016 110.6698
4471 20.5834 114(2) 111.0814 110.6555
4472 20.5870 111.6(20) 111.0613 110.6411
4473 20.5906 113(2) 111.0413 110.6268
4474 20.5942 110.1(20) 111.0215 110.6124
4475 20.5978 111(2) 111.0017 110.5981
4476 20.6014 113(2) 110.9821 110.5837
4477 20.6050 111(2) 110.9625 110.5694
4478 20.6086 111.7(20) 110.9431 110.5550
4479 20.6122 112.0(20) 110.9238 110.5407
4480 20.6158 111.2(20) 110.9045 110.5264
4481 20.6194 110.9(20) 110.8854 110.5120
4482 20.6230 111.3(20) 110.8663 110.4977
4483 20.6266 112.3(20) 110.8473 110.4833
4484 20.6302 110.5(20) 110.8285 110.4690
4485 20.6338 110(2) 110.8096 110.4547
4486 20.6374 112.8(20) 110.7909 110.4403
4487 20.6410 112.3(20) 110.7723 110.4260
4488 20.6446 111.7(20) 110.7537 110.4116
4489 20.6482 110.4(20) 110.7353 110.3973
4490 20.6518 111.5(20) 110.7168 110.3829
4491 20.6554 111.3(20) 110.6985 110.3686
4492 20.6590 112.4(20) 110.6802 110.3543
4493 20.6626 110.1(20) 110.6620 110.3399
4494 20.6662 111.5(20) 110.6439 110.3256
4495 20.6698 110.2(20) 110.6259 110.3112
4496 20.6734 109.0(20) 110.6079 110.2969
4497 20.6770 111.4(20) 110.5899 110.2825
4498 20.6806 110.6(20) 110.5721 110.2682
4499 20.6842 110.6(20) 110.5542 110.2539
4500 20.6878 109.5(20) 110.5365 110.2395
4501 20.6914 109.3(20) 110.5188 110.2252
4502 20.6950 111.5(20) 110.5012 110.2108
4503 20.6986 111.4(20) 110.4836 110.1965
4504 20.7022 110.1(20) 110.4660 110.1821
4505 20.7058 109.6(20) 110.4486 110.1678
4506 20.7094 108.5(20) 110.4311 110.1535
4507 20.7130 108.2(20) 110.4138 110.1391
4508 20.7166 108.5(20) 110.3964 110.1248
4509 20.7202 109.5(20) 110.3792 110.1104
4510 20.7238 110.6(20) 110.3619 110.0961
4511 20.7274 109.7(20) 110.3448 110.0817
4512 20.7310 107.9(20) 110.3276 110.0674
4513 20.7346 109.9(20) 110.3105 110.0531
4514 20.7382 112.8(20) 110.2935 110.0387
4515 20.7418 112.6(20) 110.2765 110.0244
4516 20.7454 112.3(20) 110.2595 110.0100
4517 20.7490 107.8(20) 110.2426 109.9957
4518 20.7526 114(2) 110.2257 109.9813
4519 20.7562 109.1(20) 110.2089 109.9670
4520 20.7598 110.8(20) 110.1920 109.9527
4521 20.7634 110.6(20) 110.1753 109.9383
4522 20.7670 110.8(20) 110.1585 109.9240
4523 20.7706 109.9(20) 110.1418 109.9096
4524 20.7742 111.3(20) 110.1252 109.8953
4525 20.7778 111.0(20) 110.1086 109.8810
4526 20.7814 108.6(20) 110.0919 109.8666
4527 20.7850 108.9(20) 110.0754 109.8523
4528 20.7886 109.8(20) 110.0589 109.8379
4529 20.7922 107.9(20) 110.0424 109.8236
4530 20.7958 108(2) 110.0259 109.8092
4531 20.7994 111.9(20) 110.0095 109.7949
4532 20.8030 111(2) 109.9931 109.7806
4533 20.8066 107.9(20) 109.9767 109.7662
4534 20.8102 107.3(19) 109.9604 109.7519
4535 20.8138 108.7(20) 109.9440 109.7375
4536 20.8174 110.2(20) 109.9277 109.7232
4537 20.8210 107.2(19) 109.9115 109.7088
4538 20.8246 110.2(20) 109.8952 109.6945
4539 20.8282 112(2) 109.8790 109.6802
4540 20.8318 108.4(20) 109.8629 109.6658
4541 20.8354 110.0(20) 109.8467 109.6515
4542 20.8390 110(2) 109.8306 109.6371
4543 20.8426 110.6(20) 109.8145 109.6228
4544 20.8462 110.9(20) 109.7984 109.6084
4545 20.8498 108.5(20) 109.7823 109.5941
4546 20.8534 106.9(19) 109.7663 109.5798
4547 20.8570 108.3(20) 109.7503 109.5654
4548 20.8606 110.4(20) 109.7343 109.5511
4549 20.8642 108.4(20) 109.7183 109.5367
4550 20.8678 107.4(19) 109.7024 109.5224
4551 20.8714 109.6(20) 109.6864 109.5080
4552 20.8750 112.3(20) 109.6705 109.4937
4553 20.8786 112(2) 109.6546 109.4794
4554 20.8822 108.8(20) 109.6388 109.4650
4555 20.8858 109.0(20) 109.6229 109.4507
4556 20.8894 109.6(20) 109.6071 109.4363
4557 20.8930 107.9(20) 109.5913 109.4220
4558 20.8966 107.8(20) 109.5755 109.4076
4559 20.9002 109.0(20) 109.5597 109.3933
4560 20.9038 110.3(20) 109.5440 109.3790
4561 20.9074 110.7(20) 109.5283 109.3646
4562 20.9110 110.3(20) 109.5125 109.3503
4563 20.9146 109(3) 109.4968 109.3359
4564 20.9182 107.9(20) 109.4812 109.3216
4565 20.9218 109.3(20) 109.4655 109.3072
4566 20.9254 109.0(20) 109.4498 109.2929
4567 20.9290 108.3(20) 109.4342 109.2786
4568 20.9326 108.4(20) 109.4186 109.2642
4569 20.9362 105.5(19) 109.4030 109.2499
4570 20.9398 106.8(19) 109.3874 109.2355
4571 20.9434 109.2(20) 109.3718 109.2212
4572 20.9470 108.8(20) 109.3563 109.2068
4573 20.9506 109.0(20) 109.3407 109.1925
4574 20.9542 109.2(20) 109.3252 109.1782
4575 20.9578 108.9(20) 109.3097 109.1638
4576 20.9614 108.2(20) 109.2942 109.1495
4577 20.9650 106.7(19) 109.2787 109.1351
4578 20.9686 107.3(19) 109.2632 109.1208
4579 20.9722 109.7(20) 109.2478 109.1064
4580 20.9758 110.0(20) 109.2323 109.0921
4581 20.9794 108.8(20) 109.2169 109.0778
4582 20.9830 108.2(20) 109.2015 109.0634
4583 20.9866 110.6(20) 109.1861 109.0491
4584 20.9902 108(2) 109.1707 109.0347
4585 20.9938 109.2(20) 109.1553 109.0204
4586 20.9974 112(2) 109.1399 109.0061
4587 21.0010 108.5(20) 109.1246 108.9917
4588 21.0046 106.2(19) 109.1092 108.9774
4589 21.0082 109.1(20) 109.0939 108.9630
4590 21.0118 108.2(20) 109.0786 108.9487
4591 21.0154 107.0(19) 109.0633 108.9343
4592 21.0190 106.8(19) 109.0480 108.9200
4593 21.0226 108.2(20) 109.0327 108.9056
4594 21.0262 110.6(20) 109.0174 108.8913
4595 21.0298 109.9(20) 109.0021 108.8770
4596 21.0334 108.8(20) 108.9868 108.8626
4597 21.0370 110.2(20) 108.9716 108.8483
4598 21.0406 110.6(20) 108.9564 108.8339
4599 21.0442 109.2(20) 108.9566 108.8196
4600 21.0478 109.3(20) 108.9415 108.8053
4601 21.0514 109.8(20) 108.9264 108.7909
4602 21.0550 109.9(20) 108.9112 108.7766
4603 21.0586 111.3(20) 108.8961 108.7622
4604 21.0622 111(2) 108.9171 108.7479
4605 21.0658 111(2) 108.9022 108.7335
4606 21.0694 108.1(20) 108.8873 108.7192
4607 21.0730 107.8(20) 108.8724 108.7049
4608 21.0766 106.0(19) 108.8575 108.6905
4609 21.0802 109.2(20) 108.8426 108.6762
4610 21.0838 109.7(20) 108.8277 108.6618
4611 21.0874 108.5(20) 108.8129 108.6475
4612 21.0910 107.2(20) 108.7980 108.6331
4613 21.0946 109.9(20) 108.7832 108.6188
4614 21.0982 110.0(20) 108.7684 108.6045
4615 21.1018 110.4(20) 108.7535 108.5901
4616 21.1054 110.1(20) 108.7387 108.5758
4617 21.1090 110.0(20) 108.7239 108.5614
4618 21.1126 112.0(20) 108.7092 108.5471
4619 21.1162 109.1(20) 108.6944 108.5327
4620 21.1198 107.3(20) 108.6796 108.5184
4621 21.1234 108.4(20) 108.6649 108.5041
4622 21.1270 110.7(20) 108.6501 108.4897
4623 21.1306 111.1(20) 108.6354 108.4754
4624 21.1342 108.6(20) 108.6206 108.4610
4625 21.1378 108.5(20) 108.6059 108.4467
4626 21.1414 110.0(20) 108.5912 108.4324
4627 21.1450 109.3(20) 108.5765 108.4180
4628 21.1486 109.9(20) 108.5618 108.4037
4629 21.1522 109.5(20) 108.5471 108.3893
4630 21.1558 109.4(20) 108.5324 108.3750
4631 21.1594 111.5(20) 108.5178 108.3606
4632 21.1630 105.4(19) 108.5031 108.3463
4633 21.1666 107.6(20) 108.4885 108.3319
4634 21.1702 111(2) 108.4738 108.3176
4635 21.1738 110.0(20) 108.4592 108.3033
4636 21.1774 108.2(20) 108.4446 108.2889
4637 21.1810 108.0(20) 108.4300 108.2746
4638 21.1846 107.3(20) 108.4154 108.2602
4639 21.1882 108.6(20) 108.4007 108.2459
4640 21.1918 106.9(20) 108.3862 108.2316
4641 21.1954 107.0(19) 108.3716 108.2172
4642 21.1990 106.4(19) 108.3570 108.2029
4643 21.2026 105.9(19) 108.3424 108.1885
4644 21.2062 107(2) 108.3279 108.1742
4645 21.2098 110(2) 108.3133 108.1598
4646 21.2134 109.8(20) 108.2988 108.1455
4647 21.2170 108.5(20) 108.2843 108.1312
4648 21.2206 109.9(20) 108.2697 108.1168
4649 21.2242 110.4(20) 108.2552 108.1025
4650 21.2278 108.6(20) 108.2407 108.0881
4651 21.2314 106.9(20) 108.2262 108.0738
4652 21.2350 107.8(20) 108.2117 108.0594
4653 21.2386 107.4(20) 108.1972 108.0451
4654 21.2422 106.6(19) 108.1828 108.0308
4655 21.2458 109.3(20) 108.1683 108.0164
4656 21.2494 106.1(19) 108.1538 108.0021
4657 21.2530 106.7(19) 108.1394 107.9877
4658 21.2566 104.8(19) 108.1249 107.9734
4659 21.2602 109(2) 108.1105 107.9590
4660 21.2638 105.1(19) 108.0961 107.9447
4661 21.2674 104.2(19) 108.0816 107.9304
4662 21.2710 107(2) 108.0672 107.9160
4663 21.2746 108.8(20) 108.0528 107.9017
4664 21.2782 104.9(19) 108.0384 107.8873
4665 21.2818 103.4(19) 108.0240 107.8730
4666 21.2854 104.6(19) 108.0097 107.8586
4667 21.2890 107.9(20) 107.9953 107.8443
4668 21.2926 109.0(20) 107.9809 107.8300
4669 21.2962 108.1(20) 107.9666 107.8156
4670 21.2998 107.0(19) 107.9522 107.8013
4671 21.3034 107.0(19) 107.9379 107.7869
4672 21.3070 109.5(20) 107.9235 107.7726
4673 21.3106 110.2(20) 107.9092 107.7582
4674 21.3142 107.3(20) 107.8949 107.7439
4675 21.3178 106(2) 107.8806 107.7296
4676 21.3214 107.5(20) 107.8663 107.7152
4677 21.3250 107.9(20) 107.8556 107.7009
4678 21.3286 105.6(19) 107.8413 107.6865
4679 21.3322 107.7(20) 107.8270 107.6722
4680 21.3358 110.4(20) 107.8128 107.6578
4681 21.3394 107.8(20) 107.7985 107.6435
4682 21.3430 105.7(19) 107.7843 107.6292
4683 21.3466 107.8(20) 107.7701 107.6148
4684 21.3502 105.2(19) 107.7559 107.6005
4685 21.3538 112(2) 107.7417 107.5861
4686 21.3574 108(2) 107.7275 107.5718
4687 21.3610 106.7(20) 107.7133 107.5574
4688 21.3646 107.1(20) 107.6991 107.5431
4689 21.3682 106.7(20) 107.6849 107.5288
4690 21.3718 106.2(19) 107.6707 107.5144
4691 21.3754 107.2(20) 107.6566 107.5001
4692 21.3790 106.6(19) 107.6424 107.4857
4693 21.3826 105.3(19) 107.6283 107.4714
4694 21.3862 107.7(20) 107.6142 107.4570
4695 21.3898 111.0(20) 107.6000 107.4427
4696 21.3934 108.9(20) 107.5409 107.4284
4697 21.3970 107.5(20) 107.5271 107.4140
4698 21.4006 108.6(20) 107.5132 107.3997
4699 21.4042 109.1(20) 107.4994 107.3853
4700 21.4078 106.6(20) 107.4855 107.3710
4701 21.4114 106.9(20) 107.4717 107.3567
4702 21.4150 105.9(20) 107.4579 107.3423
4703 21.4186 108.1(20) 107.4236 107.3280
4704 21.4222 106.7(19) 107.4099 107.3136
4705 21.4258 108.6(20) 107.3962 107.2993
4706 21.4294 112(2) 107.3825 107.2849
4707 21.4330 104.7(19) 107.3688 107.2706
4708 21.4366 108.7(20) 107.3552 107.2562
4709 21.4402 109.8(20) 107.3415 107.2419
4710 21.4438 109.8(20) 107.3279 107.2276
4711 21.4474 109.3(20) 107.3142 107.2132
4712 21.4510 108.7(20) 107.3006 107.1989
4713 21.4546 106.2(20) 107.2870 107.1845
4714 21.4582 105.6(19) 107.2734 107.1702
4715 21.4618 107.4(20) 107.2598 107.1559
4716 21.4654 108.6(20) 107.2462 107.1415
4717 21.4690 108.4(20) 107.2326 107.1272
4718 21.4726 109.1(20) 107.2191 107.1128
4719 21.4762 111.8(20) 107.2055 107.0985
4720 21.4798 110.1(20) 107.1920 107.0841
4721 21.4834 107.2(20) 107.1785 107.0698
4722 21.4870 108.3(20) 107.1650 107.0555
4723 21.4906 107.4(20) 107.1515 107.0411
4724 21.4942 107.9(20) 107.1381 107.0268
4725 21.4978 107.9(20) 107.1246 107.0124
4726 21.5014 110.2(20) 107.1113 106.9981
4727 21.5050 106.5(20) 107.0979 106.9837
4728 21.5086 112(2) 107.0846 106.9694
4729 21.5122 109(2) 107.0714 106.9551
4730 21.5158 109.1(20) 107.0582 106.9407
4731 21.5194 113(2) 107.0450 106.9264
4732 21.5230 109.7(20) 107.0320 106.9120
4733 21.5266 111.2(20) 107.0191 106.8977
4734 21.5302 108.1(20) 107.0062 106.8833
4735 21.5338 109.2(20) 106.9935 106.8690
4736 21.5374 111.7(20) 106.9809 106.8547
4737 21.5410 113(2) 106.9685 106.8403
4738 21.5446 113(2) 106.9562 106.8260
4739 21.5482 111.2(20) 106.9441 106.8116
4740 21.5518 112(2) 106.9322 106.7973
4741 21.5554 114(2) 106.9205 106.7830
4742 21.5590 113(2) 106.9090 106.7686
4743 21.5626 110.7(20) 106.8977 106.7543
4744 21.5662 110.5(20) 106.8867 106.7399
4745 21.5698 115(2) 106.8758 106.7256
4746 21.5734 119(2) 106.8652 106.7112
4747 21.5770 116(2) 106.8548 106.6969
4748 21.5806 115(2) 106.8445 106.6825
4749 21.5842 117(2) 106.8343 106.6682
4750 21.5878 116(2) 106.8242 106.6539
4751 21.5914 121(2) 106.8142 106.6395
4752 21.5950 118(2) 106.8041 106.6252
4753 21.5986 119(2) 106.7940 106.6108
4754 21.6022 120(2) 106.7836 106.5965
4755 21.6058 119(2) 106.7731 106.5821
4756 21.6094 121(2) 106.7621 106.5678
4757 21.6130 125(2) 106.7507 106.5535
4758 21.6166 125(2) 106.7388 106.5391
4759 21.6202 122(2) 106.7263 106.5248
4760 21.6238 125(2) 106.7132 106.5104
4761 21.6274 124(2) 106.6994 106.4961
4762 21.6310 124(2) 106.6851 106.4818
4763 21.6346 125(2) 106.6702 106.4674
4764 21.6382 121(2) 106.6548 106.4531
4765 21.6418 120(2) 106.6390 106.4387
4766 21.6454 121(2) 106.6230 106.4244
4767 21.6490 119(2) 106.6067 106.4100
4768 21.6526 118(2) 106.5903 106.3957
4769 21.6562 118(2) 106.5739 106.3813
4770 21.6598 118(2) 106.5575 106.3670
4771 21.6634 117(2) 106.5412 106.3527
4772 21.6670 115(2) 106.5250 106.3383
4773 21.6706 117(2) 106.5089 106.3240
4774 21.6742 109.6(20) 106.4930 106.3096
4775 21.6778 113(2) 106.4774 106.2953
4776 21.6814 108.1(20) 106.4619 106.2810
4777 21.6850 110.0(20) 106.4467 106.2666
4778 21.6886 109.8(20) 106.4317 106.2523
4779 21.6922 107.6(20) 106.4169 106.2379
4780 21.6958 109.0(20) 106.4023 106.2236
4781 21.6994 108.9(20) 106.3879 106.2092
4782 21.7030 110.2(20) 106.3738 106.1949
4783 21.7066 110.7(20) 106.3598 106.1806
4784 21.7102 109.8(20) 106.3459 106.1662
4785 21.7138 109.8(20) 106.3323 106.1519
4786 21.7174 109.4(20) 106.3187 106.1375
4787 21.7210 109.1(20) 106.3053 106.1232
4788 21.7246 109.1(20) 106.2920 106.1088
4789 21.7282 107.9(20) 106.2788 106.0945
4790 21.7318 108.5(20) 106.2657 106.0802
4791 21.7354 109.9(20) 106.2526 106.0658
4792 21.7390 108.6(20) 106.2396 106.0515
4793 21.7426 108.6(20) 106.2267 106.0371
4794 21.7462 107.6(20) 106.2138 106.0228
4795 21.7498 105.4(19) 106.2010 106.0084
4796 21.7534 108.4(20) 106.1883 105.9941
4797 21.7570 103(2) 106.1755 105.9798
4798 21.7606 104.9(19) 106.1628 105.9654
4799 21.7642 105.8(20) 106.1502 105.9511
4800 21.7678 106.7(20) 106.1376 105.9367
4801 21.7714 106.7(20) 106.1250 105.9224
4802 21.7750 109.7(20) 106.1125 105.9081
4803 21.7786 105.8(20) 106.0999 105.8937
4804 21.7822 106.7(20) 106.0875 105.8794
4805 21.7858 108.7(20) 106.0750 105.8650
4806 21.7894 108.3(20) 106.0626 105.8507
4807 21.7930 105.3(19) 106.0502 105.8363
4808 21.7966 108(2) 106.0379 105.8220
4809 21.8002 109.0(20) 106.0256 105.8076
4810 21.8038 107.5(20) 106.0133 105.7933
4811 21.8074 108.6(20) 106.0010 105.7790
4812 21.8110 107.5(20) 105.9888 105.7646
4813 21.8146 106.1(19) 105.9766 105.7503
4814 21.8182 108.1(20) 105.9645 105.7359
4815 21.8218 108.0(20) 105.9524 105.7216
4816 21.8254 108(2) 105.9403 105.7073
4817 21.8290 108.0(20) 105.9283 105.6929
4818 21.8326 108.1(20) 105.9163 105.6786
4819 21.8362 106.2(19) 105.9043 105.6642
4820 21.8398 103.4(19) 105.8924 105.6499
4821 21.8434 105.4(19) 105.8805 105.6355
4822 21.8470 101.2(19) 105.8687 105.6212
4823 21.8506 104.4(19) 105.8569 105.6068
4824 21.8542 104.4(19) 105.8452 105.5925
4825 21.8578 107.8(20) 105.8335 105.5782
4826 21.8614 107.6(20) 105.8218 105.5638
4827 21.8650 107.1(20) 105.8102 105.5495
4828 21.8686 105.9(19) 105.7986 105.5351
4829 21.8722 106.5(20) 105.7870 105.5208
4830 21.8758 106.6(20) 105.7756 105.5065
4831 21.8794 106.5(20) 105.7641 105.4921
4832 21.8830 105.4(19) 105.7527 105.4778
4833 21.8866 105.5(19) 105.7414 105.4634
4834 21.8902 107.6(20) 105.7301 105.4491
4835 21.8938 106.6(20) 105.7189 105.4347
4836 21.8974 105.3(19) 105.7077 105.4204
4837 21.9010 107.5(20) 105.6965 105.4061
4838 21.9046 105.0(19) 105.6855 105.3917
4839 21.9082 105.9(19) 105.6744 105.3774
4840 21.9118 106.8(20) 105.6635 105.3630
4841 21.9154 104.5(19) 105.6526 105.3487
4842 21.9190 105.8(20) 105.6417 105.3343
4843 21.9226 105.9(19) 105.6310 105.3200
4844 21.9262 104(3) 105.6202 105.3057
4845 21.9298 109.2(20) 105.6096 105.2913
4846 21.9334 106.1(20) 105.5990 105.2770
4847 21.9370 105.4(19) 105.5885 105.2626
4848 21.9406 104.9(19) 105.5780 105.2483
4849 21.9442 106.2(20) 105.5677 105.2339
4850 21.9478 104.7(19) 105.5574 105.2196
4851 21.9514 104.9(19) 105.5471 105.2053
4852 21.9550 105.3(19) 105.5370 105.1909
4853 21.9586 105.2(19) 105.5269 105.1766
4854 21.9622 105.6(19) 105.5169 105.1622
4855 21.9658 105.1(19) 105.5070 105.1479
4856 21.9694 106(2) 105.4972 105.1335
4857 21.9730 106.8(20) 105.4874 105.1192
4858 21.9766 106.8(20) 105.4778 105.1049
4859 21.9802 106(2) 105.4682 105.0905
4860 21.9838 104.7(19) 105.4588 105.0762
4861 21.9874 105.6(19) 105.4494 105.0618
4862 21.9910 103.8(19) 105.4401 105.0475
4863 21.9946 104.4(19) 105.4310 105.0331
4864 21.9982 108.4(20) 105.4219 105.0188
4865 22.0018 103.4(19) 105.4129 105.0045
4866 22.0054 104.7(19) 105.4041 104.9901
4867 22.0090 106(2) 105.3953 104.9758
4868 22.0126 106.0(19) 105.3867 104.9614
4869 22.0162 106.6(20) 105.3782 104.9471
4870 22.0198 102.6(19) 105.3698 104.9327
4871 22.0234 101.2(19) 105.3616 104.9184
4872 22.0270 101.9(19) 105.3534 104.9041
4873 22.0306 105.1(19) 105.3454 104.8897
4874 22.0342 106(2) 105.3376 104.8754
4875 22.0378 107.0(20) 105.3298 104.8610
4876 22.0414 106.1(19) 105.3223 104.8467
4877 22.0450 105.2(19) 105.3148 104.8324
4878 22.0486 104.7(19) 105.3075 104.8180
4879 22.0522 104.2(19) 105.3004 104.8037
4880 22.0558 105.4(19) 105.2934 104.7893
4881 22.0594 107.5(20) 105.2867 104.7750
4882 22.0630 107.2(20) 105.2800 104.7606
4883 22.0666 107.0(20) 105.2736 104.7463
4884 22.0702 108.4(20) 105.2673 104.7319
4885 22.0738 105.3(19) 105.2612 104.7176
4886 22.0774 104.1(19) 105.2553 104.7033
4887 22.0810 105.0(19) 105.2497 104.6889
4888 22.0846 104.4(19) 105.2442 104.6746
4889 22.0882 103.8(19) 105.2389 104.6602
4890 22.0918 106.4(19) 105.2338 104.6459
4891 22.0954 105.9(19) 105.2290 104.6316
4892 22.0990 103.5(19) 105.2233 104.6161
4893 22.1026 103.1(19) 105.2133 104.5961
4894 22.1062 106.1(19) 105.2036 104.5761
4895 22.1098 105.8(19) 105.1940 104.5561
4896 22.1134 104.7(19) 105.1848 104.5361
4897 22.1170 105.2(19) 105.1758 104.5160
4898 22.1206 107.2(20) 105.1671 104.4960
4899 22.1242 106.0(19) 105.1587 104.4760
4900 22.1278 105.4(19) 105.1507 104.4560
4901 22.1314 106.0(19) 105.1429 104.4360
4902 22.1350 103.1(19) 105.1354 104.4160
4903 22.1386 103.4(19) 105.1315 104.3960
4904 22.1422 105(2) 105.1247 104.3760
4905 22.1458 102(3) 105.1183 104.3560
4906 22.1494 104(2) 105.1123 104.3359
4907 22.1530 105.3(19) 105.1067 104.3159
4908 22.1566 105.7(19) 105.1015 104.2959
4909 22.1602 104.8(19) 105.0968 104.2759
4910 22.1638 105.6(19) 105.0924 104.2559
4911 22.1674 105.7(19) 105.0885 104.2359
4912 22.1710 103.8(19) 105.0851 104.2159
4913 22.1746 103.5(19) 105.0822 104.1959
4914 22.1782 103.9(19) 105.0797 104.1758
4915 22.1818 103.8(19) 105.0778 104.1558
4916 22.1854 105.0(19) 105.0765 104.1358
4917 22.1890 107.7(20) 105.0757 104.1158
4918 22.1926 102.5(19) 105.0756 104.0958
4919 22.1962 105.7(19) 105.0760 104.0758
4920 22.1998 104.3(19) 105.0771 104.0558
4921 22.2034 107.0(20) 105.0789 104.0358
4922 22.2070 106.9(20) 105.0814 104.0158
4923 22.2106 106.0(19) 105.0846 103.9957
4924 22.2142 106.0(19) 105.0886 103.9757
4925 22.2178 105(2) 105.0934 103.9557
4926 22.2214 103(2) 105.0990 103.9357
4927 22.2250 102.4(19) 105.1055 103.9157
4928 22.2286 104.3(19) 105.1129 103.8957
4929 22.2322 103.8(19) 105.1213 103.8757
4930 22.2358 103.0(19) 105.1307 103.8557
4931 22.2394 105.5(19) 105.1411 103.8357
4932 22.2430 104.9(19) 105.1527 103.8156
4933 22.2466 105.1(19) 105.1654 103.7956
4934 22.2502 105.3(19) 105.1793 103.7756
4935 22.2538 105.3(19) 105.1944 103.7556
4936 22.2574 107.6(20) 105.2110 103.7356
4937 22.2610 104.9(19) 105.2289 103.7156
4938 22.2646 106.1(19) 105.2483 103.6956
4939 22.2682 103.8(19) 105.2692 103.6756
4940 22.2718 103(2) 105.2918 103.6555
4941 22.2754 103.6(19) 105.3161 103.6355
4942 22.2790 104.4(19) 105.3423 103.6155
4943 22.2826 104.9(19) 105.3703 103.5955
4944 22.2862 103.8(19) 105.4004 103.5755
4945 22.2898 104.0(19) 105.4326 103.5555
4946 22.2934 103.4(19) 105.4671 103.5355
4947 22.2970 104.7(19) 105.5040 103.5155
4948 22.3006 104.9(19) 105.5434 103.4954
4949 22.3042 106.0(19) 105.5855 103.4754
4950 22.3078 106.9(19) 105.6304 103.4554
4951 22.3114 107.3(19) 105.6784 103.4354
4952 22.3150 107.6(19) 105.7296 103.4154
4953 22.3186 105.5(19) 105.7842 103.3954
4954 22.3222 106.0(19) 105.8425 103.3754
4955 22.3258 107.8(20) 105.9046 103.3554
4956 22.3294 108(2) 105.9709 103.3354
4957 22.3330 107.5(20) 106.0417 103.3153
4958 22.3366 108.5(20) 106.1172 103.2953
4959 22.3402 109.4(20) 106.1979 103.2753
4960 22.3438 107.3(19) 106.2841 103.2553
4961 22.3474 109(3) 106.3763 103.2353
4962 22.3510 108.5(20) 106.4750 103.2153
4963 22.3546 108.1(20) 106.5808 103.1953
4964 22.3582 111.3(20) 106.6946 103.1753
4965 22.3618 113(2) 106.8169 103.1553
4966 22.3654 109.2(20) 106.9491 103.1352
4967 22.3690 109.9(20) 107.0920 103.1152
4968 22.3726 109.7(20) 107.2473 103.0952
4969 22.3762 111(2) 107.4166 103.0752
4970 22.3798 112.7(20) 107.6022 103.0552
4971 22.3834 115(2) 107.8068 103.0352
4972 22.3870 116(2) 108.0333 103.0152
4973 22.3906 114(2) 108.2860 102.9952
4974 22.3942 116(2) 108.5693 102.9751
4975 22.3978 118(2) 108.8893 102.9551
4976 22.4014 118(2) 109.2527 102.9351
4977 22.4050 119(2) 109.6680 102.9151
4978 22.4086 116(2) 110.1447 102.8951
4979 22.4122 115(2) 110.6945 102.8751
4980 22.4158 121(3) 111.3310 102.8551
4981 22.4194 120(3) 112.0691 102.8351
4982 22.4230 122(2) 112.9269 102.8150
4983 22.4266 121(2) 113.9232 102.7950
4984 22.4302 125(2) 115.0808 102.7750
4985 22.4338 128(2) 116.4220 102.7550
4986 22.4374 128(2) 117.9727 102.7350
4987 22.4410 131(2) 119.7607 102.7150
4988 22.4446 135(2) 121.8113 102.6950
4989 22.4482 136(2) 124.1544 102.6750
4990 22.4518 136(2) 126.8144 102.6550
4991 22.4554 139(2) 129.8192 102.6349
4992 22.4590 141(2) 133.1882 102.6149
4993 22.4626 143(2) 136.9433 102.5949
4994 22.4662 147(2) 141.0936 102.5749
4995 22.4698 152(3) 145.6477 102.5549
4996 22.4734 154(2) 150.6066 102.5349
4997 22.4770 157(2) 155.9538 102.5149
4998 22.4806 165(3) 161.6730 102.4949
4999 22.4842 173(3) 167.7236 102.4749
5000 22.4878 177(3) 174.0637 102.4548
5001 22.4914 179(3) 180.6233 102.4348
5002 22.4950 187(3) 187.3268 102.4148
5003 22.4986 191(3) 194.0822 102.3948
5004 22.5022 201(3) 200.7708 102.3748
5005 22.5058 203(3) 207.2734 102.3548
5006 22.5094 210(3) 213.4445 102.3348
5007 22.5130 220(3) 219.1442 102.3148
5008 22.5166 227(3) 224.2176 102.2947
5009 22.5202 230(3) 228.5229 102.2747
5010 22.5238 238(3) 231.9281 102.2547
5011 22.5274 243(3) 234.3145 102.2347
5012 22.5310 245(3) 235.5956 102.2147
5013 22.5346 249(3) 235.7147 102.1947
5014 22.5382 255(3) 234.6565 102.1747
5015 22.5418 254(3) 232.4505 102.1547
5016 22.5454 249(3) 229.1659 102.1346
5017 22.5490 245(3) 224.9165 102.1146
5018 22.5526 242(3) 219.8403 102.0946
5019 22.5562 237(3) 214.0910 102.0746
5020 22.5598 232(3) 207.8380 102.0546
5021 22.5634 220(4) 201.2341 102.0346
5022 22.5670 209(3) 194.4345 102.0146
5023 22.5706 205(3) 187.5649 101.9946
5024 22.5742 196(3) 180.7481 101.9746
5025 22.5778 188(3) 174.0777 101.9546
5026 22.5814 180(3) 167.6305 101.9345
5027 22.5850 172(3) 161.4772 101.9145
5028 22.5886 168(2) 155.6599 101.8945
5029 22.5922 162(2) 150.2198 101.8745
5030 22.5958 157(3) 145.1738 101.8545
5031 22.5994 153(2) 140.5387 101.8345
5032 22.6030 149(2) 136.3115 101.8145
5033 22.6066 143(2) 132.4906 101.7944
5034 22.6102 138(2) 129.0603 101.7744
5035 22.6138 137(2) 126.0004 101.7544
5036 22.6174 137(2) 123.2915 101.7344
5037 22.6210 130(2) 120.9050 101.7144
5038 22.6246 129(2) 118.8158 101.6944
5039 22.6282 128(2) 116.9935 101.6744
5040 22.6318 123(2) 115.4120 101.6544
5041 22.6354 120(2) 114.0430 101.6344
5042 22.6390 120(2) 112.8598 101.6143
5043 22.6426 120(2) 111.8396 101.5943
5044 22.6462 119(2) 110.9591 101.5743
5045 22.6498 118(2) 110.1993 101.5543
5046 22.6534 117(2) 109.5416 101.5343
5047 22.6570 118(2) 108.9713 101.5143
5048 22.6606 117(2) 108.4742 101.4943
5049 22.6642 114(2) 108.0394 101.4743
5050 22.6678 114(2) 107.6570 101.4543
5051 22.6714 114(2) 107.3186 101.4342
5052 22.6750 116(2) 107.0181 101.4142
5053 22.6786 114(2) 106.7496 101.3942
5054 22.6822 115(2) 106.5091 101.3742
5055 22.6858 107.5(19) 106.2930 101.3542
5056 22.6894 112.2(20) 106.0989 101.3342
5057 22.6930 111.9(20) 105.9248 101.3142
5058 22.6966 110.3(20) 105.7692 101.2942
5059 22.7002 111.2(20) 105.6316 101.2741
5060 22.7038 113(2) 105.5115 101.2541
5061 22.7074 114(2) 105.4091 101.2341
5062 22.7110 108(2) 105.3246 101.2141
5063 22.7146 107(2) 105.2590 101.1941
5064 22.7182 108.7(20) 105.2131 101.1741
5065 22.7218 109.8(20) 105.1884 101.1541
5066 22.7254 110.3(20) 105.1860 101.1341
5067 22.7290 109.0(20) 105.2078 101.1141
5068 22.7326 108.7(20) 105.2552 101.0940
5069 22.7362 112(2) 105.3301 101.0740
5070 22.7398 115(2) 105.4339 101.0540
5071 22.7434 111.2(20) 105.5681 101.0340
5072 22.7470 112(2) 105.7340 101.0140
5073 22.7506 112.8(20) 105.9322 100.9940
5074 22.7542 115(2) 106.1635 100.9740
5075 22.7578 116(2) 106.4273 100.9540
5076 22.7614 118(2) 106.7233 100.9339
5077 22.7650 117(2) 107.0494 100.9139
5078 22.7686 122(2) 107.4037 100.8939
5079 22.7722 122(2) 107.7824 100.8739
5080 22.7758 125(2) 108.1818 100.8539
5081 22.7794 123(2) 108.5958 100.8339
5082 22.7830 127(2) 109.0182 100.8139
5083 22.7866 127(2) 109.4412 100.7939
5084 22.7902 128(2) 109.8554 100.7738
5085 22.7938 132(2) 110.2506 100.7538
5086 22.7974 132(2) 110.6151 100.7338
5087 22.8010 134(2) 110.9367 100.7138
5088 22.8046 136(2) 111.2026 100.6938
5089 22.8082 136(2) 111.4009 100.6738
5090 22.8118 137(2) 111.5212 100.6538
5091 22.8154 138(2) 111.5558 100.6338
5092 22.8190 139(2) 111.5004 100.6138
5093 22.8226 138(2) 111.3552 100.5938
5094 22.8262 135(2) 111.1243 100.5737
5095 22.8298 134(2) 110.8154 100.5537
5096 22.8334 133(2) 110.4391 100.5337
5097 22.8370 131(2) 110.0068 100.5137
5098 22.8406 131(2) 109.5316 100.4937
5099 22.8442 130(2) 109.0252 100.4737
5100 22.8478 129(2) 108.4995 100.4537
5101 22.8514 123(2) 107.9641 100.4336
5102 22.8550 122(3) 107.4285 100.4136
5103 22.8586 121(2) 106.8999 100.3936
5104 22.8622 114(2) 106.3853 100.3736
5105 22.8658 119(2) 105.8894 100.3536
5106 22.8694 116(2) 105.4163 100.3336
5107 22.8730 113(2) 104.9695 100.3136
5108 22.8766 110.6(20) 104.5506 100.2936
5109 22.8802 111.1(20) 104.1615 100.2736
5110 22.8838 109.9(20) 103.8023 100.2535
5111 22.8874 108.7(20) 103.4733 100.2335
5112 22.8910 108.9(20) 103.1736 100.2135
5113 22.8946 107.7(20) 102.9019 100.1935
5114 22.8982 106.7(20) 102.6571 100.1735
5115 22.9018 106.7(19) 102.4372 100.1535
5116 22.9054 107.2(20) 102.2403 100.1335
5117 22.9090 108.0(20) 102.0643 100.1135
5118 22.9126 105.9(19) 101.9073 100.0935
5119 22.9162 104.2(19) 101.7671 100.0734
5120 22.9198 106.3(19) 101.6418 100.0534
5121 22.9234 103.8(19) 101.5296 100.0334
5122 22.9270 104.6(19) 101.4286 100.0134
5123 22.9306 102.4(19) 101.3375 99.9934
5124 22.9342 102.3(19) 101.2547 99.9734
5125 22.9378 104.8(19) 101.1791 99.9534
5126 22.9414 104.9(19) 101.1095 99.9333
5127 22.9450 103.0(19) 101.0451 99.9133
5128 22.9486 100.0(19) 100.9851 99.8933
5129 22.9522 103.1(19) 100.9287 99.8733
5130 22.9558 101.0(19) 100.8754 99.8533
5131 22.9594 102.5(19) 100.8248 99.8333
5132 22.9630 100.9(19) 100.7764 99.8133
5133 22.9666 100.8(19) 100.7300 99.7933
5134 22.9702 104(2) 100.6853 99.7733
5135 22.9738 100(2) 100.6420 99.7533
5136 22.9774 98.3(19) 100.6001 99.7332
5137 22.9810 99.8(19) 100.5592 99.7132
5138 22.9846 100.4(19) 100.5194 99.6932
5139 22.9882 100.8(19) 100.4806 99.6732
5140 22.9918 101.4(19) 100.4426 99.6532
5141 22.9954 101.8(19) 100.4053 99.6332
5142 22.9990 101.4(19) 100.3688 99.6132
5143 23.0026 101.6(19) 100.3330 99.5932
5144 23.0062 101.5(19) 100.2978 99.5732
5145 23.0098 99.3(19) 100.2631 99.5531
5146 23.0134 101.8(19) 100.2290 99.5331
5147 23.0170 99.5(19) 100.1954 99.5131
5148 23.0206 101.7(19) 100.1624 99.4931
5149 23.0242 100(3) 100.1297 99.4731
5150 23.0278 98.3(19) 100.0975 99.4531
5151 23.0314 99.3(19) 100.0657 99.4331
5152 23.0350 102.0(19) 100.0344 99.4130
5153 23.0386 99.8(19) 100.0034 99.3930
5154 23.0422 102.8(19) 99.9727 99.3730
5155 23.0458 101(2) 99.9424 99.3530
5156 23.0494 100.5(19) 99.9124 99.3330
5157 23.0530 100.3(19) 99.8827 99.3130
5158 23.0566 98.4(19) 99.8533 99.2930
5159 23.0602 97.5(19) 99.8242 99.2730
5160 23.0638 96.9(19) 99.7954 99.2530
5161 23.0674 97.2(19) 99.7668 99.2329
5162 23.0710 99.1(19) 99.7385 99.2129
5163 23.0746 98.9(19) 99.7104 99.1929
5164 23.0782 99.2(20) 99.6826 99.1729
5165 23.0818 103.3(19) 99.6550 99.1529
5166 23.0854 102.9(19) 99.6276 99.1329
5167 23.0890 100.5(19) 99.6004 99.1129
5168 23.0926 98.9(19) 99.5734 99.0929
5169 23.0962 97.6(19) 99.5466 99.0729
5170 23.0998 98.2(19) 99.5199 99.0528
5171 23.1034 101.8(19) 99.4935 99.0328
5172 23.1070 101.7(19) 99.4672 99.0128
5173 23.1106 97.2(19) 99.4411 98.9928
5174 23.1142 100.8(19) 99.4151 98.9728
5175 23.1178 99.1(19) 99.3893 98.9528
5176 23.1214 99.2(19) 99.3636 98.9328
5177 23.1250 100.8(19) 99.3381 98.9128
5178 23.1286 97.4(19) 99.3128 98.8927
5179 23.1322 99.3(19) 99.2875 98.8727
5180 23.1358 99.1(19) 99.2624 98.8527
5181 23.1394 99.9(19) 99.2374 98.8327
5182 23.1430 99.4(19) 99.2126 98.8127
5183 23.1466 98.2(19) 99.1879 98.7927
5184 23.1502 98.4(19) 99.1632 98.7727
5185 23.1538 100.3(19) 99.1387 98.7527
5186 23.1574 101.1(19) 99.1143 98.7327
5187 23.1610 99.9(19) 99.0901 98.7126
5188 23.1646 99.5(19) 99.0659 98.6926
5189 23.1682 98.4(19) 99.0418 98.6726
5190 23.1718 100.8(19) 99.0178 98.6526
5191 23.1754 103.7(19) 98.9939 98.6326
5192 23.1790 100.6(19) 98.9701 98.6126
5193 23.1826 100.5(19) 98.9464 98.5926
5194 23.1862 98.9(19) 98.9229 98.5726
5195 23.1898 102.3(19) 98.8993 98.5525
5196 23.1934 99(3) 98.8759 98.5325
5197 23.1970 100.0(19) 98.8526 98.5125
5198 23.2006 99.4(19) 98.8293 98.4925
5199 23.2042 98.8(19) 98.8061 98.4725
5200 23.2078 98.2(19) 98.7830 98.4525
5201 23.2114 97.5(19) 98.7600 98.4325
5202 23.2150 98.8(19) 98.7370 98.4125
5203 23.2186 97.4(19) 98.7142 98.3925
5204 23.2222 98.5(19) 98.6914 98.3724
5205 23.2258 98.7(19) 98.6687 98.3524
5206 23.2294 98.7(19) 98.6460 98.3324
5207 23.2330 100.6(19) 98.6234 98.3124
5208 23.2366 100.1(19) 98.6009 98.2924
5209 23.2402 98.0(19) 98.5785 98.2724
5210 23.2438 97.6(19) 98.5561 98.2524
5211 23.2474 98.4(19) 98.5338 98.2324
5212 23.2510 100.9(19) 98.5116 98.2123
5213 23.2546 100.5(20) 98.4894 98.1923
5214 23.2582 96.5(19) 98.4673 98.1723
5215 23.2618 99.0(19) 98.4452 98.1523
5216 23.2654 100.2(19) 98.4232 98.1323
5217 23.2690 99.7(19) 98.4013 98.1123
5218 23.2726 96.4(18) 98.3795 98.0923
5219 23.2762 96.6(19) 98.3577 98.0723
5220 23.2798 97.5(19) 98.3360 98.0522
5221 23.2834 100.8(19) 98.3143 98.0322
5222 23.2870 95.7(18) 98.2927 98.0122
5223 23.2906 93.8(18) 98.2711 97.9922
5224 23.2942 97.3(19) 98.2497 97.9722
5225 23.2978 97.7(19) 98.2283 97.9522
5226 23.3014 97.8(19) 98.2069 97.9322
5227 23.3050 97.9(19) 98.1856 97.9122
5228 23.3086 98.2(19) 98.1644 97.8922
5229 23.3122 98.4(19) 98.1432 97.8721
5230 23.3158 96.3(19) 98.1221 97.8521
5231 23.3194 97.7(19) 98.1011 97.8321
5232 23.3230 99.6(19) 98.0801 97.8121
5233 23.3266 97.4(19) 98.0592 97.7921
5234 23.3302 96.2(18) 98.0383 97.7721
5235 23.3338 97.2(19) 98.0176 97.7521
5236 23.3374 98.7(19) 97.9969 97.7321
5237 23.3410 97.5(19) 97.9762 97.7121
5238 23.3446 98.9(19) 97.9556 97.6920
5239 23.3482 99(2) 97.9351 97.6720
5240 23.3518 98.8(19) 97.9147 97.6520
5241 23.3554 98.4(19) 97.8944 97.6320
5242 23.3590 95.4(18) 97.8741 97.6120
5243 23.3626 99.7(19) 97.8539 97.5920
5244 23.3662 96(2) 97.8337 97.5720
5245 23.3698 98.0(19) 97.8137 97.5520
5246 23.3734 99.1(19) 97.7937 97.5319
5247 23.3770 98.8(19) 97.7738 97.5119
5248 23.3806 98.3(19) 97.7541 97.4919
5249 23.3842 96.2(19) 97.7344 97.4719
5250 23.3878 97(2) 97.7147 97.4519
5251 23.3914 96.8(19) 97.6952 97.4319
5252 23.3950 96.8(19) 97.6758 97.4119
5253 23.3986 98.0(19) 97.6565 97.3919
5254 23.4022 98.5(19) 97.6469 97.3718
5255 23.4058 97.3(19) 97.6279 97.3518
5256 23.4094 97.4(19) 97.6102 97.3318
5257 23.4130 98.0(19) 97.5914 97.3118
5258 23.4166 96.8(19) 97.5727 97.2918
5259 23.4202 97.3(19) 97.5541 97.2718
5260 23.4238 97.2(19) 97.5356 97.2518
5261 23.4274 94.0(18) 97.5173 97.2318
5262 23.4310 95.7(18) 97.4992 97.2118
5263 23.4346 97.8(19) 97.4831 97.1917
5264 23.4382 97.3(19) 97.4652 97.1717
5265 23.4418 96.6(19) 97.4476 97.1517
5266 23.4454 95.0(18) 97.4300 97.1317
5267 23.4490 96.1(18) 97.4127 97.1117
5268 23.4526 94.1(18) 97.3956 97.0917
5269 23.4562 96.4(19) 97.3787 97.0717
5270 23.4598 96(2) 97.3620 97.0517
5271 23.4634 97.3(19) 97.3455 97.0317
5272 23.4670 96.6(19) 97.3292 97.0116
5273 23.4706 99.4(19) 97.3132 96.9916
5274 23.4742 97.7(19) 97.2975 96.9716
5275 23.4778 98.5(19) 97.2821 96.9516
5276 23.4814 96.6(19) 97.2670 96.9316
5277 23.4850 95.2(18) 97.2522 96.9116
5278 23.4886 96.5(19) 97.2378 96.8916
5279 23.4922 97.2(19) 97.2237 96.8716
5280 23.4958 95.9(18) 97.2101 96.8515
5281 23.4994 96.6(19) 97.1969 96.8315
5282 23.5030 100.0(19) 97.1842 96.8115
5283 23.5066 100.0(19) 97.1720 96.7915
5284 23.5102 99.3(19) 97.1604 96.7715
5285 23.5138 96.3(19) 97.1495 96.7515
5286 23.5174 97.2(19) 97.1394 96.7315
5287 23.5210 99.4(19) 97.1301 96.7115
5288 23.5246 95.9(19) 97.1218 96.6915
5289 23.5282 97(2) 97.1146 96.6714
5290 23.5318 97(2) 97.1088 96.6514
5291 23.5354 94.0(18) 97.1045 96.6314
5292 23.5390 98.4(19) 97.1020 96.6114
5293 23.5426 96.1(18) 97.1018 96.5914
5294 23.5462 97(2) 97.1041 96.5714
5295 23.5498 94.5(18) 97.1095 96.5514
5296 23.5534 94.8(18) 97.1185 96.5314
5297 23.5570 97.2(19) 97.1318 96.5114
5298 23.5606 98.3(19) 97.1501 96.4913
5299 23.5642 99.9(19) 97.1745 96.4713
5300 23.5678 97(2) 97.2059 96.4513
5301 23.5714 95.8(18) 97.2454 96.4313
5302 23.5750 98.5(19) 97.2943 96.4113
5303 23.5786 97.7(19) 97.3540 96.3913
5304 23.5822 96.4(19) 97.4260 96.3713
5305 23.5858 97.6(19) 97.5118 96.3512
5306 23.5894 95.5(18) 97.6131 96.3312
5307 23.5930 95.1(18) 97.7316 96.3112
5308 23.5966 93.3(18) 97.8687 96.2912
5309 23.6002 96.1(18) 98.0262 96.2712
5310 23.6038 98.0(19) 98.2052 96.2512
5311 23.6074 95.6(18) 98.4071 96.2312
5312 23.6110 94.6(18) 98.6327 96.2112
5313 23.6146 93.8(18) 98.8825 96.1912
5314 23.6182 99.7(19) 99.1567 96.1711
5315 23.6218 95.1(18) 99.4548 96.1511
5316 23.6254 95.2(18) 99.7760 96.1311
5317 23.6290 97.6(19) 100.1184 96.1111
5318 23.6326 98.3(19) 100.4798 96.0911
5319 23.6362 95.6(18) 100.8574 96.0711
5320 23.6398 94.3(18) 101.2467 96.0511
5321 23.6434 93.2(18) 101.6434 96.0311
5322 23.6470 94.4(18) 102.0412 96.0111
5323 23.6506 97.4(19) 102.4339 95.9910
5324 23.6542 97.6(19) 102.8131 95.9710
5325 23.6578 97.1(19) 103.1705 95.9510
5326 23.6614 97.0(19) 103.4963 95.9310
5327 23.6650 96.6(19) 103.7806 95.9110
5328 23.6686 98.0(19) 104.0137 95.8910
5329 23.6722 98.7(19) 104.1863 95.8710
5330 23.6758 96.8(19) 104.2909 95.8510
5331 23.6794 98.1(19) 104.3223 95.8309
5332 23.6830 99.4(19) 104.2782 95.8109
5333 23.6866 98.8(19) 104.1597 95.7909
5334 23.6902 97.4(19) 103.9709 95.7709
5335 23.6938 96.6(19) 103.7185 95.7509
5336 23.6974 98.4(19) 103.4113 95.7309
5337 23.7010 96.0(18) 103.0588 95.7109
5338 23.7046 98(2) 102.6712 95.6909
5339 23.7082 100.3(19) 102.2579 95.6709
5340 23.7118 94.2(18) 101.8284 95.6508
5341 23.7154 96(2) 101.3905 95.6308
5342 23.7190 97.0(19) 100.9517 95.6108
5343 23.7226 97.2(19) 100.5179 95.5908
5344 23.7262 98.4(19) 100.0943 95.5708
5345 23.7298 99.4(19) 99.6853 95.5508
5346 23.7334 97.6(19) 99.2942 95.5308
5347 23.7370 97.2(19) 98.9238 95.5108
5348 23.7406 96.4(19) 98.5757 95.4907
5349 23.7442 94.6(18) 98.2514 95.4707
5350 23.7478 93.8(18) 97.9513 95.4507
5351 23.7514 95.3(18) 97.6754 95.4307
5352 23.7550 96.4(19) 97.4237 95.4107
5353 23.7586 94.9(18) 97.1950 95.3907
5354 23.7622 95.2(18) 96.9885 95.3707
5355 23.7658 96.7(19) 96.8027 95.3507
5356 23.7694 93.8(18) 96.6363 95.3307
5357 23.7730 93.8(18) 96.4875 95.3106
5358 23.7766 94.4(18) 96.3550 95.2906
5359 23.7802 94.3(18) 96.2368 95.2706
5360 23.7838 94.1(18) 96.1315 95.2506
5361 23.7874 98.0(19) 96.0376 95.2306
5362 23.7910 96.2(18) 95.9535 95.2106
5363 23.7946 93.8(18) 95.8781 95.1906
5364 23.7982 92.8(18) 95.8101 95.1706
5365 23.8018 94.4(18) 95.7484 95.1505
5366 23.8054 94(2) 95.6921 95.1305
5367 23.8090 95.0(18) 95.6404 95.1105
5368 23.8126 93.5(18) 95.5926 95.0905
5369 23.8162 93.8(18) 95.5480 95.0705
5370 23.8198 95(2) 95.5062 95.0505
5371 23.8234 97.2(19) 95.4666 95.0305
5372 23.8270 97(2) 95.4291 95.0105
5373 23.8306 94.7(20) 95.3932 94.9905
5374 23.8342 94.1(18) 95.3586 94.9704
5375 23.8378 95.6(18) 95.3253 94.9504
5376 23.8414 96.0(18) 95.2930 94.9304
5377 23.8450 93.0(18) 95.2616 94.9104
5378 23.8486 92.6(18) 95.2310 94.8904
5379 23.8522 96.6(18) 95.2011 94.8704
5380 23.8558 96.1(18) 95.1718 94.8504
5381 23.8594 97.6(19) 95.1430 94.8304
5382 23.8630 93.5(18) 95.1148 94.8103
5383 23.8666 94.7(18) 95.0870 94.7903
5384 23.8702 93.0(18) 95.0596 94.7703
5385 23.8738 94.3(18) 95.0326 94.7503
5386 23.8774 94.1(18) 95.0060 94.7303
5387 23.8810 95.6(18) 94.9796 94.7103
5388 23.8846 96.5(19) 94.9536 94.6903
5389 23.8882 99.0(19) 94.9279 94.6703
5390 23.8918 97.4(19) 94.9024 94.6503
5391 23.8954 95.8(18) 94.8772 94.6302
5392 23.8990 95.8(18) 94.8523 94.6102
5393 23.9026 96.8(18) 94.8275 94.5902
5394 23.9062 96.6(19) 94.8030 94.5702
5395 23.9098 93.9(18) 94.7786 94.5502
5396 23.9134 94.3(18) 94.7544 94.5302
5397 23.9170 95.7(18) 94.7305 94.5102
5398 23.9206 96.3(18) 94.7066 94.4902
5399 23.9242 96.5(18) 94.6830 94.4701
5400 23.9278 95.0(18) 94.6594 94.4501
5401 23.9314 94.2(18) 94.6361 94.4301
5402 23.9350 94.0(18) 94.6128 94.4101
5403 23.9386 93.4(18) 94.5897 94.3901
5404 23.9422 94.5(18) 94.5667 94.3701
5405 23.9458 94.7(18) 94.5438 94.3501
5406 23.9494 94.4(18) 94.5210 94.3301
5407 23.9530 96.8(19) 94.4984 94.3101
5408 23.9566 94.8(18) 94.4758 94.2900
5409 23.9602 94.6(18) 94.4533 94.2700
5410 23.9638 94.3(18) 94.4309 94.2500
5411 23.9674 96.2(19) 94.4086 94.2300
5412 23.9710 92.1(18) 94.3864 94.2100
5413 23.9746 96.3(19) 94.3643 94.1900
5414 23.9782 93.3(18) 94.3422 94.1700
5415 23.9818 94.1(19) 94.3202 94.1500
5416 23.9854 94(2) 94.2983 94.1300
5417 23.9890 94(2) 94.2764 94.1099
5418 23.9926 95.9(18) 94.2546 94.0899
5419 23.9962 96.1(19) 94.2403 94.0773
5420 23.9998 95.1(18) 94.2115 94.0656
5421 24.0034 93.9(18) 94.1982 94.0538
5422 24.0070 93.1(18) 94.1850 94.0421
5423 24.0106 93.9(18) 94.1719 94.0304
5424 24.0142 95.5(18) 94.1587 94.0187
5425 24.0178 95.5(18) 94.1098 94.0069
5426 24.0214 93.3(18) 94.0969 93.9952
5427 24.0250 91.7(18) 94.0841 93.9835
5428 24.0286 94.2(18) 94.0714 93.9718
5429 24.0322 92.2(18) 94.0587 93.9600
5430 24.0358 94.7(18) 94.0460 93.9483
5431 24.0394 93.6(18) 94.0333 93.9366
5432 24.0430 92.1(18) 94.0207 93.9249
5433 24.0466 90.8(18) 94.0082 93.9131
5434 24.0502 95.2(18) 93.9956 93.9014
5435 24.0538 94.0(20) 93.9831 93.8897
5436 24.0574 95.7(18) 93.9707 93.8780
5437 24.0610 95(2) 93.9582 93.8662
5438 24.0646 94.6(18) 93.9458 93.8545
5439 24.0682 94.0(18) 93.9334 93.8428
5440 24.0718 92(2) 93.9211 93.8311
5441 24.0754 93.0(18) 93.9088 93.8194
5442 24.0790 94.3(18) 93.8964 93.8076
5443 24.0826 94.4(18) 93.8842 93.7959
5444 24.0862 94.6(18) 93.8719 93.7842
5445 24.0898 95.0(18) 93.8597 93.7725
5446 24.0934 95.2(18) 93.8475 93.7607
5447 24.0970 95.5(18) 93.8353 93.7490
5448 24.1006 94.8(18) 93.8232 93.7373
5449 24.1042 94.5(18) 93.8110 93.7256
5450 24.1078 96.0(18) 93.7989 93.7138
5451 24.1114 93.4(18) 93.7868 93.7021
5452 24.1150 96.4(19) 93.7747 93.6904
5453 24.1186 94.1(18) 93.7627 93.6787
5454 24.1222 94.0(18) 93.7506 93.6669
5455 24.1258 96.7(19) 93.7386 93.6552
5456 24.1294 93.4(18) 93.7266 93.6435
5457 24.1330 96.1(19) 93.7146 93.6318
5458 24.1366 96.6(19) 93.7027 93.6200
5459 24.1402 100.2(19) 93.6907 93.6083
5460 24.1438 95.6(18) 93.6809 93.5966
5461 24.1474 93.7(18) 93.6690 93.5849
5462 24.1510 93.2(18) 93.6571 93.5731
5463 24.1546 93.9(18) 93.6453 93.5614
5464 24.1582 96(2) 93.6334 93.5497
5465 24.1618 93(2) 93.6216 93.5380
5466 24.1654 93.9(18) 93.6097 93.5262
5467 24.1690 94.3(18) 93.5979 93.5145
5468 24.1726 93.4(18) 93.5861 93.5028
5469 24.1762 93.9(18) 93.5743 93.4911
5470 24.1798 95.2(18) 93.5626 93.4793
5471 24.1834 94.4(18) 93.5508 93.4676
5472 24.1870 93.4(18) 93.5391 93.4559
5473 24.1906 94.3(18) 93.5274 93.4442
5474 24.1942 95.2(18) 93.5157 93.4324
5475 24.1978 97.8(19) 93.5040 93.4207
5476 24.2014 93.1(18) 93.4923 93.4090
5477 24.2050 91.5(18) 93.4806 93.3973
5478 24.2086 94.7(18) 93.4690 93.3856
5479 24.2122 92.8(18) 93.4573 93.3738
5480 24.2158 93.9(18) 93.4457 93.3621
5481 24.2194 94.8(18) 93.4341 93.3504
5482 24.2230 93.4(18) 93.4225 93.3387
5483 24.2266 94.3(18) 93.4109 93.3269
5484 24.2302 95(2) 93.3993 93.3152
5485 24.2338 92.5(18) 93.3877 93.3035
5486 24.2374 92.4(18) 93.3762 93.2918
5487 24.2410 93.7(18) 93.3647 93.2800
5488 24.2446 92.8(18) 93.3531 93.2683
5489 24.2482 92.5(18) 93.3416 93.2566
5490 24.2518 92.2(18) 93.3301 93.2449
5491 24.2554 93.2(18) 93.3186 93.2331
5492 24.2590 93.2(18) 93.3072 93.2214
5493 24.2626 94.6(18) 93.2957 93.2097
5494 24.2662 95.4(19) 93.2842 93.1980
5495 24.2698 93.8(18) 93.2728 93.1862
5496 24.2734 92.0(18) 93.2614 93.1745
5497 24.2770 90.5(18) 93.2500 93.1628
5498 24.2806 91.9(18) 93.2386 93.1511
5499 24.2842 94.8(18) 93.2272 93.1393
5500 24.2878 94.6(18) 93.2158 93.1276
5501 24.2914 94.6(18) 93.2045 93.1159
5502 24.2950 89.9(18) 93.1931 93.1042
5503 24.2986 93.9(18) 93.1818 93.0925
5504 24.3022 93(3) 93.1705 93.0807
5505 24.3058 93.1(18) 93.1592 93.0690
5506 24.3094 91.3(18) 93.1479 93.0573
5507 24.3130 89.1(18) 93.1330 93.0455
5508 24.3166 92.0(18) 93.1218 93.0338
5509 24.3202 92.8(18) 93.1106 93.0221
5510 24.3238 92.3(18) 93.0994 93.0104
5511 24.3274 92.3(18) 93.0882 92.9986
5512 24.3310 91.7(19) 93.0770 92.9869
5513 24.3346 91.3(18) 93.0658 92.9752
5514 24.3382 91.2(18) 93.0546 92.9635
5515 24.3418 92.4(18) 93.0435 92.9518
5516 24.3454 92.9(18) 93.0323 92.9400
5517 24.3490 93.6(18) 93.0212 92.9283
5518 24.3526 93.2(18) 93.0101 92.9166
5519 24.3562 93.1(18) 92.9991 92.9049
5520 24.3598 95.5(19) 92.9880 92.8931
5521 24.3634 95.4(19) 92.9769 92.8814
5522 24.3670 92.3(18) 92.9659 92.8697
5523 24.3706 93.6(18) 92.9549 92.8580
5524 24.3742 92.6(18) 92.9439 92.8462
5525 24.3778 94.6(18) 92.9329 92.8345
5526 24.3814 93.9(18) 92.9219 92.8228
5527 24.3850 94.0(18) 92.9157 92.8111
5528 24.3886 93.1(18) 92.9048 92.7993
5529 24.3922 93.4(18) 92.8939 92.7876
5530 24.3958 94.7(18) 92.8830 92.7759
5531 24.3994 94.2(18) 92.8722 92.7642
5532 24.4030 91.6(18) 92.8614 92.7524
5533 24.4066 93.5(18) 92.8505 92.7407
5534 24.4102 94.0(18) 92.8397 92.7290
5535 24.4138 92.0(19) 92.8342 92.7173
5536 24.4174 92(2) 92.8234 92.7056
5537 24.4210 92(3) 92.8127 92.6938
5538 24.4246 95(3) 92.8020 92.6821
5539 24.4282 92(3) 92.7914 92.6704
5540 24.4318 91(3) 92.7807 92.6587
5541 24.4354 94(3) 92.7701 92.6469
5542 24.4390 95(3) 92.7595 92.6352
5543 24.4426 94(3) 92.7489 92.6235
5544 24.4462 95(3) 92.7384 92.6118
5545 24.4498 95(3) 92.7278 92.6000
5546 24.4534 91(3) 92.7173 92.5883
5547 24.4570 89(3) 92.7069 92.5766
5548 24.4606 92(3) 92.6964 92.5649
5549 24.4642 94(3) 92.6860 92.5531
5550 24.4678 85(2) 92.6756 92.5414
5551 24.4714 91(3) 92.6652 92.5297
5552 24.4750 95(3) 92.6549 92.5180
5553 24.4786 85(2) 92.6446 92.5062
5554 24.4822 89(3) 92.6343 92.4945
5555 24.4858 92(3) 92.6241 92.4828
5556 24.4894 94(3) 92.6139 92.4711
5557 24.4930 94(3) 92.6037 92.4593
5558 24.4966 93(3) 92.5936 92.4476
5559 24.5002 91(3) 92.5835 92.4359
5560 24.5038 90(3) 92.5734 92.4242
5561 24.5074 93(3) 92.5634 92.4124
5562 24.5110 92(3) 92.5534 92.4007
5563 24.5146 91(3) 92.5434 92.3890
5564 24.5182 92(3) 92.5335 92.3773
5565 24.5218 93(3) 92.5236 92.3655
5566 24.5254 92(3) 92.5138 92.3538
5567 24.5290 90(3) 92.5040 92.3421
5568 24.5326 90(3) 92.4942 92.3304
5569 24.5362 91(3) 92.4845 92.3186
5570 24.5398 90(3) 92.4748 92.3069
5571 24.5434 92(3) 92.4652 92.2952
5572 24.5470 90(3) 92.4557 92.2835
5573 24.5506 94(3) 92.4462 92.2718
5574 24.5542 94(3) 92.4367 92.2600
5575 24.5578 91(3) 92.4273 92.2483
5576 24.5614 91(3) 92.4179 92.2366
5577 24.5650 95(3) 92.4086 92.2249
5578 24.5686 96(3) 92.3994 92.2131
5579 24.5722 91(3) 92.3902 92.2014
5580 24.5758 91(3) 92.3811 92.1897
5581 24.5794 91(3) 92.3721 92.1780
5582 24.5830 92(3) 92.3631 92.1662
5583 24.5866 92(3) 92.3542 92.1545
5584 24.5902 92(3) 92.3453 92.1428
5585 24.5938 94(3) 92.3366 92.1311
5586 24.5974 93(3) 92.3279 92.1193
5587 24.6010 93(3) 92.3192 92.1076
5588 24.6046 93(3) 92.3107 92.0959
5589 24.6082 92(3) 92.3023 92.0842
5590 24.6118 94(2) 92.2939 92.0724
5591 24.6154 92.9(17) 92.2856 92.0607
5592 24.6190 91.6(18) 92.2774 92.0490
5593 24.6226 92.7(18) 92.2693 92.0373
5594 24.6262 94.7(18) 92.2613 92.0255
5595 24.6298 93.8(18) 92.2534 92.0138
5596 24.6334 90.4(18) 92.2456 92.0021
5597 24.6370 94.2(18) 92.2379 91.9904
5598 24.6406 93.2(18) 92.2304 91.9786
5599 24.6442 91.5(18) 92.2229 91.9669
5600 24.6478 90.5(18) 92.2156 91.9552
5601 24.6514 89.7(18) 92.2084 91.9435
5602 24.6550 94.0(18) 92.2013 91.9317
5603 24.6586 91.2(18) 92.1943 91.9200
5604 24.6622 90.0(18) 92.1875 91.9083
5605 24.6658 90.7(18) 92.1809 91.8966
5606 24.6694 90.4(18) 92.1744 91.8849
5607 24.6730 89.4(18) 92.1680 91.8731
5608 24.6766 93.8(18) 92.1618 91.8614
5609 24.6802 92.9(18) 92.1558 91.8497
5610 24.6838 90.1(17) 92.1500 91.8380
5611 24.6874 92(2) 92.1443 91.8262
5612 24.6910 94(3) 92.1389 91.8145
5613 24.6946 92(3) 92.1336 91.8028
5614 24.6982 93(3) 92.1286 91.7911
5615 24.7018 94(3) 92.1237 91.7793
5616 24.7054 91(3) 92.1191 91.7676
5617 24.7090 90(3) 92.1148 91.7559
5618 24.7126 93(3) 92.1107 91.7442
5619 24.7162 95(3) 92.1068 91.7324
5620 24.7198 93(3) 92.1032 91.7207
5621 24.7234 92(3) 92.0999 91.7090
5622 24.7270 90(3) 92.0969 91.6973
5623 24.7306 93(3) 92.0942 91.6855
5624 24.7342 94(3) 92.0919 91.6738
5625 24.7378 89(2) 92.0898 91.6621
5626 24.7414 92(3) 92.0882 91.6504
5627 24.7450 91(3) 92.0869 91.6386
5628 24.7486 87(2) 92.0860 91.6269
5629 24.7522 95(3) 92.0855 91.6152
5630 24.7558 94(3) 92.0855 91.6035
5631 24.7594 91(3) 92.0859 91.5918
5632 24.7630 90(3) 92.0868 91.5800
5633 24.7666 93(3) 92.0882 91.5683
5634 24.7702 91(3) 92.0901 91.5566
5635 24.7738 94(3) 92.0926 91.5449
5636 24.7774 94(3) 92.0957 91.5331
5637 24.7810 92(3) 92.0994 91.5214
5638 24.7846 92(3) 92.1038 91.5097
5639 24.7882 92(3) 92.1089 91.4980
5640 24.7918 93(3) 92.1148 91.4862
5641 24.7954 92(3) 92.1214 91.4745
5642 24.7990 89(3) 92.1289 91.4628
5643 24.8026 90(3) 92.1372 91.4511
5644 24.8062 91(3) 92.1465 91.4393
5645 24.8098 91(3) 92.1569 91.4276
5646 24.8134 94(3) 92.1683 91.4159
5647 24.8170 93(3) 92.1808 91.4042
5648 24.8206 93(3) 92.1946 91.3924
5649 24.8242 95(3) 92.2098 91.3807
5650 24.8278 88(2) 92.2264 91.3690
5651 24.8314 89(3) 92.2446 91.3573
5652 24.8350 91(3) 92.2645 91.3455
5653 24.8386 91(3) 92.2863 91.3338
5654 24.8422 90(3) 92.3103 91.3221
5655 24.8458 89(3) 92.3365 91.3104
5656 24.8494 88(2) 92.3654 91.2986
5657 24.8530 87(2) 92.3974 91.2869
5658 24.8566 88(2) 92.4327 91.2752
5659 24.8602 91(3) 92.4719 91.2635
5660 24.8638 94(3) 92.5156 91.2517
5661 24.8674 91(3) 92.5646 91.2400
5662 24.8710 88(2) 92.6198 91.2283
5663 24.8746 90(3) 92.6821 91.2166
5664 24.8782 91(3) 92.7529 91.2048
5665 24.8818 91(2) 92.8336 91.1931
5666 24.8854 91.6(17) 92.9259 91.1814
5667 24.8890 91.5(17) 93.0321 91.1697
5668 24.8926 91.5(18) 93.1543 91.1580
5669 24.8962 92.3(18) 93.2953 91.1462
5670 24.8998 91.0(18) 93.4581 91.1345
5671 24.9034 92.7(18) 93.6464 91.1228
5672 24.9070 93.9(18) 93.8638 91.1111
5673 24.9106 93.3(19) 94.1146 91.0993
5674 24.9142 90(2) 94.4033 91.0876
5675 24.9178 93.0(18) 94.7348 91.0759
5676 24.9214 91.5(18) 95.1146 91.0642
5677 24.9250 92.2(18) 95.5473 91.0524
5678 24.9286 92.6(18) 96.0390 91.0407
5679 24.9322 95.4(18) 96.5943 91.0290
5680 24.9358 94.0(18) 97.2190 91.0173
5681 24.9394 94.2(18) 97.9170 91.0055
5682 24.9430 92.0(18) 98.6928 90.9938
5683 24.9466 92.9(18) 99.5502 90.9821
5684 24.9502 96.3(18) 100.4906 90.9704
5685 24.9538 96.7(18) 101.5162 90.9586
5686 24.9574 94.9(18) 102.6256 90.9469
5687 24.9610 94.9(18) 103.8181 90.9352
5688 24.9646 96.2(18) 105.0888 90.9235
5689 24.9682 95.9(18) 106.4331 90.9117
5690 24.9718 96.4(18) 107.8417 90.9000
5691 24.9754 98.2(19) 109.3048 90.8883
5692 24.9790 102.0(19) 110.8100 90.8766
5693 24.9826 99.2(19) 112.3396 90.8649
5694 24.9862 101.7(19) 113.8764 90.8531
5695 24.9898 97(2) 115.3964 90.8414
5696 24.9934 104.1(19) 116.8759 90.8297
5697 24.9970 105.5(19) 118.2855 90.8180
5698 25.0006 100.6(19) 119.5957 90.8062
5699 25.0042 103.0(19) 120.7758 90.7945
5700 25.0078 103.4(19) 121.7937 90.7828
5701 25.0114 107.9(19) 122.6220 90.7711
5702 25.0150 105.7(19) 123.2361 90.7593
5703 25.0186 105.5(19) 123.6193 90.7476
5704 25.0222 102.7(19) 123.7619 90.7359
5705 25.0258 104(2) 123.6633 90.7242
5706 25.0294 104(2) 123.3314 90.7124
5707 25.0330 103.3(19) 122.7805 90.7007
5708 25.0366 100.5(19) 122.0301 90.6890
5709 25.0402 101.9(19) 121.1041 90.6773
5710 25.0438 103.7(19) 120.0262 90.6655
5711 25.0474 103.2(19) 118.8226 90.6538
5712 25.0510 102.2(19) 117.5169 90.6421
5713 25.0546 99.7(19) 116.1340 90.6304
5714 25.0582 98.8(19) 114.6960 90.6186
5715 25.0618 99.4(19) 113.2236 90.6069
5716 25.0654 100.2(19) 111.7384 90.5952
5717 25.0690 98.3(19) 110.2573 90.5835
5718 25.0726 98.8(19) 108.7988 90.5717
5719 25.0762 100.7(19) 107.3758 90.5600
5720 25.0798 101.2(19) 106.0024 90.5483
5721 25.0834 97.5(18) 104.6880 90.5366
5722 25.0870 96.8(18) 103.4399 90.5248
5723 25.0906 95.8(19) 102.2654 90.5131
5724 25.0942 93.7(18) 101.1667 90.5014
5725 25.0978 94.6(18) 100.1475 90.4897
5726 25.1014 96.8(18) 99.2066 90.4780
5727 25.1050 96.6(18) 98.3441 90.4662
5728 25.1086 95.7(18) 97.5572 90.4545
5729 25.1122 98.8(19) 96.8564 90.4428
5730 25.1158 95.7(18) 96.2123 90.4311
5731 25.1194 94.8(18) 95.6330 90.4193
5732 25.1230 92.0(18) 95.1146 90.4076
5733 25.1266 91.2(18) 94.6519 90.3959
5734 25.1302 91.2(18) 94.2405 90.3842
5735 25.1338 92.1(19) 93.8752 90.3724
5736 25.1374 92.8(18) 93.5519 90.3607
5737 25.1410 93.7(18) 93.2660 90.3490
5738 25.1446 94(2) 93.0130 90.3373
5739 25.1482 90.5(18) 92.7895 90.3255
5740 25.1518 92.6(19) 92.5917 90.3138
5741 25.1554 92.9(18) 92.4164 90.3021
5742 25.1590 91.0(18) 92.2606 90.2904
5743 25.1626 89.8(18) 92.1219 90.2786
5744 25.1662 90.0(18) 91.9978 90.2669
5745 25.1698 91.2(18) 91.8864 90.2552
5746 25.1734 90.8(18) 91.7858 90.2435
5747 25.1770 93.5(18) 91.6945 90.2317
5748 25.1806 91.5(18) 91.6113 90.2200
5749 25.1842 96(2) 91.5350 90.2083
5750 25.1878 92.2(19) 91.4646 90.1966
5751 25.1914 94.2(18) 91.3993 90.1848
5752 25.1950 91.9(18) 91.3385 90.1731
5753 25.1986 89.8(18) 91.2816 90.1614
5754 25.2022 89.5(18) 91.2280 90.1497
5755 25.2058 89.4(18) 91.1774 90.1380
5756 25.2094 89.7(18) 91.1293 90.1262
5757 25.2130 91.0(18) 91.0837 90.1145
5758 25.2166 89.7(18) 91.0401 90.1028
5759 25.2202 89.8(18) 90.9984 90.0911
5760 25.2238 91.6(18) 90.9553 90.0793
5761 25.2274 90.5(18) 90.9169 90.0676
5762 25.2310 90.2(18) 90.8800 90.0559
5763 25.2346 91.4(18) 90.8443 90.0442
5764 25.2382 90.9(18) 90.8098 90.0324
5765 25.2418 89.8(18) 90.7765 90.0207
5766 25.2454 90.4(18) 90.7443 90.0090
5767 25.2490 90.0(18) 90.7130 89.9973
5768 25.2526 92.7(18) 90.6826 89.9855
5769 25.2562 90.5(18) 90.6532 89.9738
5770 25.2598 93.3(18) 90.6245 89.9621
5771 25.2634 91.6(18) 90.5966 89.9504
5772 25.2670 90.9(18) 90.5694 89.9386
5773 25.2706 88.8(18) 90.5429 89.9269
5774 25.2742 91.8(18) 90.5171 89.9152
5775 25.2778 88.5(18) 90.4918 89.9035
5776 25.2814 90.0(18) 90.4672 89.8917
5777 25.2850 90.0(18) 90.4431 89.8800
5778 25.2886 87.8(18) 90.4195 89.8683
5779 25.2922 91.4(18) 90.3965 89.8566
5780 25.2958 92.4(18) 90.3739 89.8448
5781 25.2994 93.4(18) 90.3517 89.8331
5782 25.3030 90.9(18) 90.3300 89.8214
5783 25.3066 89.1(18) 90.3087 89.8097
5784 25.3102 90.7(18) 90.2878 89.7980
5785 25.3138 91.2(18) 90.2673 89.7862
5786 25.3174 90.4(18) 90.2471 89.7745
5787 25.3210 90.9(18) 90.2273 89.7628
5788 25.3246 90.4(18) 90.2078 89.7511
5789 25.3282 86.9(17) 90.1886 89.7393
5790 25.3318 86.2(17) 90.1697 89.7276
5791 25.3354 87.7(18) 90.1511 89.7159
5792 25.3390 91.6(18) 90.1328 89.7042
5793 25.3426 89.2(18) 90.1147 89.6924
5794 25.3462 89.8(18) 90.0969 89.6807
5795 25.3498 90.0(18) 90.0793 89.6690
5796 25.3534 87.9(18) 90.0620 89.6573
5797 25.3570 88.7(18) 90.0449 89.6455
5798 25.3606 90.9(18) 90.0281 89.6338
5799 25.3642 89.5(18) 90.0114 89.6221
5800 25.3678 90.9(18) 89.9950 89.6104
5801 25.3714 88.8(18) 89.9787 89.5986
5802 25.3750 88.2(18) 89.9627 89.5869
5803 25.3786 90.1(18) 89.9468 89.5752
5804 25.3822 90.1(18) 89.9311 89.5635
5805 25.3858 89.1(18) 89.9156 89.5517
5806 25.3894 88.7(18) 89.9002 89.5400
5807 25.3930 87.8(18) 89.8851 89.5283
5808 25.3966 87.9(18) 89.8700 89.5166
5809 25.4002 89.4(18) 89.8552 89.5048
5810 25.4038 90.6(18) 89.8405 89.4931
5811 25.4074 90.2(18) 89.8259 89.4814
5812 25.4110 88.9(18) 89.8115 89.4697
5813 25.4146 90.9(18) 89.7972 89.4579
5814 25.4182 89.5(18) 89.7831 89.4462
5815 25.4218 90.1(18) 89.7691 89.4345
5816 25.4254 88.7(18) 89.7552 89.4228
5817 25.4290 90.3(18) 89.7415 89.4111
5818 25.4326 87.4(18) 89.7279 89.3993
5819 25.4362 92.1(18) 89.7144 89.3876
5820 25.4398 88.4(18) 89.7010 89.3759
5821 25.4434 90.4(18) 89.6878 89.3642
5822 25.4470 88.9(18) 89.6747 89.3524
5823 25.4506 90.0(18) 89.6617 89.3407
5824 25.4542 89.4(18) 89.6488 89.3290
5825 25.4578 88.2(18) 89.6361 89.3173
5826 25.4614 90.5(18) 89.6234 89.3055
5827 25.4650 89.0(18) 89.6109 89.2938
5828 25.4686 89.2(18) 89.5985 89.2821
5829 25.4722 90.6(18) 89.5862 89.2704
5830 25.4758 90.3(18) 89.5740 89.2586
5831 25.4794 91.0(18) 89.5620 89.2469
5832 25.4830 91.6(18) 89.5500 89.2352
5833 25.4866 90.7(18) 89.5382 89.2235
5834 25.4902 89.3(18) 89.5265 89.2117
5835 25.4938 89.7(18) 89.5149 89.2000
5836 25.4974 91.0(18) 89.5034 89.1883
5837 25.5010 91.2(18) 89.4920 89.1766
5838 25.5046 91.0(18) 89.4808 89.1648
5839 25.5082 90.2(18) 89.4697 89.1531
5840 25.5118 91.3(18) 89.4587 89.1414
5841 25.5154 89.1(18) 89.4478 89.1297
5842 25.5190 86.4(17) 89.4370 89.1180
5843 25.5226 89.7(18) 89.4264 89.1062
5844 25.5262 87.0(17) 89.4159 89.0945
5845 25.5298 86.8(17) 89.4056 89.0828
5846 25.5334 90.0(18) 89.3954 89.0711
5847 25.5370 93.0(18) 89.3853 89.0593
5848 25.5406 91.5(18) 89.3753 89.0476
5849 25.5442 91.4(18) 89.3656 89.0359
5850 25.5478 91.9(18) 89.3559 89.0242
5851 25.5514 89.8(18) 89.3465 89.0124
5852 25.5550 88.0(20) 89.3371 89.0007
5853 25.5586 87.5(18) 89.3280 88.9890
5854 25.5622 90.0(18) 89.3190 88.9773
5855 25.5658 90.1(18) 89.3102 88.9655
5856 25.5694 88.8(18) 89.3016 88.9538
5857 25.5730 89.1(18) 89.2932 88.9421
5858 25.5766 89.4(18) 89.2850 88.9304
5859 25.5802 89.4(18) 89.2770 88.9186
5860 25.5838 88.0(18) 89.2692 88.9069
5861 25.5874 88.2(18) 89.2616 88.8952
5862 25.5910 91.1(18) 89.2543 88.8835
5863 25.5946 91.1(18) 89.2473 88.8717
5864 25.5982 87.1(18) 89.2405 88.8600
5865 25.6018 86.1(17) 89.2340 88.8483
5866 25.6054 92.4(18) 89.2278 88.8366
5867 25.6090 91.1(18) 89.2219 88.8248
5868 25.6126 88.6(18) 89.2164 88.8131
5869 25.6162 92.3(18) 89.2113 88.8014
5870 25.6198 89.3(18) 89.2065 88.7897
5871 25.6234 88.0(18) 89.2023 88.7779
5872 25.6270 90.1(18) 89.1985 88.7662
5873 25.6306 88.6(18) 89.1953 88.7545
5874 25.6342 89.5(18) 89.1926 88.7428
5875 25.6378 89.2(18) 89.1907 88.7310
5876 25.6414 87.9(18) 89.1896 88.7193
5877 25.6450 89.7(18) 89.1894 88.7076
5878 25.6486 91.1(18) 89.1902 88.6959
5879 25.6522 90.4(18) 89.1923 88.6842
5880 25.6558 89.7(18) 89.1957 88.6724
5881 25.6594 88.6(18) 89.2008 88.6607
5882 25.6630 87.7(18) 89.2078 88.6490
5883 25.6666 87.5(18) 89.2170 88.6373
5884 25.6702 86.6(17) 89.2288 88.6255
5885 25.6738 88.9(18) 89.2436 88.6138
5886 25.6774 89.6(18) 89.2618 88.6021
5887 25.6810 89.5(18) 89.2841 88.5904
5888 25.6846 88.3(18) 89.3111 88.5786
5889 25.6882 87.0(17) 89.3433 88.5669
5890 25.6918 90.6(18) 89.3816 88.5552
5891 25.6954 87.7(18) 89.4267 88.5435
5892 25.6990 86.2(17) 89.4795 88.5317
5893 25.7026 88.5(18) 89.5408 88.5200
5894 25.7062 89.9(18) 89.6115 88.5083
5895 25.7098 92.2(18) 89.6924 88.4966
5896 25.7134 90.4(18) 89.7847 88.4848
5897 25.7170 90.5(18) 89.8889 88.4731
5898 25.7206 90.7(18) 90.0059 88.4614
5899 25.7242 92.9(18) 90.1363 88.4497
5900 25.7278 91.6(18) 90.2808 88.4379
5901 25.7314 91.8(18) 90.4395 88.4262
5902 25.7350 91.0(18) 90.6127 88.4145
5903 25.7386 87.9(18) 90.8002 88.4028
5904 25.7422 88.9(18) 91.0017 88.3911
5905 25.7458 91.9(18) 91.2166 88.3793
5906 25.7494 91.4(18) 91.4436 88.3676
5907 25.7530 90.4(18) 91.6816 88.3559
5908 25.7566 91.2(18) 91.9285 88.3442
5909 25.7602 91.9(18) 92.1824 88.3324
5910 25.7638 92.8(18) 92.4403 88.3207
5911 25.7674 92.0(18) 92.6992 88.3090
5912 25.7710 91.5(18) 92.9556 88.2973
5913 25.7746 92.2(18) 93.2049 88.2855
5914 25.7782 93.5(18) 93.4428 88.2738
5915 25.7818 91.2(18) 93.6640 88.2621
5916 25.7854 89.1(18) 93.8633 88.2504
5917 25.7890 94.2(18) 94.0350 88.2386
5918 25.7926 95.1(18) 94.1742 88.2269
5919 25.7962 93.2(18) 94.2760 88.2152
5920 25.7998 94.3(18) 94.3370 88.2035
5921 25.8034 95.3(18) 94.3548 88.1917
5922 25.8070 94.5(18) 94.3287 88.1800
5923 25.8106 93.8(18) 94.2595 88.1683
5924 25.8142 92.4(18) 94.1498 88.1566
5925 25.8178 94.4(18) 94.0032 88.1448
5926 25.8214 94.7(18) 93.8246 88.1331
5927 25.8250 92.7(18) 93.6192 88.1214
5928 25.8286 92.4(18) 93.3923 88.1097
5929 25.8322 93.7(18) 93.1497 88.0979
5930 25.8358 93.8(18) 92.8960 88.0862
5931 25.8394 91.1(18) 92.6363 88.0745
5932 25.8430 90.2(18) 92.3745 88.0628
5933 25.8466 91.2(18) 92.1145 88.0510
5934 25.8502 92.4(18) 91.8593 88.0393
5935 25.8538 88.3(18) 91.6119 88.0276
5936 25.8574 90.2(18) 91.3743 88.0159
5937 25.8610 93.5(18) 91.1482 88.0042
5938 25.8646 92.4(18) 90.9354 87.9924
5939 25.8682 92(2) 90.7368 87.9807
5940 25.8718 92.4(18) 90.5532 87.9690
5941 25.8754 90.2(18) 90.3849 87.9573
5942 25.8790 91.3(18) 90.2325 87.9455
5943 25.8826 93.4(18) 90.0956 87.9338
5944 25.8862 91.7(18) 89.9742 87.9221
5945 25.8898 90.2(18) 89.8716 87.9140
5946 25.8934 90.5(18) 89.7864 87.9086
5947 25.8970 90.7(18) 89.7155 87.9032
5948 25.9006 90.5(18) 89.6582 87.8978
5949 25.9042 90.3(18) 89.6144 87.8923
5950 25.9078 91.5(18) 89.5834 87.8869
5951 25.9114 91.4(18) 89.5650 87.8815
5952 25.9150 90.7(18) 89.5590 87.8761
5953 25.9186 90.9(18) 89.5653 87.8706
5954 25.9222 91.2(18) 89.5843 87.8652
5955 25.9258 93.6(18) 89.6161 87.8598
5956 25.9294 93.1(18) 89.6614 87.8544
5957 25.9330 90.7(18) 89.7210 87.8489
5958 25.9366 91.9(18) 89.7960 87.8435
5959 25.9402 93.4(18) 89.8878 87.8381
5960 25.9438 95.6(18) 89.9980 87.8327
5961 25.9474 91.1(18) 90.1285 87.8272
5962 25.9510 95.2(18) 90.2814 87.8218
5963 25.9546 92.4(18) 90.4591 87.8164
5964 25.9582 94(2) 90.6643 87.8110
5965 25.9618 91.6(18) 90.8996 87.8055
5966 25.9654 97.0(18) 91.1682 87.8001
5967 25.9690 94.9(18) 91.4729 87.7947
5968 25.9726 96.2(18) 91.8170 87.7893
5969 25.9762 98.3(19) 92.2035 87.7838
5970 25.9798 95.5(18) 92.6352 87.7784
5971 25.9834 94.9(18) 93.1151 87.7730
5972 25.9870 97.2(19) 93.6452 87.7676
5973 25.9906 96.7(18) 94.2281 87.7621
5974 25.9942 96.2(18) 94.8646 87.7567
5975 25.9978 98.2(19) 95.5559 87.7513
5976 26.0014 100.9(19) 96.3024 87.7459
5977 26.0050 102.5(19) 97.1027 87.7404
5978 26.0086 101.1(19) 97.9557 87.7350
5979 26.0122 99.9(19) 98.8575 87.7296
5980 26.0158 102.8(19) 99.8047 87.7242
5981 26.0194 104.6(19) 100.7907 87.7187
5982 26.0230 104.7(19) 101.8092 87.7133
5983 26.0266 107.7(20) 102.8500 87.7079
5984 26.0302 110.1(20) 103.9030 87.7025
5985 26.0338 110.8(20) 104.9562 87.6970
5986 26.0374 110.6(20) 105.9944 87.6916
5987 26.0410 114(2) 107.0034 87.6862
5988 26.0446 117(2) 107.9660 87.6808
5989 26.0482 115(2) 108.8668 87.6753
5990 26.0518 119(2) 109.6892 87.6699
5991 26.0554 114(2) 110.4191 87.6645
5992 26.0590 117(2) 111.0443 87.6591
5993 26.0626 117(2) 111.5540 87.6536
5994 26.0662 116(2) 111.9409 87.6482
5995 26.0698 114(2) 112.1989 87.6428
5996 26.0734 112.2(20) 112.3245 87.6374
5997 26.0770 115(2) 112.3156 87.6319
5998 26.0806 114(2) 112.1715 87.6265
5999 26.0842 112.6(20) 111.8931 87.6211
6000 26.0878 112.3(20) 111.4837 87.6157
6001 26.0914 113.3(20) 110.9484 87.6102
6002 26.0950 115(2) 110.2958 87.6048
6003 26.0986 112.5(20) 109.5364 87.5994
6004 26.1022 109.1(20) 108.6843 87.5940
6005 26.1058 107(2) 107.7543 87.5885
6006 26.1094 107.9(19) 106.7638 87.5831
6007 26.1130 106.5(19) 105.7294 87.5777
6008 26.1166 104.4(19) 104.6669 87.5723
6009 26.1202 104.2(19) 103.5930 87.5668
6010 26.1238 104.5(20) 102.5205 87.5614
6011 26.1274 103.7(19) 101.4628 87.5560
6012 26.1310 98.5(19) 100.4292 87.5506
6013 26.1346 99.0(19) 99.4297 87.5452
6014 26.1382 100.9(19) 98.4706 87.5397
6015 26.1418 99.1(19) 97.5570 87.5343
6016 26.1454 98.9(19) 96.6939 87.5289
6017 26.1490 96.3(18) 95.8832 87.5234
6018 26.1526 94.6(18) 95.1274 87.5180
6019 26.1562 95.0(18) 94.4262 87.5126
6020 26.1598 93.6(18) 93.7802 87.5072
6021 26.1634 93.0(18) 93.1877 87.5017
6022 26.1670 92.4(18) 92.6476 87.4963
6023 26.1706 92.5(18) 92.1575 87.4909
6024 26.1742 93.0(18) 91.7146 87.4855
6025 26.1778 91(2) 91.3165 87.4800
6026 26.1814 90(2) 90.9597 87.4746
6027 26.1850 91.3(18) 90.6414 87.4692
6028 26.1886 92.1(18) 90.3580 87.4638
6029 26.1922 89.2(18) 90.1066 87.4584
6030 26.1958 91.0(18) 89.8840 87.4529
6031 26.1994 88.9(18) 89.6870 87.4475
6032 26.2030 88.7(18) 89.5129 87.4421
6033 26.2066 90.6(18) 89.3591 87.4367
6034 26.2102 91.4(18) 89.2231 87.4312
6035 26.2138 90.6(18) 89.1027 87.4258
6036 26.2174 89.0(18) 88.9959 87.4204
6037 26.2210 88.9(18) 88.9008 87.4150
6038 26.2246 90.9(19) 88.8159 87.4095
6039 26.2282 90.7(18) 88.7399 87.4041
6040 26.2318 90.0(18) 88.6713 87.3987
6041 26.2354 89.4(18) 88.6093 87.3933
6042 26.2390 87.2(17) 88.5528 87.3878
6043 26.2426 87.6(18) 88.5012 87.3824
6044 26.2462 88.9(18) 88.4537 87.3770
6045 26.2498 88.4(18) 88.4123 87.3716
6046 26.2534 86.1(17) 88.3715 87.3661
6047 26.2570 86.9(17) 88.3335 87.3607
6048 26.2606 90.4(18) 88.2978 87.3553
6049 26.2642 90.8(18) 88.2643 87.3499
6050 26.2678 88.4(18) 88.2326 87.3444
6051 26.2714 86.6(17) 88.2033 87.3390
6052 26.2750 88.3(18) 88.1748 87.3336
6053 26.2786 89(2) 88.1477 87.3282
6054 26.2822 88.6(18) 88.1219 87.3227
6055 26.2858 88.3(18) 88.0972 87.3173
6056 26.2894 88.6(18) 88.0735 87.3119
6057 26.2930 87.3(18) 88.0509 87.3065
6058 26.2966 90.3(18) 88.0292 87.3010
6059 26.3002 89.1(18) 88.0083 87.2956
6060 26.3038 87.1(18) 87.9883 87.2902
6061 26.3074 87.6(18) 87.9690 87.2848
6062 26.3110 88.6(18) 87.9504 87.2793
6063 26.3146 87.9(18) 87.9325 87.2739
6064 26.3182 87.3(17) 87.9152 87.2685
6065 26.3218 88.7(18) 87.8986 87.2631
6066 26.3254 89.7(18) 87.8825 87.2576
6067 26.3290 88.9(18) 87.8669 87.2522
6068 26.3326 88.9(18) 87.8519 87.2468
6069 26.3362 89.3(18) 87.8374 87.2414
6070 26.3398 88.4(18) 87.8234 87.2359
6071 26.3434 87.7(18) 87.8099 87.2305
6072 26.3470 87.6(18) 87.7967 87.2251
6073 26.3506 86.5(17) 87.7840 87.2197
6074 26.3542 86.2(17) 87.7717 87.2142
6075 26.3578 86.6(17) 87.7598 87.2088
6076 26.3614 87.0(17) 87.7483 87.2034
6077 26.3650 90.3(18) 87.7371 87.1980
6078 26.3686 87.4(17) 87.7263 87.1925
6079 26.3722 90.7(18) 87.7158 87.1871
6080 26.3758 89.6(18) 87.7057 87.1817
6081 26.3794 85.8(17) 87.6958 87.1763
6082 26.3830 89.7(18) 87.6863 87.1708
6083 26.3866 87.4(17) 87.6771 87.1654
6084 26.3902 86.0(17) 87.6681 87.1600
6085 26.3938 86.9(17) 87.6595 87.1546
6086 26.3974 88.4(18) 87.6511 87.1491
6087 26.4010 87.2(17) 87.6430 87.1437
6088 26.4046 87.1(17) 87.6352 87.1383
6089 26.4082 87.5(18) 87.6277 87.1329
6090 26.4118 88.2(18) 87.6204 87.1274
6091 26.4154 88.2(18) 87.6133 87.1220
6092 26.4190 88.5(18) 87.6065 87.1166
6093 26.4226 88.0(18) 87.6000 87.1112
6094 26.4262 89.1(18) 87.5937 87.1057
6095 26.4298 90.5(18) 87.5876 87.1003
6096 26.4334 87.6(17) 87.5818 87.0949
6097 26.4370 86.6(17) 87.5762 87.0895
6098 26.4406 87.8(17) 87.5709 87.0840
6099 26.4442 85.5(17) 87.5658 87.0786
6100 26.4478 87.3(17) 87.5609 87.0732
6101 26.4514 85.5(17) 87.5563 87.0678
6102 26.4550 87.1(17) 87.5519 87.0623
6103 26.4586 86.9(17) 87.5478 87.0569
6104 26.4622 87.9(17) 87.5439 87.0515
6105 26.4658 89.1(18) 87.5403 87.0461
6106 26.4694 90.6(18) 87.5369 87.0406
6107 26.4730 90.2(18) 87.5338 87.0352
6108 26.4766 90.6(18) 87.5309 87.0298
6109 26.4802 88.8(18) 87.5283 87.0244
6110 26.4838 86.4(17) 87.5259 87.0189
6111 26.4874 86.8(17) 87.5238 87.0135
6112 26.4910 87.1(17) 87.5220 87.0081
6113 26.4946 87.5(17) 87.5204 87.0027
6114 26.4982 88.3(18) 87.5191 86.9972
6115 26.5018 88.2(18) 87.5182 86.9918
6116 26.5054 85.8(17) 87.5175 86.9864
6117 26.5090 86.5(18) 87.5171 86.9810
6118 26.5126 87.3(17) 87.5171 86.9755
6119 26.5162 87.4(18) 87.5173 86.9701
6120 26.5198 89.7(18) 87.5180 86.9647
6121 26.5234 88.4(18) 87.5189 86.9593
6122 26.5270 90.6(18) 87.5202 86.9538
6123 26.5306 88.8(18) 87.5219 86.9484
6124 26.5342 88.1(18) 87.5239 86.9430
6125 26.5378 86.9(17) 87.5264 86.9376
6126 26.5414 86.9(17) 87.5292 86.9322
6127 26.5450 85.4(17) 87.5325 86.9267
6128 26.5486 89.2(18) 87.5362 86.9213
6129 26.5522 88.7(18) 87.5404 86.9159
6130 26.5558 88.8(18) 87.5451 86.9104
6131 26.5594 88.0(18) 87.5503 86.9050
6132 26.5630 86.9(18) 87.5560 86.8996
6133 26.5666 85.5(17) 87.5622 86.8942
6134 26.5702 86.0(17) 87.5690 86.8887
6135 26.5738 86.5(17) 87.5764 86.8833
6136 26.5774 87.9(18) 87.5844 86.8779
6137 26.5810 90.2(18) 87.5931 86.8725
6138 26.5846 91.2(18) 87.6025 86.8671
6139 26.5882 89.4(18) 87.6126 86.8616
6140 26.5918 87.7(18) 87.6235 86.8562
6141 26.5954 87.1(18) 87.6352 86.8508
6142 26.5990 87.9(18) 87.6478 86.8454
6143 26.6026 89.5(18) 87.6613 86.8399
6144 26.6062 89.5(18) 87.6757 86.8345
6145 26.6098 89.3(20) 87.6911 86.8291
6146 26.6134 89(2) 87.7076 86.8237
6147 26.6170 87.6(19) 87.7253 86.8182
6148 26.6206 92.7(18) 87.7442 86.8128
6149 26.6242 89.5(18) 87.7645 86.8074
6150 26.6278 86.4(17) 87.7862 86.8019
6151 26.6314 89.5(18) 87.8095 86.7965
6152 26.6350 87.5(18) 87.8344 86.7911
6153 26.6386 90.9(18) 87.8516 86.7857
6154 26.6422 88.6(18) 87.8806 86.7803
6155 26.6458 88.9(18) 87.9105 86.7748
6156 26.6494 91.4(18) 87.9443 86.7694
6157 26.6530 89.0(18) 87.9809 86.7640
6158 26.6566 89.7(18) 88.0208 86.7586
6159 26.6602 91.6(18) 88.0644 86.7531
6160 26.6638 91.0(18) 88.1123 86.7477
6161 26.6674 89.2(18) 88.1651 86.7423
6162 26.6710 90.0(18) 88.2235 86.7369
6163 26.6746 92.7(18) 88.2867 86.7314
6164 26.6782 93.7(18) 88.3595 86.7260
6165 26.6818 91.9(18) 88.4412 86.7206
6166 26.6854 91.8(18) 88.5335 86.7152
6167 26.6890 92.8(18) 88.6379 86.7097
6168 26.6926 92.3(18) 88.7566 86.7043
6169 26.6962 94.1(18) 88.8917 86.6989
6170 26.6998 93.8(18) 89.0460 86.6935
6171 26.7034 94.9(18) 89.2222 86.6880
6172 26.7070 94.5(18) 89.4236 86.6826
6173 26.7106 95.3(18) 89.6540 86.6772
6174 26.7142 96.8(18) 89.9170 86.6718
6175 26.7178 94.2(18) 90.2171 86.6663
6176 26.7214 99(2) 90.5583 86.6609
6177 26.7250 97.6(18) 90.9458 86.6555
6178 26.7286 100.7(19) 91.3838 86.6501
6179 26.7322 95.9(20) 91.8777 86.6446
6180 26.7358 99.8(19) 92.4317 86.6392
6181 26.7394 100.5(19) 93.0507 86.6338
6182 26.7430 98.8(19) 93.7392 86.6284
6183 26.7466 100.3(19) 94.5002 86.6229
6184 26.7502 102.0(19) 95.3379 86.6175
6185 26.7538 103.7(19) 96.2534 86.6121
6186 26.7574 102.9(19) 97.2493 86.6067
6187 26.7610 105(2) 98.3245 86.6012
6188 26.7646 108.2(19) 99.4784 86.5958
6189 26.7682 109(2) 100.7088 86.5904
6190 26.7718 111.4(20) 102.0103 86.5850
6191 26.7754 111.6(20) 103.3778 86.5795
6192 26.7790 115(2) 104.8017 86.5741
6193 26.7826 115(2) 106.2733 86.5687
6194 26.7862 118(2) 107.7782 86.5633
6195 26.7898 123(2) 109.3031 86.5578
6196 26.7934 122(2) 110.8286 86.5524
6197 26.7970 125(2) 112.3355 86.5470
6198 26.8006 128(3) 113.8016 86.5416
6199 26.8042 129(2) 115.2001 86.5361
6200 26.8078 127(2) 116.5049 86.5307
6201 26.8114 129(2) 117.6860 86.5253
6202 26.8150 131(2) 118.7151 86.5199
6203 26.8186 133(2) 119.5631 86.5144
6204 26.8222 137(2) 120.2052 86.5090
6205 26.8258 137(2) 120.6207 86.5036
6206 26.8294 134(2) 120.7951 86.4982
6207 26.8330 135(2) 120.7222 86.4927
6208 26.8366 137(2) 120.4043 86.4873
6209 26.8402 137(2) 119.8516 86.4819
6210 26.8438 131(3) 119.0825 86.4765
6211 26.8474 127(2) 118.1196 86.4710
6212 26.8510 128(2) 116.9913 86.4656
6213 26.8546 127(2) 115.7262 86.4602
6214 26.8582 126(2) 114.3529 86.4548
6215 26.8618 124(2) 112.9012 86.4493
6216 26.8654 120(2) 111.3959 86.4439
6217 26.8690 116(2) 109.8629 86.4385
6218 26.8726 114(2) 108.3220 86.4331
6219 26.8762 114(2) 106.7935 86.4276
6220 26.8798 111.6(20) 105.2929 86.4222
6221 26.8834 106.7(19) 103.8331 86.4168
6222 26.8870 109.3(20) 102.4269 86.4114
6223 26.8906 107(2) 101.0821 86.4059
6224 26.8942 103.6(19) 99.8072 86.4005
6225 26.8978 105.2(19) 98.6059 86.3951
6226 26.9014 100.7(19) 97.4831 86.3897
6227 26.9050 99.0(19) 96.4393 86.3842
6228 26.9086 96.3(18) 95.4761 86.3788
6229 26.9122 96.6(19) 94.5921 86.3734
6230 26.9158 99.0(19) 93.7849 86.3680
6231 26.9194 98.5(19) 93.0527 86.3625
6232 26.9230 96.7(18) 92.3912 86.3571
6233 26.9266 95.0(18) 91.8031 86.3517
6234 26.9302 95.7(18) 91.2711 86.3463
6235 26.9338 95.4(18) 90.7971 86.3408
6236 26.9374 93.0(18) 90.3761 86.3354
6237 26.9410 93.7(18) 90.0031 86.3300
6238 26.9446 94.3(18) 89.6736 86.3246
6239 26.9482 91.1(18) 89.3829 86.3191
6240 26.9518 90.8(18) 89.1269 86.3137
6241 26.9554 91.8(18) 88.9012 86.3083
6242 26.9590 90.8(18) 88.7025 86.3029
6243 26.9626 92.0(18) 88.5271 86.2974
6244 26.9662 88.4(18) 88.3721 86.2920
6245 26.9698 92.5(18) 88.2346 86.2866
6246 26.9734 93.0(18) 88.1123 86.2812
6247 26.9770 92.1(18) 88.0031 86.2757
6248 26.9806 92.8(18) 87.9050 86.2703
6249 26.9842 92.1(18) 87.8165 86.2649
6250 26.9878 91.4(18) 87.7362 86.2595
6251 26.9914 89.4(18) 87.6630 86.2541
6252 26.9950 88.9(18) 87.5959 86.2486
6253 26.9986 88.5(18) 87.5339 86.2432
6254 27.0022 86.8(18) 87.4764 86.2378
6255 27.0058 86.1(18) 87.4229 86.2323
6256 27.0094 87.1(18) 87.3728 86.2269
6257 27.0130 88.1(18) 87.3257 86.2215
6258 27.0166 87.8(18) 87.2813 86.2161
6259 27.0202 87.6(18) 87.2392 86.2107
6260 27.0238 88.3(18) 87.1993 86.2052
6261 27.0274 89.3(18) 87.1613 86.1998
6262 27.0310 89.6(18) 87.1250 86.1944
6263 27.0346 88.0(18) 87.0904 86.1889
6264 27.0382 87.6(18) 87.0572 86.1835
6265 27.0418 86.3(17) 87.0254 86.1781
6266 27.0454 88.0(18) 86.9948 86.1727
6267 27.0490 87.8(18) 86.9654 86.1673
6268 27.0526 88.6(18) 86.9371 86.1618
6269 27.0562 88.6(18) 86.9098 86.1564
6270 27.0598 87.3(18) 86.8835 86.1510
6271 27.0634 88.7(18) 86.8580 86.1456
6272 27.0670 84.0(17) 86.8335 86.1401
6273 27.0706 92(2) 86.8097 86.1347
6274 27.0742 88.6(18) 86.7867 86.1293
6275 27.0778 86.1(17) 86.7644 86.1239
6276 27.0814 85.9(17) 86.7427 86.1184
6277 27.0850 89.6(20) 86.7218 86.1130
6278 27.0886 88.5(18) 86.7014 86.1076
6279 27.0922 87.3(18) 86.6816 86.1022
6280 27.0958 85.7(17) 86.6624 86.0967
6281 27.0994 85.3(17) 86.6437 86.0913
6282 27.1030 86.7(17) 86.6254 86.0859
6283 27.1066 86.9(17) 86.6077 86.0805
6284 27.1102 86.5(17) 86.5904 86.0750
6285 27.1138 86.2(17) 86.5735 86.0696
6286 27.1174 85.9(20) 86.5571 86.0642
6287 27.1210 87.9(20) 86.5410 86.0588
6288 27.1246 85.9(17) 86.5253 86.0533
6289 27.1282 86.4(17) 86.5136 86.0479
6290 27.1318 85.0(17) 86.4986 86.0425
6291 27.1354 88.3(18) 86.4876 86.0371
6292 27.1390 91.7(18) 86.4732 86.0316
6293 27.1426 89.8(18) 86.4592 86.0262
6294 27.1462 86.5(17) 86.4454 86.0208
6295 27.1498 85.7(17) 86.4319 86.0154
6296 27.1534 87.3(17) 86.4187 86.0099
6297 27.1570 85.2(17) 86.4080 86.0045
6298 27.1606 86.8(17) 86.3953 85.9991
6299 27.1642 86.7(17) 86.3828 85.9937
6300 27.1678 87.8(18) 86.3706 85.9882
6301 27.1714 87.5(17) 86.3585 85.9828
6302 27.1750 86.0(17) 86.3466 85.9774
6303 27.1786 86.0(17) 86.3350 85.9720
6304 27.1822 87.0(17) 86.3235 85.9665
6305 27.1858 85.6(17) 86.3122 85.9611
6306 27.1894 85.0(17) 86.3011 85.9557
6307 27.1930 85.7(17) 86.2902 85.9503
6308 27.1966 85.5(17) 86.2794 85.9448
6309 27.2002 86.3(17) 86.2688 85.9394
6310 27.2038 84.5(19) 86.2583 85.9340
6311 27.2074 86(2) 86.2479 85.9286
6312 27.2110 84(2) 86.2377 85.9231
6313 27.2146 87(2) 86.2277 85.9177
6314 27.2182 85(2) 86.2178 85.9123
6315 27.2218 84.1(17) 86.2080 85.9069
6316 27.2254 87.8(18) 86.1983 85.9014
6317 27.2290 86.2(17) 86.1887 85.8960
6318 27.2326 87.6(18) 86.1793 85.8906
6319 27.2362 86.4(17) 86.1699 85.8852
6320 27.2398 83.9(17) 86.1607 85.8797
6321 27.2434 87.9(18) 86.1516 85.8743
6322 27.2470 89.6(18) 86.1425 85.8689
6323 27.2506 90.2(18) 86.1336 85.8635
6324 27.2542 87.6(18) 86.1247 85.8580
6325 27.2578 86.9(17) 86.1160 85.8526
6326 27.2614 85.9(17) 86.1073 85.8472
6327 27.2650 86.2(17) 86.0988 85.8418
6328 27.2686 88.1(18) 86.0903 85.8363
6329 27.2722 87.5(18) 86.0818 85.8309
6330 27.2758 86.6(18) 86.0735 85.8255
6331 27.2794 86(2) 86.0652 85.8201
6332 27.2830 85.0(17) 86.0571 85.8146
6333 27.2866 86.0(17) 86.0489 85.8092
6334 27.2902 86.2(17) 86.0409 85.8038
6335 27.2938 86.8(20) 86.0329 85.7984
6336 27.2974 85.1(17) 86.0250 85.7929
6337 27.3010 85.8(17) 86.0171 85.7875
6338 27.3046 85.0(17) 86.0093 85.7821
6339 27.3082 87.3(17) 86.0016 85.7767
6340 27.3118 88.8(18) 85.9939 85.7712
6341 27.3154 87.8(18) 85.9863 85.7658
6342 27.3190 86.0(17) 85.9787 85.7604
6343 27.3226 86.9(17) 85.9712 85.7550
6344 27.3262 86.2(17) 85.9638 85.7495
6345 27.3298 84.5(17) 85.9564 85.7441
6346 27.3334 85.7(17) 85.9490 85.7387
6347 27.3370 86.3(17) 85.9417 85.7333
6348 27.3406 86.4(17) 85.9345 85.7278
6349 27.3442 87.6(17) 85.9273 85.7224
6350 27.3478 87.8(18) 85.9201 85.7170
6351 27.3514 87.3(17) 85.9130 85.7116
6352 27.3550 87.4(17) 85.9059 85.7061
6353 27.3586 86.4(17) 85.8989 85.7007
6354 27.3622 86.0(17) 85.8919 85.6953
6355 27.3658 85.3(18) 85.8849 85.6899
6356 27.3694 83.6(17) 85.8780 85.6844
6357 27.3730 86.5(17) 85.8712 85.6790
6358 27.3766 86.5(17) 85.8643 85.6736
6359 27.3802 85.7(17) 85.8575 85.6682
6360 27.3838 83.8(17) 85.8508 85.6628
6361 27.3874 84.9(17) 85.8441 85.6573
6362 27.3910 84.4(17) 85.8374 85.6519
6363 27.3946 85.7(17) 85.8307 85.6465
6364 27.3982 86(2) 85.8241 85.6411
6365 27.4018 84.6(17) 85.8175 85.6356
6366 27.4054 89.2(18) 85.8110 85.6302
6367 27.4090 83.9(17) 85.8045 85.6248
6368 27.4126 86.8(17) 85.7980 85.6193
6369 27.4162 85.7(17) 85.7915 85.6139
6370 27.4198 86.9(17) 85.7851 85.6085
6371 27.4234 87.1(17) 85.7787 85.6031
6372 27.4270 84.3(17) 85.7723 85.5976
6373 27.4306 85.5(17) 85.7660 85.5922
6374 27.4342 85.8(17) 85.7597 85.5868
6375 27.4378 84.7(17) 85.7534 85.5814
6376 27.4414 84.4(17) 85.7472 85.5760
6377 27.4450 85.0(18) 85.7410 85.5705
6378 27.4486 86.8(20) 85.7348 85.5651
6379 27.4522 86.2(17) 85.7286 85.5597
6380 27.4558 84.7(17) 85.7225 85.5543
6381 27.4594 86.5(17) 85.7164 85.5488
6382 27.4630 87.2(17) 85.7103 85.5434
6383 27.4666 85.2(17) 85.7021 85.5380
6384 27.4702 82.1(17) 85.6961 85.5326
6385 27.4738 86.0(18) 85.6901 85.5271
6386 27.4774 88(2) 85.6841 85.5217
6387 27.4810 82(2) 85.6782 85.5163
6388 27.4846 80(2) 85.6723 85.5109
6389 27.4882 83(2) 85.6664 85.5054
6390 27.4918 88.0(18) 85.6605 85.5000
6391 27.4954 86.9(17) 85.6547 85.4946
6392 27.4990 86.6(17) 85.6488 85.4892
6393 27.5026 87.4(18) 85.6431 85.4837
6394 27.5062 85.0(17) 85.6373 85.4783
6395 27.5098 86.9(17) 85.6316 85.4729
6396 27.5134 87.4(17) 85.6258 85.4675
6397 27.5170 85.7(17) 85.6201 85.4620
6398 27.5206 88.5(19) 85.6145 85.4566
6399 27.5242 87(2) 85.6088 85.4512
6400 27.5278 84.5(17) 85.6032 85.4458
6401 27.5314 84.7(17) 85.5976 85.4403
6402 27.5350 83.9(18) 85.5921 85.4349
6403 27.5386 85(2) 85.5865 85.4295
6404 27.5422 85.4(17) 85.5810 85.4241
6405 27.5458 87.6(18) 85.5755 85.4186
6406 27.5494 87.2(17) 85.5700 85.4132
6407 27.5530 85.2(17) 85.5646 85.4078
6408 27.5566 87.8(17) 85.5592 85.4024
6409 27.5602 85.4(17) 85.5538 85.3969
6410 27.5638 85.0(17) 85.5484 85.3915
6411 27.5674 86.4(17) 85.5431 85.3861
6412 27.5710 86.5(17) 85.5378 85.3807
6413 27.5746 85.9(17) 85.5325 85.3752
6414 27.5782 87.2(17) 85.5272 85.3698
6415 27.5818 85.4(17) 85.5220 85.3644
6416 27.5854 87.8(18) 85.5168 85.3590
6417 27.5890 86.9(17) 85.5116 85.3535
6418 27.5926 86.3(17) 85.5065 85.3481
6419 27.5962 84.5(17) 85.5014 85.3427
6420 27.5998 84.3(17) 85.4963 85.3373
6421 27.6034 86.3(17) 85.4912 85.3318
6422 27.6070 86.0(17) 85.4862 85.3264
6423 27.6106 84.9(17) 85.4812 85.3210
6424 27.6142 85.6(17) 85.4762 85.3156
6425 27.6178 86.3(17) 85.4713 85.3101
6426 27.6214 86.8(17) 85.4664 85.3047
6427 27.6250 87.7(17) 85.4615 85.2993
6428 27.6286 85.8(17) 85.4567 85.2939
6429 27.6322 84.5(17) 85.4519 85.2884
6430 27.6358 87.8(18) 85.4471 85.2830
6431 27.6394 85.9(17) 85.4424 85.2776
6432 27.6430 87.7(17) 85.4377 85.2722
6433 27.6466 87.6(18) 85.4331 85.2667
6434 27.6502 84.7(17) 85.4285 85.2613
6435 27.6538 83.4(17) 85.4239 85.2559
6436 27.6574 89.4(19) 85.4194 85.2505
6437 27.6610 86.2(17) 85.4149 85.2450
6438 27.6646 86.5(17) 85.4104 85.2396
6439 27.6682 85.2(17) 85.4060 85.2342
6440 27.6718 84.0(17) 85.4017 85.2288
6441 27.6754 83.2(17) 85.3974 85.2233
6442 27.6790 84.7(20) 85.3931 85.2179
6443 27.6826 85.5(17) 85.3889 85.2125
6444 27.6862 84.9(17) 85.3848 85.2071
6445 27.6898 85.6(17) 85.3807 85.2016
6446 27.6934 85.0(17) 85.3766 85.1962
6447 27.6970 86.4(17) 85.3726 85.1908
6448 27.7006 86.5(18) 85.3687 85.1854
6449 27.7042 83.7(17) 85.3648 85.1799
6450 27.7078 85.7(17) 85.3610 85.1745
6451 27.7114 87.0(17) 85.3573 85.1691
6452 27.7150 86.2(17) 85.3536 85.1637
6453 27.7186 85.7(17) 85.3500 85.1582
6454 27.7222 88.3(17) 85.3465 85.1528
6455 27.7258 88.0(17) 85.3431 85.1474
6456 27.7294 85.3(17) 85.3397 85.1420
6457 27.7330 87.5(17) 85.3317 85.1365
6458 27.7366 86(2) 85.3285 85.1311
6459 27.7402 87.4(17) 85.3254 85.1257
6460 27.7438 85.9(17) 85.3224 85.1203
6461 27.7474 84.1(17) 85.3195 85.1148
6462 27.7510 85.0(17) 85.3167 85.1094
6463 27.7546 86.5(17) 85.3140 85.1040
6464 27.7582 86.5(17) 85.3114 85.0986
6465 27.7618 85.0(17) 85.3089 85.0931
6466 27.7654 84.0(17) 85.3066 85.0877
6467 27.7690 85.2(17) 85.2992 85.0823
6468 27.7726 85.1(17) 85.2971 85.0769
6469 27.7762 84.8(17) 85.3047 85.0714
6470 27.7798 85.6(17) 85.3029 85.0660
6471 27.7834 86.6(17) 85.3027 85.0620
6472 27.7870 86.8(17) 85.3061 85.0614
6473 27.7906 85.4(17) 85.3097 85.0608
6474 27.7942 84.7(17) 85.3135 85.0603
6475 27.7978 86.5(17) 85.3175 85.0597
6476 27.8014 85.0(17) 85.3216 85.0592
6477 27.8050 86.1(17) 85.3260 85.0586
6478 27.8086 86.7(17) 85.3307 85.0581
6479 27.8122 85.7(17) 85.3355 85.0575
6480 27.8158 85.2(17) 85.3406 85.0569
6481 27.8194 86.1(17) 85.3460 85.0564
6482 27.8230 85(3) 85.3516 85.0558
6483 27.8266 89.3(18) 85.3576 85.0553
6484 27.8302 87.9(18) 85.3639 85.0547
6485 27.8338 88.1(18) 85.3706 85.0542
6486 27.8374 84.5(17) 85.3776 85.0536
6487 27.8410 86.8(17) 85.3851 85.0531
6488 27.8446 85.1(17) 85.3931 85.0525
6489 27.8482 85.4(17) 85.4016 85.0519
6490 27.8518 84.1(17) 85.4107 85.0514
6491 27.8554 86.8(19) 85.4205 85.0508
6492 27.8590 88.5(18) 85.4310 85.0503
6493 27.8626 87.3(17) 85.4424 85.0497
6494 27.8662 87.1(17) 85.4547 85.0492
6495 27.8698 86.4(18) 85.4681 85.0486
6496 27.8734 84.1(17) 85.4829 85.0480
6497 27.8770 83.2(17) 85.4991 85.0475
6498 27.8806 84.0(17) 85.5170 85.0469
6499 27.8842 83.9(17) 85.5369 85.0464
6500 27.8878 83.3(17) 85.5591 85.0458
6501 27.8914 84.9(17) 85.5840 85.0453
6502 27.8950 86.2(17) 85.6119 85.0447
6503 27.8986 86.2(17) 85.6433 85.0442
6504 27.9022 86.4(17) 85.6789 85.0436
6505 27.9058 87.5(18) 85.7191 85.0430
6506 27.9094 86.2(17) 85.7645 85.0425
6507 27.9130 86.1(17) 85.8161 85.0419
6508 27.9166 87.4(18) 85.8745 85.0414
6509 27.9202 86.6(17) 85.9405 85.0408
6510 27.9238 83.1(17) 86.0151 85.0403
6511 27.9274 84.4(17) 86.0993 85.0397
6512 27.9310 87.8(17) 86.1939 85.0392
6513 27.9346 87.9(18) 86.3000 85.0386
6514 27.9382 86.1(17) 86.4186 85.0380
6515 27.9418 85.5(17) 86.5507 85.0375
6516 27.9454 84.7(17) 86.6972 85.0369
6517 27.9490 85.1(17) 86.8588 85.0364
6518 27.9526 86.3(17) 87.0366 85.0358
6519 27.9562 87.1(18) 87.2309 85.0353
6520 27.9598 86.7(17) 87.4423 85.0347
6521 27.9634 86.1(17) 87.6712 85.0341
6522 27.9670 87.1(20) 87.9173 85.0336
6523 27.9706 83.2(17) 88.1807 85.0330
6524 27.9742 84.0(17) 88.4606 85.0325
6525 27.9778 87.4(17) 88.7564 85.0319
6526 27.9814 88.1(18) 89.0665 85.0314
6527 27.9850 87.2(17) 89.3898 85.0308
6528 27.9886 86.8(17) 89.7237 85.0303
6529 27.9922 87.6(18) 90.0660 85.0297
6530 27.9958 89.2(18) 90.4139 85.0291
6531 27.9994 85.9(17) 90.7635 85.0286
6532 28.0030 87.3(18) 91.1112 85.0280
6533 28.0066 86.9(17) 91.4520 85.0275
6534 28.0102 89.8(18) 91.7813 85.0269
6535 28.0138 89.9(18) 92.0933 85.0264
6536 28.0174 89.0(18) 92.3824 85.0258
6537 28.0210 87.8(18) 92.6428 85.0253
6538 28.0246 86.8(17) 92.8686 85.0247
6539 28.0282 88.0(18) 93.0547 85.0241
6540 28.0318 88.2(18) 93.1964 85.0236
6541 28.0354 87.9(18) 93.2902 85.0230
6542 28.0390 88.4(18) 93.3339 85.0225
6543 28.0426 90.2(18) 93.3267 85.0219
6544 28.0462 92.6(18) 93.2692 85.0214
6545 28.0498 91.5(18) 93.1633 85.0208
6546 28.0534 90.9(18) 93.0120 85.0202
6547 28.0570 91.8(18) 92.8194 85.0197
6548 28.0606 90.6(18) 92.5898 85.0191
6549 28.0642 92.3(18) 92.3286 85.0186
6550 28.0678 91.2(18) 92.0406 85.0180
6551 28.0714 90.4(18) 91.7316 85.0175
6552 28.0750 89.9(18) 91.4065 85.0169
6553 28.0786 90.4(18) 91.0702 85.0164
6554 28.0822 92.0(18) 90.7277 85.0158
6555 28.0858 92.2(18) 90.3829 85.0153
6556 28.0894 88.8(18) 90.0401 85.0147
6557 28.0930 88.8(18) 89.7022 85.0141
6558 28.0966 90.1(18) 89.3727 85.0136
6559 28.1002 92.3(18) 89.0536 85.0130
6560 28.1038 90.8(18) 88.7473 85.0125
6561 28.1074 88.7(18) 88.4552 85.0119
6562 28.1110 87.3(18) 88.1784 85.0114
6563 28.1146 87.8(18) 87.9181 85.0108
6564 28.1182 88.6(18) 87.6745 85.0102
6565 28.1218 87.7(18) 87.4481 85.0097
6566 28.1254 86.5(17) 87.2386 85.0091
6567 28.1290 88.1(18) 87.0460 85.0086
6568 28.1326 88.4(19) 86.8698 85.0080
6569 28.1362 85.1(17) 86.7091 85.0075
6570 28.1398 87.1(18) 86.5635 85.0069
6571 28.1434 85.2(17) 86.4320 85.0064
6572 28.1470 85.0(17) 86.3138 85.0058
6573 28.1506 86.0(17) 86.2078 85.0052
6574 28.1542 86.5(17) 86.1132 85.0047
6575 28.1578 84.0(17) 86.0289 85.0041
6576 28.1614 86.6(17) 85.9540 85.0036
6577 28.1650 86.7(20) 85.8877 85.0030
6578 28.1686 85.3(17) 85.8290 85.0025
6579 28.1722 85.4(17) 85.7771 85.0019
6580 28.1758 84.7(17) 85.7312 85.0014
6581 28.1794 85.4(17) 85.6907 85.0008
6582 28.1830 86.4(17) 85.6548 85.0002
6583 28.1866 86.1(19) 85.6231 84.9997
6584 28.1902 86.2(17) 85.5950 84.9991
6585 28.1938 87.2(17) 85.5700 84.9986
6586 28.1974 85.3(17) 85.5477 84.9980
6587 28.2010 83.0(17) 85.5277 84.9975
6588 28.2046 84.7(17) 85.5098 84.9969
6589 28.2082 88.0(18) 85.4937 84.9963
6590 28.2118 88.6(18) 85.4792 84.9958
6591 28.2154 88.1(18) 85.4660 84.9952
6592 28.2190 88.0(18) 85.4539 84.9947
6593 28.2226 87.5(18) 85.4429 84.9941
6594 28.2262 86.2(17) 85.4327 84.9936
6595 28.2298 87.1(18) 85.4234 84.9930
6596 28.2334 86.3(17) 85.4148 84.9925
6597 28.2370 82.5(17) 85.4068 84.9919
6598 28.2406 85.1(17) 85.3994 84.9913
6599 28.2442 88.3(18) 85.3925 84.9908
6600 28.2478 86.6(17) 85.3861 84.9902
6601 28.2514 87.4(18) 85.3801 84.9897
6602 28.2550 85.1(18) 85.3745 84.9891
6603 28.2586 86.9(17) 85.3692 84.9886
6604 28.2622 83.3(17) 85.3644 84.9880
6605 28.2658 86.5(17) 85.3598 84.9874
6606 28.2694 85.7(17) 85.3556 84.9869
6607 28.2730 84.4(17) 85.3516 84.9863
6608 28.2766 85.4(17) 85.3479 84.9858
6609 28.2802 85.9(17) 85.3445 84.9852
6610 28.2838 87.3(17) 85.3413 84.9847
6611 28.2874 89.0(18) 85.3383 84.9841
6612 28.2910 87.3(18) 85.3356 84.9836
6613 28.2946 85.7(17) 85.3331 84.9830
6614 28.2982 86.4(17) 85.3308 84.9824
6615 28.3018 87.0(18) 85.3287 84.9819
6616 28.3054 87.8(18) 85.3269 84.9813
6617 28.3090 86.9(17) 85.3252 84.9808
6618 28.3126 84.8(17) 85.3237 84.9802
6619 28.3162 84.2(17) 85.3223 84.9797
6620 28.3198 83.2(17) 85.3212 84.9791
6621 28.3234 84.6(17) 85.3202 84.9786
6622 28.3270 83.6(17) 85.3194 84.9780
6623 28.3306 87.1(19) 85.3187 84.9774
6624 28.3342 85.1(17) 85.3182 84.9769
6625 28.3378 84.5(17) 85.3179 84.9763
6626 28.3414 85.0(17) 85.3177 84.9758
6627 28.3450 84.7(17) 85.3177 84.9752
6628 28.3486 84.9(17) 85.3178 84.9747
6629 28.3522 83.6(17) 85.3181 84.9741
6630 28.3558 86.2(17) 85.3186 84.9735
6631 28.3594 87.0(18) 85.3192 84.9730
6632 28.3630 88.4(18) 85.3199 84.9724
6633 28.3666 88.5(18) 85.3208 84.9719
6634 28.3702 88.2(18) 85.3218 84.9713
6635 28.3738 86.1(20) 85.3230 84.9708
6636 28.3774 84.5(18) 85.3243 84.9702
6637 28.3810 85.3(17) 85.3258 84.9697
6638 28.3846 85.8(17) 85.3275 84.9691
6639 28.3882 87.4(18) 85.3293 84.9686
6640 28.3918 88.6(18) 85.3312 84.9680
6641 28.3954 85.5(17) 85.3333 84.9674
6642 28.3990 84.6(17) 85.3356 84.9669
6643 28.4026 84.8(20) 85.3380 84.9663
6644 28.4062 87.4(18) 85.3406 84.9658
6645 28.4098 85.0(17) 85.3434 84.9652
6646 28.4134 84(2) 85.3463 84.9647
6647 28.4170 85.9(17) 85.3494 84.9641
6648 28.4206 87.0(18) 85.3527 84.9635
6649 28.4242 85.0(17) 85.3561 84.9630
6650 28.4278 86.0(17) 85.3598 84.9624
6651 28.4314 81.3(17) 85.3636 84.9619
6652 28.4350 84.8(17) 85.3676 84.9613
6653 28.4386 82.8(17) 85.3719 84.9608
6654 28.4422 84.3(17) 85.3763 84.9602
6655 28.4458 84.6(17) 85.3810 84.9597
6656 28.4494 85.9(17) 85.3858 84.9591
6657 28.4530 86.0(17) 85.3909 84.9585
6658 28.4566 86.4(17) 85.3963 84.9580
6659 28.4602 86.8(18) 85.4018 84.9574
6660 28.4638 87.7(18) 85.4077 84.9569
6661 28.4674 88.3(18) 85.4138 84.9563
6662 28.4710 87.5(18) 85.4201 84.9558
6663 28.4746 85.5(19) 85.4268 84.9552
6664 28.4782 84.2(19) 85.4337 84.9547
6665 28.4818 87.1(18) 85.4410 84.9541
6666 28.4854 84.8(17) 85.4485 84.9535
6667 28.4890 88.5(18) 85.4564 84.9530
6668 28.4926 87.7(18) 85.4647 84.9524
6669 28.4962 89.6(18) 85.4733 84.9519
6670 28.4998 87.3(18) 85.4823 84.9513
6671 28.5034 87.7(18) 85.4917 84.9508
6672 28.5070 84.1(17) 85.5015 84.9502
6673 28.5106 86.1(17) 85.5117 84.9496
6674 28.5142 85.1(17) 85.5224 84.9491
6675 28.5178 86.8(18) 85.5336 84.9485
6676 28.5214 87.1(18) 85.5453 84.9480
6677 28.5250 88.3(18) 85.5576 84.9474
6678 28.5286 86.2(19) 85.5704 84.9469
6679 28.5322 86.5(18) 85.5839 84.9463
6680 28.5358 86.9(18) 85.5978 84.9458
6681 28.5394 86.4(18) 85.6126 84.9452
6682 28.5430 86.0(18) 85.6282 84.9446
6683 28.5466 86.0(17) 85.6446 84.9441
6684 28.5502 86.6(18) 85.6493 84.9435
6685 28.5538 87.2(18) 85.6676 84.9430
6686 28.5574 87.1(18) 85.6870 84.9424
6687 28.5610 87.1(18) 85.7076 84.9419
6688 28.5646 86.3(18) 85.7296 84.9413
6689 28.5682 87.3(18) 85.7530 84.9408
6690 28.5718 86.3(18) 85.7781 84.9402
6691 28.5754 86.5(18) 85.8051 84.9396
6692 28.5790 85.2(17) 85.8342 84.9391
6693 28.5826 85.7(17) 85.8659 84.9385
6694 28.5862 87.6(18) 85.9004 84.9380
6695 28.5898 85.9(17) 85.9381 84.9374
6696 28.5934 90.1(18) 85.9796 84.9369
6697 28.5970 85.7(17) 86.0254 84.9363
6698 28.6006 86.6(18) 86.0762 84.9357
6699 28.6042 87.8(18) 86.1328 84.9352
6700 28.6078 87.5(18) 86.1960 84.9346
6701 28.6114 87.7(18) 86.2667 84.9341
6702 28.6150 86.5(18) 86.3462 84.9335
6703 28.6186 88(2) 86.4355 84.9330
6704 28.6222 87(2) 86.5361 84.9324
6705 28.6258 86.7(18) 86.6493 84.9319
6706 28.6294 86.2(18) 86.7769 84.9313
6707 28.6330 86.2(18) 86.9204 84.9307
6708 28.6366 87.5(18) 87.0816 84.9302
6709 28.6402 89.9(18) 87.2625 84.9296
6710 28.6438 91.0(18) 87.4647 84.9291
6711 28.6474 89.5(18) 87.6906 84.9285
6712 28.6510 90.6(18) 87.9416 84.9280
6713 28.6546 89.7(18) 88.2200 84.9274
6714 28.6582 89.6(18) 88.5272 84.9268
6715 28.6618 89.0(18) 88.8650 84.9263
6716 28.6654 89.7(18) 89.2346 84.9257
6717 28.6690 88.5(18) 89.6373 84.9252
6718 28.6726 90.6(18) 90.0734 84.9246
6719 28.6762 93.4(18) 90.5436 84.9241
6720 28.6798 91.6(18) 91.0479 84.9235
6721 28.6834 91.6(18) 91.5853 84.9230
6722 28.6870 90.7(18) 92.1550 84.9224
6723 28.6906 91.6(18) 92.7545 84.9218
6724 28.6942 91.1(18) 93.3820 84.9213
6725 28.6978 94.3(18) 94.0335 84.9207
6726 28.7014 94.9(18) 94.7051 84.9202
6727 28.7050 94.7(18) 95.3924 84.9196
6728 28.7086 94.9(18) 96.0887 84.9191
6729 28.7122 96.3(19) 96.7879 84.9185
6730 28.7158 95.3(18) 97.4816 84.9180
6731 28.7194 94.8(18) 98.1617 84.9174
6732 28.7230 96.0(18) 98.8176 84.9168
6733 28.7266 96.7(19) 99.4396 84.9163
6734 28.7302 98.7(19) 100.0156 84.9157
6735 28.7338 100.0(19) 100.5343 84.9152
6736 28.7374 100.1(19) 100.9844 84.9146
6737 28.7410 101.8(19) 101.3544 84.9141
6738 28.7446 98.8(19) 101.6353 84.9135
6739 28.7482 99.0(19) 101.8191 84.9130
6740 28.7518 103.7(19) 101.9009 84.9124
6741 28.7554 100.1(19) 101.8789 84.9118
6742 28.7590 101.0(19) 101.7543 84.9113
6743 28.7626 103.2(19) 101.5315 84.9107
6744 28.7662 94.3(18) 101.2179 84.9102
6745 28.7698 97.4(19) 100.8225 84.9096
6746 28.7734 100.5(19) 100.3566 84.9091
6747 28.7770 99.3(19) 99.8313 84.9085
6748 28.7806 97.1(19) 99.2591 84.9080
6749 28.7842 97.0(19) 98.6509 84.9074
6750 28.7878 96.6(19) 98.0185 84.9068
6751 28.7914 98.1(19) 97.3718 84.9063
6752 28.7950 97.6(19) 96.7199 84.9057
6753 28.7986 95.7(19) 96.0717 84.9052
6754 28.8022 94.7(18) 95.4341 84.9046
6755 28.8058 94.0(18) 94.8144 84.9041
6756 28.8094 92.7(18) 94.2177 84.9035
6757 28.8130 93.0(18) 93.6497 84.9029
6758 28.8166 94.6(18) 93.1142 84.9024
6759 28.8202 92(2) 92.6147 84.9018
6760 28.8238 90(2) 92.1549 84.9013
6761 28.8274 91.5(18) 91.7367 84.9007
6762 28.8310 90.1(18) 91.3629 84.9002
6763 28.8346 91.6(18) 91.0346 84.8996
6764 28.8382 94.3(18) 90.7538 84.8991
6765 28.8418 92.2(18) 90.5213 84.8985
6766 28.8454 89.1(18) 90.3384 84.8979
6767 28.8490 89.8(18) 90.2057 84.8974
6768 28.8526 91.6(18) 90.1242 84.8968
6769 28.8562 87.7(18) 90.0945 84.8963
6770 28.8598 90.3(18) 90.1175 84.8957
6771 28.8634 90.0(18) 90.1939 84.8952
6772 28.8670 90.9(18) 90.3245 84.8946
6773 28.8706 91.0(18) 90.5100 84.8941
6774 28.8742 91.5(18) 90.7512 84.8935
6775 28.8778 91.5(18) 91.0489 84.8929
6776 28.8814 92.5(18) 91.4036 84.8924
6777 28.8850 94.4(18) 91.8160 84.8918
6778 28.8886 92.9(18) 92.2859 84.8913
6779 28.8922 91.3(18) 92.8138 84.8907
6780 28.8958 90.8(18) 93.3988 84.8902
6781 28.8994 91(2) 94.0405 84.8896
6782 28.9030 93(2) 94.7368 84.8890
6783 28.9066 95.1(19) 95.4859 84.8885
6784 28.9102 93.2(18) 96.2855 84.8879
6785 28.9138 94.0(18) 97.1310 84.8874
6786 28.9174 92.6(18) 98.0188 84.8868
6787 28.9210 94.1(18) 98.9423 84.8863
6788 28.9246 97.4(19) 99.8958 84.8857
6789 28.9282 94.3(19) 100.8705 84.8852
6790 28.9318 96.7(19) 101.8576 84.8846
6791 28.9354 97(2) 102.8473 84.8840
6792 28.9390 97.4(19) 103.8267 84.8835
6793 28.9426 97.1(19) 104.7838 84.8829
6794 28.9462 101.0(19) 105.7036 84.8824
6795 28.9498 98.6(19) 106.5717 84.8818
6796 28.9534 97.8(19) 107.3719 84.8813
6797 28.9570 97.1(18) 108.0890 84.8807
6798 28.9606 99.1(19) 108.7087 84.8801
6799 28.9642 101(2) 109.2169 84.8796
6800 28.9678 99.7(19) 109.6028 84.8790
6801 28.9714 100.2(19) 109.8575 84.8785
6802 28.9750 99.3(19) 109.9761 84.8779
6803 28.9786 99.1(19) 109.9564 84.8774
6804 28.9822 99.8(19) 109.7998 84.8768
6805 28.9858 99.1(19) 109.5110 84.8763
6806 28.9894 100.4(19) 109.0971 84.8757
6807 28.9930 100.0(19) 108.5671 84.8751
6808 28.9966 98.1(19) 107.9327 84.8746
6809 29.0002 99.6(19) 107.2056 84.8740
6810 29.0038 97.0(19) 106.3997 84.8735
6811 29.0074 96.7(19) 105.5277 84.8729
6812 29.0110 95.9(19) 104.6042 84.8724
6813 29.0146 96.2(19) 103.6424 84.8718
6814 29.0182 94.4(18) 102.6546 84.8713
6815 29.0218 94.0(18) 101.6539 84.8707
6816 29.0254 94.4(18) 100.6505 84.8701
6817 29.0290 93.5(18) 99.6555 84.8696
6818 29.0326 92.7(18) 98.6768 84.8690
6819 29.0362 92.5(18) 97.7231 84.8685
6820 29.0398 92.6(18) 96.7997 84.8679
6821 29.0434 91.5(18) 95.9131 84.8674
6822 29.0470 90.0(18) 95.0668 84.8668
6823 29.0506 89.4(18) 94.2637 84.8662
6824 29.0542 87.6(18) 93.5068 84.8657
6825 29.0578 87.6(18) 92.7967 84.8651
6826 29.0614 89.9(18) 92.1348 84.8646
6827 29.0650 91.1(18) 91.5202 84.8640
6828 29.0686 91.4(18) 90.9529 84.8635
6829 29.0722 91.6(18) 90.4314 84.8629
6830 29.0758 89.6(19) 89.9539 84.8624
6831 29.0794 86.6(18) 89.5189 84.8618
6832 29.0830 88.3(18) 89.1237 84.8613
6833 29.0866 89.6(18) 88.7664 84.8607
6834 29.0902 88.7(18) 88.4442 84.8601
6835 29.0938 86.9(18) 88.1546 84.8596
6836 29.0974 87.4(18) 87.8949 84.8590
6837 29.1010 90.0(18) 87.6627 84.8585
6838 29.1046 86.2(19) 87.4554 84.8579
6839 29.1082 85.0(17) 87.2705 84.8574
6840 29.1118 85.2(17) 87.1060 84.8568
6841 29.1154 88.0(18) 86.9594 84.8562
6842 29.1190 86.9(18) 86.8290 84.8557
6843 29.1226 87.2(18) 86.7128 84.8551
6844 29.1262 87.5(18) 86.6093 84.8546
6845 29.1298 86.9(18) 86.5168 84.8540
6846 29.1334 86.7(18) 86.4340 84.8535
6847 29.1370 86.5(18) 86.3598 84.8529
6848 29.1406 87.0(18) 86.2929 84.8524
6849 29.1442 87.7(18) 86.2326 84.8518
6850 29.1478 87.6(18) 86.1779 84.8512
6851 29.1514 87.8(18) 86.1281 84.8507
6852 29.1550 88.6(18) 86.0827 84.8501
6853 29.1586 88.3(18) 86.0410 84.8496
6854 29.1622 86.7(18) 86.0027 84.8490
6855 29.1658 87.4(18) 85.9672 84.8485
6856 29.1694 89.1(18) 85.9343 84.8479
6857 29.1730 87.1(18) 85.9037 84.8474
6858 29.1766 87.3(18) 85.8751 84.8468
6859 29.1802 85(2) 85.8484 84.8462
6860 29.1838 83.9(17) 85.8233 84.8457
6861 29.1874 88(2) 85.7996 84.8451
6862 29.1910 85.5(17) 85.7774 84.8446
6863 29.1946 84.1(17) 85.7563 84.8440
6864 29.1982 86(2) 85.7365 84.8435
6865 29.2018 85.4(17) 85.7177 84.8429
6866 29.2054 85.5(17) 85.6998 84.8423
6867 29.2090 85.3(17) 85.6830 84.8418
6868 29.2126 85.4(17) 85.6669 84.8412
6869 29.2162 85.4(17) 85.6517 84.8407
6870 29.2198 84.4(17) 85.6373 84.8401
6871 29.2234 85.6(17) 85.6236 84.8396
6872 29.2270 85.5(17) 85.6106 84.8390
6873 29.2306 86.0(17) 85.5983 84.8385
6874 29.2342 86.9(18) 85.5866 84.8379
6875 29.2378 87.2(18) 85.5755 84.8373
6876 29.2414 85.7(18) 85.5651 84.8368
6877 29.2450 85.4(18) 85.5551 84.8362
6878 29.2486 84.5(17) 85.5458 84.8357
6879 29.2522 84.0(17) 85.5369 84.8351
6880 29.2558 86.1(18) 85.5285 84.8346
6881 29.2594 83.5(17) 85.5207 84.8340
6882 29.2630 84.7(17) 85.5133 84.8335
6883 29.2666 87.9(18) 85.5064 84.8329
6884 29.2702 84.2(17) 85.4999 84.8323
6885 29.2738 86.5(18) 85.4939 84.8318
6886 29.2774 85.6(17) 85.4882 84.8312
6887 29.2810 88.9(18) 85.4830 84.8307
6888 29.2846 85.9(18) 85.4783 84.8301
6889 29.2882 84.7(18) 85.4739 84.8296
6890 29.2918 87.0(18) 85.4699 84.8290
6891 29.2954 86.3(18) 85.4663 84.8284
6892 29.2990 87.6(18) 85.4631 84.8279
6893 29.3026 87.5(18) 85.4602 84.8273
6894 29.3062 86.6(18) 85.4578 84.8268
6895 29.3098 84.8(18) 85.4557 84.8262
6896 29.3134 85.3(18) 85.4539 84.8257
6897 29.3170 85.2(17) 85.4526 84.8251
6898 29.3206 84.2(17) 85.4516 84.8246
6899 29.3242 85.2(17) 85.4510 84.8240
6900 29.3278 87.5(18) 85.4508 84.8234
6901 29.3314 88.6(18) 85.4509 84.8229
6902 29.3350 86.6(17) 85.4514 84.8223
6903 29.3386 84.6(18) 85.4523 84.8218
6904 29.3422 82.7(17) 85.4536 84.8212
6905 29.3458 85.1(17) 85.4552 84.8207
6906 29.3494 85.9(17) 85.4573 84.8201
6907 29.3530 84.7(17) 85.4597 84.8195
6908 29.3566 87.3(18) 85.4626 84.8190
6909 29.3602 86.0(19) 85.4659 84.8184
6910 29.3638 86.7(18) 85.4695 84.8179
6911 29.3674 84.8(19) 85.4737 84.8173
6912 29.3710 84.9(17) 85.4782 84.8168
6913 29.3746 85.6(17) 85.4833 84.8162
6914 29.3782 86.7(18) 85.4888 84.8157
6915 29.3818 85.2(17) 85.4947 84.8151
6916 29.3854 86.9(20) 85.5012 84.8146
6917 29.3890 84.2(17) 85.5082 84.8140
6918 29.3926 83.0(17) 85.5158 84.8134
6919 29.3962 86.2(17) 85.5239 84.8129
6920 29.3998 85.4(17) 85.5325 84.8123
6921 29.4034 86.2(17) 85.5418 84.8118
6922 29.4070 86.4(17) 85.5517 84.8112
6923 29.4106 85.9(17) 85.5623 84.8107
6924 29.4142 86.0(17) 85.5736 84.8101
6925 29.4178 86.2(17) 85.5855 84.8095
6926 29.4214 86.1(19) 85.5983 84.8090
6927 29.4250 84(2) 85.6119 84.8084
6928 29.4286 85(2) 85.6263 84.8079
6929 29.4322 85(2) 85.6416 84.8073
6930 29.4358 86(2) 85.6579 84.8068
6931 29.4394 85(2) 85.6753 84.8062
6932 29.4430 89(3) 85.6938 84.8057
6933 29.4466 87(2) 85.7135 84.8051
6934 29.4502 89(3) 85.7351 84.8045
6935 29.4538 88(3) 85.7576 84.8040
6936 29.4574 84(2) 85.7818 84.8034
6937 29.4610 85(2) 85.8078 84.8029
6938 29.4646 84(2) 85.8357 84.8023
6939 29.4682 85(2) 85.8660 84.8018
6940 29.4718 85(2) 85.8988 84.8012
6941 29.4754 86(2) 85.9345 84.8007
6942 29.4790 88(3) 85.9747 84.8001
6943 29.4826 84(3) 86.0175 84.7995
6944 29.4862 83(2) 86.0646 84.7990
6945 29.4898 85(2) 86.1167 84.7984
6946 29.4934 88(3) 86.1746 84.7979
6947 29.4970 88(2) 86.2390 84.7973
6948 29.5006 87(2) 86.3111 84.7968
6949 29.5042 86(2) 86.3918 84.7962
6950 29.5078 85(2) 86.4826 84.7956
6951 29.5114 85(3) 86.5848 84.7951
6952 29.5150 83(3) 86.6999 84.7945
6953 29.5186 87(2) 86.8300 84.7940
6954 29.5222 86(2) 86.9767 84.7934
6955 29.5258 88(2) 87.1423 84.7929
6956 29.5294 88(2) 87.3290 84.7923
6957 29.5330 89(3) 87.5392 84.7918
6958 29.5366 90(3) 87.7756 84.7912
6959 29.5402 87(2) 88.0406 84.7906
6960 29.5438 88(2) 88.3372 84.7901
6961 29.5474 85(2) 88.6678 84.7895
6962 29.5510 89(3) 89.0355 84.7890
6963 29.5546 91(3) 89.4425 84.7884
6964 29.5582 90(3) 89.8915 84.7879
6965 29.5618 88(3) 90.3849 84.7873
6966 29.5654 89(3) 90.9244 84.7868
6967 29.5690 87(2) 91.5119 84.7862
6968 29.5726 88(3) 92.1480 84.7856
6969 29.5762 92(3) 92.8339 84.7851
6970 29.5798 93(3) 93.5689 84.7845
6971 29.5834 89(3) 94.3526 84.7840
6972 29.5870 87(2) 95.1839 84.7834
6973 29.5906 89(3) 96.0595 84.7829
6974 29.5942 90(3) 96.9769 84.7823
6975 29.5978 89(3) 97.9309 84.7817
6976 29.6014 90(3) 98.9170 84.7812
6977 29.6050 91(3) 99.9276 84.7806
6978 29.6086 94.0(19) 100.9559 84.7801
6979 29.6122 95(2) 101.9916 84.7795
6980 29.6158 93.9(18) 103.0250 84.7790
6981 29.6194 94.8(18) 104.0447 84.7784
6982 29.6230 94.4(18) 105.0364 84.7779
6983 29.6266 92.9(18) 105.9867 84.7773
6984 29.6302 93.4(18) 106.8790 84.7767
6985 29.6338 97.2(18) 107.6977 84.7762
6986 29.6374 94.2(18) 108.4264 84.7756
6987 29.6410 93.2(18) 109.0471 84.7751
6988 29.6446 99.1(19) 109.5505 84.7745
6989 29.6482 97(2) 109.9138 84.7740
6990 29.6518 94.9(18) 110.1318 84.7734
6991 29.6554 96.5(19) 110.1981 84.7729
6992 29.6590 97.9(19) 110.1107 84.7723
6993 29.6626 98.0(19) 109.8796 84.7717
6994 29.6662 95.6(18) 109.4967 84.7712
6995 29.6698 97.0(19) 108.9801 84.7706
6996 29.6734 94.8(16) 108.3431 84.7701
6997 29.6770 94.3(16) 107.6005 84.7695
6998 29.6806 95.6(16) 106.7725 84.7718
6999 29.6842 93.8(16) 105.8720 84.7741
7000 29.6878 95.4(16) 104.9164 84.7765
7001 29.6914 94.0(16) 103.9201 84.7788
7002 29.6950 90.9(20) 102.8985 84.7811
7003 29.6986 93(2) 101.8642 84.7835
7004 29.7022 94(2) 100.8282 84.7858
7005 29.7058 93(2) 99.8019 84.7881
7006 29.7094 91(2) 98.7933 84.7905
7007 29.7130 92(2) 97.8110 84.7928
7008 29.7166 92(2) 96.8605 84.7952
7009 29.7202 90(2) 95.9480 84.7975
7010 29.7238 91(2) 95.0770 84.7998
7011 29.7274 91(2) 94.2514 84.8022
7012 29.7310 89.4(20) 93.4732 84.8045
7013 29.7346 88.5(20) 92.7434 84.8068
7014 29.7382 90(2) 92.0634 84.8092
7015 29.7418 88.2(20) 91.4326 84.8115
7016 29.7454 88.9(20) 90.8509 84.8139
7017 29.7490 90.1(20) 90.3164 84.8162
7018 29.7526 87.3(20) 89.8283 84.8185
7019 29.7562 85.9(19) 89.3841 84.8209
7020 29.7598 86.7(20) 88.9814 84.8232
7021 29.7634 85.3(19) 88.6180 84.8256
7022 29.7670 90.1(20) 88.2911 84.8279
7023 29.7706 83.7(19) 87.9981 84.8302
7024 29.7742 83.2(19) 87.7362 84.8326
7025 29.7778 86.4(20) 87.5027 84.8349
7026 29.7814 84.8(19) 87.2949 84.8372
7027 29.7850 86.7(20) 87.1104 84.8396
7028 29.7886 85.9(20) 86.9467 84.8419
7029 29.7922 85.2(19) 86.8015 84.8443
7030 29.7958 87.0(20) 86.6729 84.8466
7031 29.7994 87.2(20) 86.5587 84.8489
7032 29.8030 86.9(20) 86.4575 84.8513
7033 29.8066 85.5(19) 86.3673 84.8536
7034 29.8102 87.3(20) 86.2871 84.8560
7035 29.8138 86.5(20) 86.2153 84.8583
7036 29.8174 87.6(20) 86.1510 84.8606
7037 29.8210 86.2(20) 86.0932 84.8630
7038 29.8246 85.3(19) 86.0384 84.8653
7039 29.8282 84.6(19) 85.9910 84.8676
7040 29.8318 86.6(20) 85.9479 84.8700
7041 29.8354 88.8(20) 85.9084 84.8723
7042 29.8390 88.8(20) 85.8722 84.8747
7043 29.8426 88.3(20) 85.8388 84.8770
7044 29.8462 85.7(19) 85.8079 84.8793
7045 29.8498 83.7(19) 85.7784 84.8817
7046 29.8534 89.6(20) 85.7516 84.8840
7047 29.8570 86.2(20) 85.7266 84.8864
7048 29.8606 87.3(20) 85.7030 84.8887
7049 29.8642 86.8(20) 85.6809 84.8910
7050 29.8678 84.9(19) 85.6601 84.8934
7051 29.8714 88.4(20) 85.6404 84.8957
7052 29.8750 85.5(19) 85.6218 84.8980
7053 29.8786 86.4(16) 85.6042 84.9004
7054 29.8822 86.3(15) 85.5875 84.9027
7055 29.8858 85.9(15) 85.5716 84.9051
7056 29.8894 85.9(15) 85.5565 84.9074
7057 29.8930 85.4(15) 85.5422 84.9097
7058 29.8966 85.6(15) 85.5285 84.9121
7059 29.9002 86.1(15) 85.5155 84.9144
7060 29.9038 85.3(16) 85.5032 84.9168
7061 29.9074 85.1(16) 85.4914 84.9191
7062 29.9110 85.3(15) 85.4801 84.9214
7063 29.9146 86.6(15) 85.4694 84.9238
7064 29.9182 84.4(15) 85.4592 84.9261
7065 29.9218 84.8(15) 85.4494 84.9284
7066 29.9254 85.0(15) 85.4401 84.9308
7067 29.9290 86.1(15) 85.4313 84.9331
7068 29.9326 85.4(15) 85.4228 84.9355
7069 29.9362 84.7(15) 85.4147 84.9378
7070 29.9398 87.6(15) 85.4069 84.9401
7071 29.9434 85.0(13) 85.3996 84.9425
7072 29.9470 86.9(14) 85.3925 84.9448
7073 29.9506 86.5(14) 85.3858 84.9472
7074 29.9542 85.8(14) 85.3794 84.9495
7075 29.9578 85.5(14) 85.3732 84.9518
7076 29.9614 85.3(14) 85.3674 84.9542
7077 29.9650 84.8(14) 85.3618 84.9565
7078 29.9686 83.9(14) 85.3565 84.9588
7079 29.9722 84.0(14) 85.3514 84.9612
7080 29.9758 84.4(14) 85.3466 84.9635
7081 29.9794 85.0(14) 85.3419 84.9659
7082 29.9830 85.6(14) 85.3375 84.9682
7083 29.9866 84.3(14) 85.3333 84.9705
7084 29.9902 85.4(14) 85.3293 84.9729
7085 29.9938 85.5(14) 85.3255 84.9752
7086 29.9974 85.3(14) 85.3219 84.9776
7087 30.0010 85.8(14) 85.3184 84.9799
7088 30.0046 85.2(14) 85.3151 84.9822
7089 30.0082 84.0(14) 85.3120 84.9846
7090 30.0118 85.9(14) 85.3091 84.9869
7091 30.0154 85.8(14) 85.3062 84.9892
7092 30.0190 83.5(14) 85.3036 84.9916
7093 30.0226 84.3(14) 85.3010 84.9939
7094 30.0262 84.6(14) 85.2986 84.9963
7095 30.0298 84.3(14) 85.2964 84.9986
7096 30.0334 85.7(14) 85.2943 85.0009
7097 30.0370 87.3(14) 85.2922 85.0033
7098 30.0406 84.5(14) 85.2903 85.0056
7099 30.0442 85.3(14) 85.2886 85.0079
7100 30.0478 86.1(14) 85.2869 85.0103
7101 30.0514 85.1(14) 85.2853 85.0126
7102 30.0550 87.4(14) 85.2838 85.0150
7103 30.0586 86.7(14) 85.2824 85.0173
7104 30.0622 85.8(14) 85.2812 85.0196
7105 30.0658 84.9(14) 85.2800 85.0220
7106 30.0694 84.1(14) 85.2789 85.0243
7107 30.0730 85.9(14) 85.2779 85.0267
7108 30.0766 85.8(14) 85.2769 85.0290
7109 30.0802 85.9(14) 85.2761 85.0313
7110 30.0838 86.3(14) 85.2753 85.0337
7111 30.0874 85.7(14) 85.2746 85.0360
7112 30.0910 84.9(14) 85.2740 85.0383
7113 30.0946 86.1(14) 85.2735 85.0407
7114 30.0982 86.8(14) 85.2730 85.0430
7115 30.1018 86.3(14) 85.2726 85.0454
7116 30.1054 86.1(14) 85.2722 85.0477
7117 30.1090 85.8(14) 85.2719 85.0500
7118 30.1126 86.3(14) 85.2717 85.0524
7119 30.1162 84.9(14) 85.2715 85.0547
7120 30.1198 86.4(14) 85.2714 85.0571
7121 30.1234 84.6(14) 85.2714 85.0594
7122 30.1270 87.3(14) 85.2714 85.0617
7123 30.1306 85.9(14) 85.2714 85.0641
7124 30.1342 85.2(14) 85.2715 85.0664
7125 30.1378 84.2(14) 85.2717 85.0687
7126 30.1414 84.9(14) 85.2719 85.0711
7127 30.1450 86.3(14) 85.2721 85.0734
7128 30.1486 87.3(15) 85.2724 85.0758
7129 30.1522 85.8(14) 85.2728 85.0781
7130 30.1558 85.7(14) 85.2731 85.0804
7131 30.1594 87.1(14) 85.2736 85.0828
7132 30.1630 87.4(14) 85.2740 85.0851
7133 30.1666 86.6(14) 85.2746 85.0875
7134 30.1702 86.6(14) 85.2751 85.0898
7135 30.1738 86.1(14) 85.2757 85.0921
7136 30.1774 85.1(14) 85.2763 85.0945
7137 30.1810 85.9(14) 85.2770 85.0968
7138 30.1846 84.5(14) 85.2777 85.0991
7139 30.1882 85.7(14) 85.2784 85.1015
7140 30.1918 86.0(14) 85.2792 85.1038
7141 30.1954 86.8(14) 85.2799 85.1062
7142 30.1990 87.8(14) 85.2808 85.1085
7143 30.2026 84.1(14) 85.2816 85.1108
7144 30.2062 84.9(15) 85.2825 85.1132
7145 30.2098 85.9(14) 85.2834 85.1155
7146 30.2134 84.5(14) 85.2844 85.1179
7147 30.2170 83.8(14) 85.2854 85.1202
7148 30.2206 84.0(14) 85.2864 85.1225
7149 30.2242 85.7(14) 85.2874 85.1249
7150 30.2278 85.7(14) 85.2885 85.1272
7151 30.2314 85.5(14) 85.2895 85.1295
7152 30.2350 83.5(14) 85.2906 85.1319
7153 30.2386 84.6(14) 85.2973 85.1342
7154 30.2422 85.2(14) 85.2985 85.1366
7155 30.2458 86.3(14) 85.2997 85.1389
7156 30.2494 87.9(14) 85.3050 85.1412
7157 30.2530 86.4(14) 85.3063 85.1436
7158 30.2566 86.9(14) 85.3075 85.1459
7159 30.2602 86.4(14) 85.3089 85.1483
7160 30.2638 85.5(14) 85.3102 85.1506
7161 30.2674 84.8(14) 85.3115 85.1529
7162 30.2710 84.3(14) 85.3129 85.1553
7163 30.2746 85.1(14) 85.3165 85.1576
7164 30.2782 87.0(14) 85.3179 85.1599
7165 30.2818 85.7(14) 85.3194 85.1623
7166 30.2854 84.6(14) 85.3208 85.1646
7167 30.2890 85.5(14) 85.3223 85.1670
7168 30.2926 85.2(14) 85.3238 85.1693
7169 30.2962 82.1(13) 85.3253 85.1716
7170 30.2998 86.6(14) 85.3268 85.1740
7171 30.3034 83.2(14) 85.3284 85.1763
7172 30.3070 87.0(14) 85.3300 85.1786
7173 30.3106 87.4(14) 85.3315 85.1810
7174 30.3142 86.2(14) 85.3331 85.1833
7175 30.3178 84.9(14) 85.3348 85.1857
7176 30.3214 85.2(14) 85.3364 85.1880
7177 30.3250 84.5(14) 85.3380 85.1903
7178 30.3286 84.8(14) 85.3397 85.1927
7179 30.3322 83.7(14) 85.3414 85.1950
7180 30.3358 85.3(14) 85.3431 85.1974
7181 30.3394 86.3(14) 85.3448 85.1997
7182 30.3430 84.9(14) 85.3465 85.2020
7183 30.3466 86.8(14) 85.3482 85.2044
7184 30.3502 87.2(14) 85.3500 85.2067
7185 30.3538 86.3(14) 85.3518 85.2091
7186 30.3574 85.7(14) 85.3535 85.2114
7187 30.3610 87.9(14) 85.3553 85.2137
7188 30.3646 87.6(14) 85.3571 85.2161
7189 30.3682 86.5(14) 85.3590 85.2184
7190 30.3718 84.4(14) 85.3608 85.2207
7191 30.3754 87.3(14) 85.3626 85.2231
7192 30.3790 85.7(14) 85.3645 85.2254
7193 30.3826 86.7(14) 85.3663 85.2278
7194 30.3862 86.3(14) 85.3682 85.2301
7195 30.3898 86.0(14) 85.3701 85.2324
7196 30.3934 86.9(14) 85.3720 85.2348
7197 30.3970 86.3(14) 85.3739 85.2371
7198 30.4006 82.8(14) 85.3759 85.2394
7199 30.4042 83.0(14) 85.3778 85.2418
7200 30.4078 83.5(14) 85.3798 85.2441
7201 30.4114 84.1(14) 85.3817 85.2465
7202 30.4150 84.6(14) 85.3837 85.2488
7203 30.4186 84.6(14) 85.3857 85.2511
7204 30.4222 86.6(14) 85.3877 85.2535
7205 30.4258 85.7(14) 85.3897 85.2558
7206 30.4294 84.2(14) 85.3917 85.2582
7207 30.4330 83.8(14) 85.3937 85.2605
7208 30.4366 84.4(14) 85.3958 85.2628
7209 30.4402 85.3(14) 85.3978 85.2652
7210 30.4438 84.7(14) 85.3999 85.2675
7211 30.4474 85.6(14) 85.4019 85.2698
7212 30.4510 85.4(14) 85.4040 85.2722
7213 30.4546 85.6(14) 85.4061 85.2745
7214 30.4582 84.4(14) 85.4082 85.2769
7215 30.4618 86.6(14) 85.4103 85.2792
7216 30.4654 84.4(14) 85.4124 85.2815
7217 30.4690 86.9(14) 85.4146 85.2839
7218 30.4726 84.9(14) 85.4167 85.2862
7219 30.4762 83.5(14) 85.4188 85.2886
7220 30.4798 85.7(14) 85.4210 85.2909
7221 30.4834 83.8(14) 85.4232 85.2932
7222 30.4870 84.3(14) 85.4253 85.2956
7223 30.4906 85.7(14) 85.4275 85.2979
7224 30.4942 85.9(14) 85.4297 85.3002
7225 30.4978 86.6(14) 85.4319 85.3026
7226 30.5014 88.1(14) 85.4341 85.3049
7227 30.5050 87.5(14) 85.4363 85.3073
7228 30.5086 87.2(14) 85.4386 85.3096
7229 30.5122 87.1(14) 85.4408 85.3119
7230 30.5158 85.5(14) 85.4430 85.3143
7231 30.5194 86.2(14) 85.4453 85.3166
7232 30.5230 84.9(14) 85.4476 85.3190
7233 30.5266 84.4(14) 85.4498 85.3213
7234 30.5302 85.1(14) 85.4521 85.3236
7235 30.5338 85.9(14) 85.4544 85.3260
7236 30.5374 85.7(14) 85.4567 85.3283
7237 30.5410 85.7(14) 85.4590 85.3306
7238 30.5446 85.4(14) 85.4613 85.3330
7239 30.5482 84.4(14) 85.4636 85.3353
7240 30.5518 86.8(14) 85.4660 85.3377
7241 30.5554 85.5(14) 85.4683 85.3400
7242 30.5590 86.0(14) 85.4707 85.3423
7243 30.5626 85.4(14) 85.4730 85.3447
7244 30.5662 84.7(14) 85.4754 85.3470
7245 30.5698 82.7(14) 85.4778 85.3493
7246 30.5734 82.9(14) 85.4801 85.3517
7247 30.5770 85.4(14) 85.4825 85.3540
7248 30.5806 85.3(14) 85.4849 85.3564
7249 30.5842 84.8(15) 85.4813 85.3587
7250 30.5878 86.0(14) 85.4837 85.3610
7251 30.5914 85.1(14) 85.4861 85.3634
7252 30.5950 85.4(14) 85.4886 85.3657
7253 30.5986 85.5(14) 85.4911 85.3681
7254 30.6022 86.9(14) 85.4935 85.3704
7255 30.6058 85.7(14) 85.4960 85.3727
7256 30.6094 86.3(14) 85.4985 85.3751
7257 30.6130 86.8(14) 85.5010 85.3774
7258 30.6166 85.3(14) 85.5035 85.3798
7259 30.6202 84.1(14) 85.5060 85.3821
7260 30.6238 86.9(14) 85.5086 85.3844
7261 30.6274 86.2(14) 85.5111 85.3868
7262 30.6310 87.6(14) 85.5136 85.3891
7263 30.6346 85.1(14) 85.5162 85.3914
7264 30.6382 83.7(14) 85.5187 85.3938
7265 30.6418 85.8(14) 85.5213 85.3961
7266 30.6454 84.7(14) 85.5239 85.3985
7267 30.6490 85.7(14) 85.5265 85.4008
7268 30.6526 85.6(14) 85.5290 85.4031
7269 30.6562 86.0(14) 85.5316 85.4055
7270 30.6598 85.4(14) 85.5343 85.4078
7271 30.6634 88.1(14) 85.5369 85.4101
7272 30.6670 86.1(14) 85.5395 85.4125
7273 30.6706 85.7(14) 85.5421 85.4148
7274 30.6742 85.8(14) 85.5448 85.4172
7275 30.6778 86.1(14) 85.5474 85.4195
7276 30.6814 84.9(14) 85.5501 85.4218
7277 30.6850 83.9(14) 85.5528 85.4242
7278 30.6886 85.1(14) 85.5555 85.4265
7279 30.6922 84.9(14) 85.5581 85.4289
7280 30.6958 85.9(14) 85.5608 85.4312
7281 30.6994 85.6(14) 85.5635 85.4335
7282 30.7030 86.1(14) 85.5663 85.4359
7283 30.7066 87.3(14) 85.5690 85.4382
7284 30.7102 85.0(14) 85.5717 85.4406
7285 30.7138 84.6(14) 85.5745 85.4429
7286 30.7174 85.9(14) 85.5772 85.4452
7287 30.7210 85.4(14) 85.5800 85.4476
7288 30.7246 84.7(14) 85.5828 85.4499
7289 30.7282 84.6(14) 85.5856 85.4522
7290 30.7318 85.6(14) 85.5884 85.4546
7291 30.7354 84.6(14) 85.5912 85.4569
7292 30.7390 83.2(14) 85.5940 85.4593
7293 30.7426 85.0(14) 85.5968 85.4616
7294 30.7462 86.6(14) 85.5997 85.4639
7295 30.7498 85.2(14) 85.6025 85.4663
7296 30.7534 86.8(14) 85.6054 85.4686
7297 30.7570 85.9(14) 85.6083 85.4709
7298 30.7606 85.4(14) 85.6111 85.4733
7299 30.7642 87.3(14) 85.6140 85.4756
7300 30.7678 86.0(14) 85.6169 85.4780
7301 30.7714 85.7(14) 85.6199 85.4803
7302 30.7750 86.0(14) 85.6228 85.4826
7303 30.7786 84.8(14) 85.6257 85.4850
7304 30.7822 85.6(14) 85.6287 85.4873
7305 30.7858 84.8(16) 85.6317 85.4897
7306 30.7894 84.1(14) 85.6346 85.4920
7307 30.7930 85.5(14) 85.6376 85.4943
7308 30.7966 86.7(14) 85.6406 85.4967
7309 30.8002 85.6(14) 85.6436 85.4990
7310 30.8038 85.3(14) 85.6467 85.5013
7311 30.8074 86.3(14) 85.6497 85.5037
7312 30.8110 84.2(14) 85.6491 85.5060
7313 30.8146 85.3(14) 85.6522 85.5084
7314 30.8182 85.0(14) 85.6517 85.5107
7315 30.8218 86.1(14) 85.6549 85.5130
7316 30.8254 85.7(14) 85.6580 85.5154
7317 30.8290 85.5(14) 85.6612 85.5177
7318 30.8326 87.1(14) 85.6643 85.5201
7319 30.8362 86.7(14) 85.6675 85.5224
7320 30.8398 87.2(15) 85.6707 85.5247
7321 30.8434 83.9(14) 85.6716 85.5271
7322 30.8470 85.1(14) 85.6749 85.5294
7323 30.8506 85.9(14) 85.6781 85.5317
7324 30.8542 86.1(14) 85.6814 85.5341
7325 30.8578 85.1(14) 85.6847 85.5364
7326 30.8614 84.0(14) 85.6880 85.5388
7327 30.8650 85.0(14) 85.6913 85.5411
7328 30.8686 85.9(14) 85.6946 85.5434
7329 30.8722 85.0(14) 85.6980 85.5458
7330 30.8758 88.8(14) 85.7013 85.5481
7331 30.8794 85.0(14) 85.7047 85.5505
7332 30.8830 86.4(14) 85.7081 85.5528
7333 30.8866 87.4(14) 85.7115 85.5551
7334 30.8902 88.0(14) 85.7150 85.5575
7335 30.8938 87.9(14) 85.7184 85.5598
7336 30.8974 85.0(14) 85.7219 85.5621
7337 30.9010 85.8(14) 85.7254 85.5645
7338 30.9046 83.8(14) 85.7289 85.5668
7339 30.9082 85.1(14) 85.7325 85.5692
7340 30.9118 85.9(14) 85.7360 85.5715
7341 30.9154 87.4(14) 85.7396 85.5738
7342 30.9190 85.3(14) 85.7432 85.5762
7343 30.9226 87.1(14) 85.7468 85.5785
7344 30.9262 85.3(14) 85.7505 85.5808
7345 30.9298 83.9(14) 85.7542 85.5832
7346 30.9334 84.5(14) 85.7579 85.5855
7347 30.9370 85.8(14) 85.7616 85.5879
7348 30.9406 86.8(14) 85.7653 85.5902
7349 30.9442 87.4(14) 85.7691 85.5925
7350 30.9478 86.7(14) 85.7729 85.5949
7351 30.9514 85.7(14) 85.7767 85.5972
7352 30.9550 86.7(14) 85.7805 85.5996
7353 30.9586 86.3(14) 85.7844 85.6019
7354 30.9622 86.5(14) 85.7883 85.6042
7355 30.9658 85.3(14) 85.7922 85.6066
7356 30.9694 86.8(14) 85.7962 85.6089
7357 30.9730 85.3(14) 85.8002 85.6113
7358 30.9766 87.0(14) 85.8042 85.6136
7359 30.9802 86.7(14) 85.8083 85.6159
7360 30.9838 86.6(14) 85.8123 85.6183
7361 30.9874 87.6(14) 85.8164 85.6206
7362 30.9910 86.2(14) 85.8206 85.6229
7363 30.9946 86.7(15) 85.8248 85.6253
7364 30.9982 85.6(14) 85.8290 85.6276
7365 31.0018 85.9(14) 85.8332 85.6300
7366 31.0054 85.5(14) 85.8375 85.6323
7367 31.0090 87.1(14) 85.8419 85.6346
7368 31.0126 87.9(14) 85.8462 85.6370
7369 31.0162 86.7(14) 85.8506 85.6393
7370 31.0198 86.5(14) 85.8550 85.6416
7371 31.0234 87.1(15) 85.8595 85.6440
7372 31.0270 87.3(15) 85.8641 85.6463
7373 31.0306 86.9(14) 85.8686 85.6487
7374 31.0342 85.9(14) 85.8732 85.6510
7375 31.0378 85.9(14) 85.8779 85.6533
7376 31.0414 84.8(14) 85.8826 85.6557
7377 31.0450 84.1(14) 85.8874 85.6580
7378 31.0486 86.5(14) 85.8922 85.6604
7379 31.0522 87.1(14) 85.8970 85.6627
7380 31.0558 85.6(16) 85.9019 85.6650
7381 31.0594 84.1(14) 85.9069 85.6674
7382 31.0630 86.3(14) 85.9119 85.6697
7383 31.0666 84.8(14) 85.9169 85.6720
7384 31.0702 86.4(14) 85.9221 85.6744
7385 31.0738 85.4(14) 85.9273 85.6767
7386 31.0774 86.5(14) 85.9325 85.6791
7387 31.0810 86.9(14) 85.9378 85.6814
7388 31.0846 86.1(14) 85.9432 85.6837
7389 31.0882 85.6(14) 85.9486 85.6861
7390 31.0918 88.1(14) 85.9542 85.6884
7391 31.0954 87.8(14) 85.9597 85.6908
7392 31.0990 87.4(14) 85.9654 85.6931
7393 31.1026 86.9(14) 85.9711 85.6954
7394 31.1062 86.1(14) 85.9769 85.6978
7395 31.1098 87.2(14) 85.9828 85.7001
7396 31.1134 86.3(14) 85.9888 85.7024
7397 31.1170 86.7(14) 85.9949 85.7048
7398 31.1206 88.0(14) 86.0010 85.7071
7399 31.1242 87.2(14) 86.0072 85.7095
7400 31.1278 85.9(14) 86.0135 85.7118
7401 31.1314 83.4(14) 86.0200 85.7141
7402 31.1350 87.2(14) 86.0265 85.7165
7403 31.1386 85.9(14) 86.0331 85.7188
7404 31.1422 86.1(14) 86.0399 85.7212
7405 31.1458 87.2(14) 86.0467 85.7235
7406 31.1494 88.0(14) 86.0537 85.7258
7407 31.1530 85.9(15) 86.0608 85.7282
7408 31.1566 86.2(14) 86.0680 85.7305
7409 31.1602 87.3(14) 86.0753 85.7328
7410 31.1638 87.9(14) 86.0828 85.7352
7411 31.1674 85.5(14) 86.0904 85.7375
7412 31.1710 84.4(14) 86.0981 85.7399
7413 31.1746 85.1(14) 86.1060 85.7422
7414 31.1782 88.0(14) 86.1141 85.7445
7415 31.1818 86.0(14) 86.1223 85.7469
7416 31.1854 88.4(14) 86.1306 85.7492
7417 31.1890 88.5(14) 86.1392 85.7515
7418 31.1926 87.3(14) 86.1479 85.7539
7419 31.1962 86.9(14) 86.1569 85.7562
7420 31.1998 86.8(14) 86.1660 85.7586
7421 31.2034 86.1(14) 86.1753 85.7609
7422 31.2070 86.8(14) 86.1849 85.7632
7423 31.2106 85.4(14) 86.1946 85.7656
7424 31.2142 84.6(15) 86.2047 85.7679
7425 31.2178 86.9(14) 86.2150 85.7703
7426 31.2214 87.4(14) 86.2255 85.7726
7427 31.2250 88.4(14) 86.2363 85.7749
7428 31.2286 86.0(14) 86.2475 85.7773
7429 31.2322 87.2(14) 86.2590 85.7796
7430 31.2358 85.8(14) 86.2743 85.7820
7431 31.2394 88.9(14) 86.2865 85.7843
7432 31.2430 88.6(14) 86.2991 85.7866
7433 31.2466 87.1(14) 86.3122 85.7890
7434 31.2502 88.2(14) 86.3258 85.7913
7435 31.2538 87.9(14) 86.3399 85.7936
7436 31.2574 86.5(14) 86.3546 85.7960
7437 31.2610 88.0(14) 86.3699 85.7983
7438 31.2646 86.5(14) 86.3860 85.8007
7439 31.2682 88.2(14) 86.4029 85.8030
7440 31.2718 88.4(14) 86.4206 85.8053
7441 31.2754 87.5(14) 86.4394 85.8077
7442 31.2790 88.8(14) 86.4593 85.8100
7443 31.2826 88.4(14) 86.4805 85.8123
7444 31.2862 87.1(14) 86.5031 85.8147
7445 31.2898 88.2(14) 86.5272 85.8170
7446 31.2934 88.0(14) 86.5531 85.8194
7447 31.2970 90.1(14) 86.5810 85.8217
7448 31.3006 88.0(14) 86.6112 85.8240
7449 31.3042 86.8(14) 86.6437 85.8264
7450 31.3078 89.1(14) 86.6791 85.8287
7451 31.3114 90.2(14) 86.7174 85.8311
7452 31.3150 87.7(14) 86.7591 85.8334
7453 31.3186 89.4(14) 86.8045 85.8357
7454 31.3222 88.2(14) 86.8539 85.8381
7455 31.3258 87.5(14) 86.9077 85.8404
7456 31.3294 88.7(14) 86.9663 85.8428
7457 31.3330 90.4(14) 87.0301 85.8451
7458 31.3366 90.1(14) 87.0994 85.8474
7459 31.3402 90.3(14) 87.1747 85.8498
7460 31.3438 88.6(14) 87.2563 85.8521
7461 31.3474 89.2(14) 87.3446 85.8544
7462 31.3510 89.8(14) 87.4399 85.8568
7463 31.3546 89.3(14) 87.5424 85.8591
7464 31.3582 89.1(14) 87.6526 85.8615
7465 31.3618 89.4(14) 87.7705 85.8638
7466 31.3654 90.8(14) 87.8962 85.8661
7467 31.3690 88.4(14) 88.0299 85.8685
7468 31.3726 88.6(14) 88.1715 85.8708
7469 31.3762 90.1(14) 88.3208 85.8731
7470 31.3798 91.1(14) 88.4776 85.8755
7471 31.3834 90.7(14) 88.6416 85.8778
7472 31.3870 91.0(14) 88.8123 85.8802
7473 31.3906 90.9(14) 88.9891 85.8825
7474 31.3942 91.2(14) 89.1711 85.8848
7475 31.3978 90.3(14) 89.3575 85.8872
7476 31.4014 91.2(14) 89.5471 85.8895
7477 31.4050 91.6(14) 89.7388 85.8919
7478 31.4086 94.3(14) 89.9311 85.8942
7479 31.4122 90.1(14) 90.1225 85.8965
7480 31.4158 92.6(14) 90.3113 85.8989
7481 31.4194 93.5(14) 90.4958 85.9012
7482 31.4230 92.9(14) 90.6742 85.9035
7483 31.4266 91.8(14) 90.8445 85.9059
7484 31.4302 95.3(14) 91.0051 85.9082
7485 31.4338 94.3(15) 91.1539 85.9106
7486 31.4374 92.1(14) 91.2896 85.9129
7487 31.4410 94.4(14) 91.4107 85.9152
7488 31.4446 94.0(14) 91.5157 85.9176
7489 31.4482 95.8(17) 91.6039 85.9199
7490 31.4518 93.6(18) 91.6744 85.9222
7491 31.4554 96.1(15) 91.7273 85.9246
7492 31.4590 94.1(14) 91.7626 85.9269
7493 31.4626 92.3(14) 91.7811 85.9293
7494 31.4662 95.1(14) 91.7841 85.9316
7495 31.4698 94.0(16) 91.7734 85.9339
7496 31.4734 95.2(14) 91.7513 85.9363
7497 31.4770 94.1(14) 91.7204 85.9386
7498 31.4806 92.4(14) 91.6838 85.9410
7499 31.4842 95.5(15) 91.6449 85.9433
7500 31.4878 95.2(14) 91.6071 85.9456
7501 31.4914 94.8(14) 91.5742 85.9480
7502 31.4950 93.8(14) 91.5498 85.9503
7503 31.4986 94.7(14) 91.5377 85.9527
7504 31.5022 94.6(16) 91.5416 85.9550
7505 31.5058 91.7(14) 91.5654 85.9573
7506 31.5094 91.8(14) 91.6126 85.9597
7507 31.5130 93.7(14) 91.6871 85.9620
7508 31.5166 94.1(14) 91.7925 85.9643
7509 31.5202 93.2(14) 91.9323 85.9667
7510 31.5238 94.6(14) 92.1103 85.9690
7511 31.5274 95.7(15) 92.3298 85.9714
7512 31.5310 95.6(15) 92.5942 85.9737
7513 31.5346 95.5(15) 92.9067 85.9760
7514 31.5382 95.3(15) 93.2612 85.9784
7515 31.5418 95.0(14) 93.6790 85.9807
7516 31.5454 95.6(15) 94.1537 85.9830
7517 31.5490 96.0(15) 94.6870 85.9854
7518 31.5526 98.4(15) 95.2811 85.9877
7519 31.5562 98.8(15) 95.9376 85.9901
7520 31.5598 98.3(15) 96.6568 85.9924
7521 31.5634 98.0(15) 97.4397 85.9947
7522 31.5670 96.3(15) 98.2852 85.9971
7523 31.5706 100.2(15) 99.1930 85.9994
7524 31.5742 100.8(15) 100.1586 86.0000
7525 31.5778 102.9(15) 101.1805 85.9996
7526 31.5814 101.5(15) 102.2564 85.9993
7527 31.5850 104.5(15) 103.3805 85.9990
7528 31.5886 105.0(15) 104.5483 85.9986
7529 31.5922 105.4(15) 105.7514 85.9983
7530 31.5958 104.1(15) 106.9830 85.9980
7531 31.5994 105.1(15) 108.2323 85.9976
7532 31.6030 106.3(15) 109.4899 85.9973
7533 31.6066 108.2(15) 110.7426 85.9970
7534 31.6102 108.4(15) 111.9777 85.9966
7535 31.6138 109.1(16) 113.1815 85.9963
7536 31.6174 112.7(16) 114.3374 85.9960
7537 31.6210 113.5(16) 115.4308 85.9956
7538 31.6246 113.5(16) 116.4442 85.9953
7539 31.6282 116.1(16) 117.3624 85.9950
7540 31.6318 116.7(16) 118.1690 85.9946
7541 31.6354 113.9(16) 118.8500 85.9943
7542 31.6390 114.6(16) 119.3929 85.9939
7543 31.6426 114.4(16) 119.7864 85.9936
7544 31.6462 114.9(16) 120.0229 85.9933
7545 31.6498 116.4(16) 120.0969 85.9929
7546 31.6534 117.9(16) 120.0065 85.9926
7547 31.6570 115.9(16) 119.7531 85.9923
7548 31.6606 116.0(16) 119.3411 85.9919
7549 31.6642 116.1(16) 118.7785 85.9916
7550 31.6678 115.2(16) 118.0758 85.9913
7551 31.6714 115.6(16) 117.2453 85.9909
7552 31.6750 112.9(16) 116.3028 85.9906
7553 31.6786 111.9(16) 115.2631 85.9903
7554 31.6822 111.0(16) 114.1438 85.9899
7555 31.6858 111.4(16) 112.9603 85.9896
7556 31.6894 108.3(16) 111.7300 85.9893
7557 31.6930 107.0(15) 110.4676 85.9889
7558 31.6966 105.8(15) 109.1865 85.9886
7559 31.7002 104.7(15) 107.9011 85.9883
7560 31.7038 103.4(15) 106.6217 85.9879
7561 31.7074 101.7(15) 105.3599 85.9876
7562 31.7110 99.9(15) 104.1234 85.9873
7563 31.7146 102.4(15) 102.9211 85.9869
7564 31.7182 100.3(15) 101.7582 85.9866
7565 31.7218 101.0(15) 100.6413 85.9863
7566 31.7254 97.4(15) 99.5739 85.9859
7567 31.7290 97.8(15) 98.5587 85.9856
7568 31.7326 94.8(14) 97.5991 85.9852
7569 31.7362 95.0(14) 96.6954 85.9849
7570 31.7398 95.1(14) 95.8492 85.9846
7571 31.7434 93.8(14) 95.0597 85.9842
7572 31.7470 91.7(14) 94.3269 85.9839
7573 31.7506 96.2(15) 93.6492 85.9836
7574 31.7542 93.0(14) 93.0247 85.9832
7575 31.7578 94.1(14) 92.4520 85.9829
7576 31.7614 94.0(14) 91.9281 85.9826
7577 31.7650 92.6(14) 91.4510 85.9822
7578 31.7686 93.0(14) 91.0174 85.9819
7579 31.7722 94.1(14) 90.6250 85.9816
7580 31.7758 91.5(14) 90.2704 85.9812
7581 31.7794 91.1(14) 89.9512 85.9809
7582 31.7830 90.2(14) 89.6676 85.9806
7583 31.7866 90.2(14) 89.4099 85.9802
7584 31.7902 90.9(14) 89.1791 85.9799
7585 31.7938 90.6(14) 88.9724 85.9796
7586 31.7974 89.6(14) 88.7876 85.9792
7587 31.8010 88.7(14) 88.6222 85.9789
7588 31.8046 90.0(14) 88.4743 85.9785
7589 31.8082 90.7(14) 88.3420 85.9782
7590 31.8118 90.5(14) 88.2234 85.9779
7591 31.8154 90.4(14) 88.1171 85.9775
7592 31.8190 90.2(14) 88.0221 85.9772
7593 31.8226 89.7(14) 87.9360 85.9769
7594 31.8262 87.9(14) 87.8582 85.9765
7595 31.8298 88.1(14) 87.7878 85.9762
7596 31.8334 87.6(14) 87.7238 85.9759
7597 31.8370 87.6(14) 87.6654 85.9755
7598 31.8406 89.2(14) 87.6121 85.9752
7599 31.8442 88.9(14) 87.5632 85.9749
7600 31.8478 87.9(14) 87.5182 85.9745
7601 31.8514 87.7(14) 87.4766 85.9742
7602 31.8550 89.3(14) 87.4382 85.9739
7603 31.8586 88.9(14) 87.4025 85.9735
7604 31.8622 88.4(14) 87.3693 85.9732
7605 31.8658 88.5(14) 87.3384 85.9729
7606 31.8694 88.3(14) 87.3095 85.9725
7607 31.8730 88.2(14) 87.2824 85.9722
7608 31.8766 86.5(14) 87.2571 85.9719
7609 31.8802 87.7(15) 87.2334 85.9715
7610 31.8838 90.0(14) 87.2112 85.9712
7611 31.8874 87.0(14) 87.1903 85.9708
7612 31.8910 88.6(15) 87.1707 85.9705
7613 31.8946 89.0(14) 87.1524 85.9702
7614 31.8982 86.9(14) 87.1352 85.9698
7615 31.9018 89.1(14) 87.1191 85.9695
7616 31.9054 89.0(14) 87.1040 85.9692
7617 31.9090 90.5(14) 87.0900 85.9688
7618 31.9126 90.0(14) 87.0769 85.9685
7619 31.9162 88.2(14) 87.0647 85.9682
7620 31.9198 86.8(14) 87.0535 85.9678
7621 31.9234 88.5(14) 87.0431 85.9675
7622 31.9270 84.4(14) 87.0335 85.9672
7623 31.9306 87.4(14) 87.0248 85.9668
7624 31.9342 88.1(14) 87.0169 85.9665
7625 31.9378 87.5(14) 87.0097 85.9662
7626 31.9414 86.9(14) 87.0034 85.9658
7627 31.9450 86.7(14) 86.9977 85.9655
7628 31.9486 87.8(14) 86.9929 85.9652
7629 31.9522 87.2(14) 86.9887 85.9648
7630 31.9558 88.0(14) 86.9853 85.9645
7631 31.9594 87.3(14) 86.9826 85.9642
7632 31.9630 88.1(14) 86.9807 85.9638
7633 31.9666 88.0(14) 86.9794 85.9635
7634 31.9702 89.3(14) 86.9789 85.9632
7635 31.9738 89.2(14) 86.9838 85.9628
7636 31.9774 89.6(14) 86.9847 85.9625
7637 31.9810 88.7(14) 86.9863 85.9621
7638 31.9846 89.3(14) 86.9886 85.9618
7639 31.9882 88.0(14) 86.9917 85.9615
7640 31.9918 87.1(14) 86.9955 85.9611
7641 31.9954 86.6(14) 87.0001 85.9608
7642 31.9990 85.3(14) 87.0054 85.9605
7643 32.0026 86.4(14) 87.0115 85.9601
7644 32.0062 87.7(14) 87.0184 85.9598
7645 32.0098 86.1(14) 87.0261 85.9595
7646 32.0134 87.1(14) 87.0347 85.9591
7647 32.0170 85.4(14) 87.0442 85.9588
7648 32.0206 87.0(14) 87.0545 85.9585
7649 32.0242 86.5(14) 87.0658 85.9581
7650 32.0278 86.7(14) 87.0780 85.9578
7651 32.0314 87.0(14) 87.0913 85.9575
7652 32.0350 88.2(14) 87.1056 85.9571
7653 32.0386 88.6(14) 87.1211 85.9568
7654 32.0422 87.9(14) 87.1377 85.9565
7655 32.0458 87.4(14) 87.1557 85.9561
7656 32.0494 88.4(14) 87.1749 85.9558
7657 32.0530 87.9(14) 87.1956 85.9555
7658 32.0566 86.9(14) 87.2179 85.9551
7659 32.0602 87.3(14) 87.2420 85.9548
7660 32.0638 88.7(14) 87.2678 85.9544
7661 32.0674 88.5(14) 87.2957 85.9541
7662 32.0710 88.2(14) 87.3259 85.9538
7663 32.0746 88.2(14) 87.3586 85.9534
7664 32.0782 88.8(14) 87.3942 85.9531
7665 32.0818 90.1(14) 87.4328 85.9528
7666 32.0854 88.1(14) 87.4751 85.9524
7667 32.0890 89.5(14) 87.5212 85.9521
7668 32.0926 89.4(14) 87.5720 85.9518
7669 32.0962 90.4(14) 87.6278 85.9514
7670 32.0998 88.1(14) 87.6894 85.9511
7671 32.1034 90.0(14) 87.7576 85.9508
7672 32.1070 90.5(14) 87.8332 85.9504
7673 32.1106 90.5(14) 87.9173 85.9501
7674 32.1142 89.8(14) 88.0108 85.9498
7675 32.1178 90.0(14) 88.1151 85.9494
7676 32.1214 90.6(14) 88.2317 85.9491
7677 32.1250 90.5(14) 88.3617 85.9488
7678 32.1286 91.0(14) 88.5071 85.9484
7679 32.1322 91.4(14) 88.6695 85.9481
7680 32.1358 91.7(14) 88.8509 85.9478
7681 32.1394 89.9(14) 89.0531 85.9474
7682 32.1430 90.3(14) 89.2787 85.9471
7683 32.1466 90.8(14) 89.5297 85.9467
7684 32.1502 91.2(14) 89.8081 85.9464
7685 32.1538 91.6(14) 90.1169 85.9461
7686 32.1574 91.7(14) 90.4584 85.9457
7687 32.1610 91.7(14) 90.8348 85.9454
7688 32.1646 90.7(14) 91.2482 85.9451
7689 32.1682 97.6(15) 91.7017 85.9447
7690 32.1718 97.5(15) 92.1971 85.9444
7691 32.1754 96.8(15) 92.7356 85.9441
7692 32.1790 95.0(15) 93.3203 85.9437
7693 32.1826 96.1(15) 93.9519 85.9434
7694 32.1862 95.8(15) 94.6314 85.9431
7695 32.1898 97.0(15) 95.3589 85.9427
7696 32.1934 98.3(15) 96.1358 85.9424
7697 32.1970 97.3(15) 96.9611 85.9421
7698 32.2006 99.3(15) 97.8336 85.9417
7699 32.2042 98.1(15) 98.7508 85.9414
7700 32.2078 99.4(15) 99.7120 85.9411
7701 32.2114 99.9(15) 100.7131 85.9407
7702 32.2150 102.3(15) 101.7487 85.9404
7703 32.2186 102.7(15) 102.8162 85.9400
7704 32.2222 105.2(15) 103.9083 85.9397
7705 32.2258 105.5(15) 105.0179 85.9394
7706 32.2294 106.6(15) 106.1356 85.9390
7707 32.2330 107.6(15) 107.2546 85.9387
7708 32.2366 108.9(16) 108.3634 85.9384
7709 32.2402 109.6(16) 109.4492 85.9380
7710 32.2438 110.9(16) 110.5020 85.9377
7711 32.2474 113.7(16) 111.5075 85.9374
7712 32.2510 111.6(16) 112.4520 85.9370
7713 32.2546 111.9(16) 113.3208 85.9367
7714 32.2582 112.9(16) 114.1022 85.9364
7715 32.2618 117.3(16) 114.7825 85.9360
7716 32.2654 116.3(16) 115.3498 85.9357
7717 32.2690 114.8(16) 115.7958 85.9354
7718 32.2726 117.8(16) 116.1124 85.9350
7719 32.2762 120.4(16) 116.2948 85.9347
7720 32.2798 119.0(16) 116.3409 85.9344
7721 32.2834 116.0(16) 116.2516 85.9340
7722 32.2870 116.4(16) 116.0296 85.9337
7723 32.2906 114.8(16) 115.6808 85.9334
7724 32.2942 114.4(16) 115.2118 85.9330
7725 32.2978 112.5(16) 114.6314 85.9327
7726 32.3014 113.8(16) 113.9496 85.9324
7727 32.3050 111.5(16) 113.1780 85.9320
7728 32.3086 110.1(16) 112.3260 85.9317
7729 32.3122 110.9(16) 111.4060 85.9314
7730 32.3158 108.9(16) 110.4295 85.9310
7731 32.3194 106.9(15) 109.4091 85.9307
7732 32.3230 104.4(15) 108.3540 85.9303
7733 32.3266 103.9(15) 107.2760 85.9300
7734 32.3302 105.9(15) 106.1867 85.9297
7735 32.3338 106.0(15) 105.0934 85.9293
7736 32.3374 102.2(15) 104.0061 85.9290
7737 32.3410 101.0(16) 102.9329 85.9287
7738 32.3446 101.1(15) 101.8820 85.9283
7739 32.3482 98.3(15) 100.8573 85.9280
7740 32.3518 98.6(15) 99.8652 85.9277
7741 32.3554 100.1(15) 98.9111 85.9273
7742 32.3590 96.3(15) 97.9964 85.9270
7743 32.3626 97.4(15) 97.1248 85.9267
7744 32.3662 96.6(15) 96.2983 85.9263
7745 32.3698 96.6(15) 95.5188 85.9260
7746 32.3734 94.5(14) 94.7853 85.9257
7747 32.3770 94.5(14) 94.0987 85.9253
7748 32.3806 95.1(15) 93.4591 85.9250
7749 32.3842 93.8(14) 92.8643 85.9247
7750 32.3878 91.3(14) 92.3139 85.9243
7751 32.3914 91.8(14) 91.8061 85.9240
7752 32.3950 91.6(14) 91.3398 85.9236
7753 32.3986 91.8(15) 90.9119 85.9233
7754 32.4022 91.8(14) 90.5208 85.9230
7755 32.4058 92.3(14) 90.1647 85.9226
7756 32.4094 90.3(14) 89.8405 85.9223
7757 32.4130 89.4(14) 89.5463 85.9220
7758 32.4166 90.4(14) 89.2799 85.9216
7759 32.4202 89.6(15) 89.0394 85.9213
7760 32.4238 90.2(14) 88.8219 85.9210
7761 32.4274 90.0(14) 88.6258 85.9206
7762 32.4310 91.9(14) 88.4490 85.9203
7763 32.4346 89.6(14) 88.2899 85.9200
7764 32.4382 90.4(14) 88.1464 85.9196
7765 32.4418 91.2(14) 88.0170 85.9193
7766 32.4454 90.0(14) 87.9004 85.9190
7767 32.4490 89.2(14) 87.7950 85.9186
7768 32.4526 87.4(14) 87.6996 85.9183
7769 32.4562 88.8(14) 87.6132 85.9180
7770 32.4598 88.5(14) 87.5348 85.9176
7771 32.4634 87.6(14) 87.4632 85.9173
7772 32.4670 88.8(14) 87.3979 85.9170
7773 32.4706 87.3(14) 87.3381 85.9166
7774 32.4742 89.7(14) 87.2831 85.9163
7775 32.4778 88.5(14) 87.2323 85.9159
7776 32.4814 87.3(14) 87.1854 85.9156
7777 32.4850 86.6(14) 87.1418 85.9153
7778 32.4886 88.0(14) 87.1012 85.9149
7779 32.4922 86.8(14) 87.0632 85.9146
7780 32.4958 89.5(14) 87.0277 85.9143
7781 32.4994 90.2(14) 86.9942 85.9139
7782 32.5030 86.5(14) 86.9626 85.9136
7783 32.5066 91.2(14) 86.9328 85.9133
7784 32.5102 85.7(14) 86.9045 85.9129
7785 32.5138 88.7(14) 86.8776 85.9126
7786 32.5174 85.0(14) 86.8521 85.9123
7787 32.5210 84.6(14) 86.8277 85.9119
7788 32.5246 87.9(14) 86.8045 85.9116
7789 32.5282 89.1(14) 86.7822 85.9113
7790 32.5318 88.1(14) 86.7609 85.9109
7791 32.5354 87.5(15) 86.7405 85.9106
7792 32.5390 88.3(14) 86.7209 85.9103
7793 32.5426 86.6(14) 86.7027 85.9099
7794 32.5462 86.4(14) 86.6846 85.9096
7795 32.5498 85.7(14) 86.6672 85.9093
7796 32.5534 87.4(14) 86.6505 85.9089
7797 32.5570 87.0(15) 86.6343 85.9086
7798 32.5606 86.7(14) 86.6188 85.9082
7799 32.5642 89.5(14) 86.6038 85.9079
7800 32.5678 89.9(14) 86.5908 85.9076
7801 32.5714 88.9(14) 86.5769 85.9072
7802 32.5750 87.4(14) 86.5634 85.9069
7803 32.5786 88.4(14) 86.5504 85.9066
7804 32.5822 86.8(14) 86.5378 85.9062
7805 32.5858 86.6(14) 86.5257 85.9059
7806 32.5894 85.5(14) 86.5139 85.9056
7807 32.5930 85.5(14) 86.5025 85.9052
7808 32.5966 88.6(14) 86.4915 85.9049
7809 32.6002 88.2(14) 86.4808 85.9046
7810 32.6038 86.0(14) 86.4705 85.9042
7811 32.6074 86.4(14) 86.4605 85.9039
7812 32.6110 86.1(14) 86.4508 85.9036
7813 32.6146 86.0(14) 86.4414 85.9032
7814 32.6182 86.0(14) 86.4323 85.9029
7815 32.6218 84.9(14) 86.4235 85.9026
7816 32.6254 86.8(14) 86.4149 85.9022
7817 32.6290 87.1(14) 86.4066 85.9019
7818 32.6326 86.1(14) 86.3985 85.9016
7819 32.6362 85.7(14) 86.3907 85.9012
7820 32.6398 84.8(14) 86.3831 85.9009
7821 32.6434 85.7(14) 86.3757 85.9006
7822 32.6470 86.9(14) 86.3685 85.9002
7823 32.6506 85.3(14) 86.3615 85.8999
7824 32.6542 86.5(14) 86.3548 85.8995
7825 32.6578 85.1(14) 86.3482 85.8992
7826 32.6614 87.0(14) 86.3418 85.8989
7827 32.6650 86.5(14) 86.3356 85.8985
7828 32.6686 84.5(14) 86.3295 85.8982
7829 32.6722 85.4(14) 86.3237 85.8979
7830 32.6758 86.2(14) 86.3179 85.8975
7831 32.6794 84.8(14) 86.3124 85.8972
7832 32.6830 85.1(14) 86.3070 85.8969
7833 32.6866 88.3(14) 86.3017 85.8965
7834 32.6902 86.1(14) 86.2966 85.8962
7835 32.6938 85.5(14) 86.2916 85.8959
7836 32.6974 85.6(14) 86.2867 85.8955
7837 32.7010 87.3(14) 86.2820 85.8952
7838 32.7046 84.1(14) 86.2774 85.8949
7839 32.7082 85.5(14) 86.2730 85.8945
7840 32.7118 87.8(14) 86.2686 85.8942
7841 32.7154 87.3(14) 86.2644 85.8939
7842 32.7190 88.8(14) 86.2602 85.8935
7843 32.7226 86.9(14) 86.2562 85.8932
7844 32.7262 87.1(14) 86.2523 85.8928
7845 32.7298 89.0(14) 86.2485 85.8925
7846 32.7334 88.1(14) 86.2448 85.8922
7847 32.7370 88.0(14) 86.2412 85.8918
7848 32.7406 87.4(14) 86.2377 85.8915
7849 32.7442 86.3(14) 86.2343 85.8912
7850 32.7478 88.1(14) 86.2310 85.8908
7851 32.7514 85.8(14) 86.2278 85.8905
7852 32.7550 85.5(14) 86.2246 85.8902
7853 32.7586 86.2(14) 86.2216 85.8898
7854 32.7622 87.6(14) 86.2186 85.8895
7855 32.7658 86.2(14) 86.2157 85.8892
7856 32.7694 88.2(14) 86.2129 85.8888
7857 32.7730 85.4(14) 86.2102 85.8885
7858 32.7766 86.7(14) 86.2075 85.8882
7859 32.7802 86.6(14) 86.2049 85.8878
7860 32.7838 85.4(14) 86.2025 85.8875
7861 32.7874 86.0(14) 86.2000 85.8872
7862 32.7910 87.2(14) 86.1977 85.8868
7863 32.7946 87.7(14) 86.1954 85.8865
7864 32.7982 86.9(14) 86.1932 85.8862
7865 32.8018 86.4(14) 86.1910 85.8858
7866 32.8054 85.8(14) 86.1890 85.8855
7867 32.8090 86.6(15) 86.1870 85.8851
7868 32.8126 86.6(15) 86.1850 85.8848
7869 32.8162 84.4(15) 86.1832 85.8845
7870 32.8198 84.7(14) 86.1814 85.8841
7871 32.8234 86.8(14) 86.1796 85.8838
7872 32.8270 86.9(14) 86.1779 85.8835
7873 32.8306 86.8(14) 86.1763 85.8831
7874 32.8342 84.9(14) 86.1747 85.8828
7875 32.8378 85.7(14) 86.1732 85.8825
7876 32.8414 85.7(14) 86.1718 85.8821
7877 32.8450 87.4(14) 86.1704 85.8818
7878 32.8486 87.8(14) 86.1691 85.8815
7879 32.8522 87.0(14) 86.1679 85.8811
7880 32.8558 86.1(14) 86.1667 85.8808
7881 32.8594 85.8(14) 86.1656 85.8805
7882 32.8630 84.5(14) 86.1645 85.8801
7883 32.8666 83.7(14) 86.1635 85.8798
7884 32.8702 83.8(14) 86.1625 85.8795
7885 32.8738 86.8(14) 86.1616 85.8791
7886 32.8774 87.2(14) 86.1608 85.8788
7887 32.8810 85.9(14) 86.1600 85.8785
7888 32.8846 84.4(14) 86.1593 85.8781
7889 32.8882 85.4(14) 86.1587 85.8778
7890 32.8918 86.2(14) 86.1581 85.8774
7891 32.8954 86.7(14) 86.1576 85.8771
7892 32.8990 87.1(14) 86.1571 85.8768
7893 32.9026 87.0(14) 86.1567 85.8764
7894 32.9062 86.6(14) 86.1563 85.8761
7895 32.9098 85.8(14) 86.1561 85.8758
7896 32.9134 85.9(14) 86.1559 85.8754
7897 32.9170 87.1(15) 86.1557 85.8751
7898 32.9206 85.8(14) 86.1556 85.8748
7899 32.9242 84.4(14) 86.1556 85.8744
7900 32.9278 86.0(14) 86.1556 85.8741
7901 32.9314 87.9(14) 86.1557 85.8738
7902 32.9350 84.4(16) 86.1559 85.8734
7903 32.9386 86.6(14) 86.1562 85.8731
7904 32.9422 84.6(14) 86.1565 85.8728
7905 32.9458 86.8(14) 86.1569 85.8724
7906 32.9494 88.2(14) 86.1574 85.8721
7907 32.9530 86.7(14) 86.1579 85.8718
7908 32.9566 85.2(15) 86.1585 85.8714
7909 32.9602 85.6(14) 86.1592 85.8711
7910 32.9638 88.3(14) 86.1600 85.8708
7911 32.9674 85.6(14) 86.1609 85.8704
7912 32.9710 86.6(14) 86.1618 85.8701
7913 32.9746 86.1(14) 86.1629 85.8698
7914 32.9782 87.4(14) 86.1640 85.8694
7915 32.9818 86.1(14) 86.1652 85.8691
7916 32.9854 84.6(14) 86.1665 85.8687
7917 32.9890 82.8(14) 86.1679 85.8684
7918 32.9926 87.0(14) 86.1694 85.8681
7919 32.9962 85.8(14) 86.1711 85.8677
7920 32.9998 84.9(14) 86.1728 85.8674
7921 33.0034 85.2(14) 86.1746 85.8671
7922 33.0070 85.0(14) 86.1765 85.8667
7923 33.0106 83.9(14) 86.1786 85.8664
7924 33.0142 85.0(14) 86.1808 85.8661
7925 33.0178 86.0(14) 86.1831 85.8657
7926 33.0214 84.7(14) 86.1855 85.8654
7927 33.0250 85.0(14) 86.1881 85.8651
7928 33.0286 84.6(16) 86.1908 85.8647
7929 33.0322 83.7(14) 86.1936 85.8644
7930 33.0358 86.7(14) 86.1966 85.8641
7931 33.0394 87.9(14) 86.1998 85.8637
7932 33.0430 85.5(14) 86.2031 85.8634
7933 33.0466 85.4(14) 86.2066 85.8631
7934 33.0502 86.1(14) 86.2102 85.8627
7935 33.0538 86.0(14) 86.2141 85.8624
7936 33.0574 85.8(14) 86.2182 85.8621
7937 33.0610 86.6(14) 86.2224 85.8617
7938 33.0646 84.4(14) 86.2269 85.8614
7939 33.0682 86.4(14) 86.2316 85.8610
7940 33.0718 87.3(14) 86.2365 85.8607
7941 33.0754 87.6(15) 86.2417 85.8604
7942 33.0790 87.2(15) 86.2472 85.8600
7943 33.0826 87.6(14) 86.2529 85.8597
7944 33.0862 86.7(14) 86.2590 85.8594
7945 33.0898 87.0(14) 86.2654 85.8590
7946 33.0934 86.4(14) 86.2721 85.8587
7947 33.0970 84.6(14) 86.2792 85.8584
7948 33.1006 86.1(14) 86.2867 85.8580
7949 33.1042 85.3(14) 86.2947 85.8577
7950 33.1078 84.8(14) 86.3032 85.8574
7951 33.1114 85.2(14) 86.3122 85.8570
7952 33.1150 86.4(14) 86.3219 85.8567
7953 33.1186 87.6(14) 86.3322 85.8564
7954 33.1222 87.1(14) 86.3432 85.8560
7955 33.1258 84.9(14) 86.3551 85.8557
7956 33.1294 85.6(14) 86.3680 85.8554
7957 33.1330 87.4(14) 86.3819 85.8550
7958 33.1366 86.2(14) 86.3970 85.8547
7959 33.1402 86.0(14) 86.4135 85.8543
7960 33.1438 87.2(14) 86.4315 85.8540
7961 33.1474 87.8(14) 86.4513 85.8537
7962 33.1510 86.5(14) 86.4731 85.8533
7963 33.1546 85.8(14) 86.4971 85.8530
7964 33.1582 86.6(14) 86.5237 85.8527
7965 33.1618 86.7(14) 86.5532 85.8523
7966 33.1654 87.7(14) 86.5859 85.8520
7967 33.1690 88.3(14) 86.6223 85.8517
7968 33.1726 87.2(14) 86.6628 85.8513
7969 33.1762 87.7(15) 86.7079 85.8510
7970 33.1798 89.9(14) 86.7582 85.8507
7971 33.1834 87.0(14) 86.8141 85.8503
7972 33.1870 86.7(14) 86.8764 85.8500
7973 33.1906 88.8(14) 86.9457 85.8497
7974 33.1942 88.1(14) 87.0226 85.8493
7975 33.1978 89.5(14) 87.1078 85.8490
7976 33.2014 91.3(14) 87.2020 85.8487
7977 33.2050 88.1(14) 87.3061 85.8483
7978 33.2086 88.2(14) 87.4207 85.8480
7979 33.2122 89.7(14) 87.5464 85.8477
7980 33.2158 89.2(14) 87.6841 85.8473
7981 33.2194 91.0(14) 87.8344 85.8470
7982 33.2230 92.3(14) 87.9978 85.8466
7983 33.2266 90.2(14) 88.1747 85.8463
7984 33.2302 89.2(14) 88.3659 85.8460
7985 33.2338 93.3(14) 88.5715 85.8456
7986 33.2374 93.5(14) 88.7914 85.8453
7987 33.2410 90.2(16) 89.0263 85.8450
7988 33.2446 92.3(14) 89.2757 85.8446
7989 33.2482 93.0(14) 89.5394 85.8443
7990 33.2518 91.9(14) 89.8166 85.8440
7991 33.2554 91.5(14) 90.1072 85.8436
7992 33.2590 95.1(14) 90.4100 85.8433
7993 33.2626 95.8(15) 90.7235 85.8430
7994 33.2662 94.1(14) 91.0469 85.8426
7995 33.2698 95.5(15) 91.3783 85.8423
7996 33.2734 92.8(14) 91.7156 85.8420
7997 33.2770 96.1(15) 92.0562 85.8416
7998 33.2806 98.1(15) 92.3983 85.8413
7999 33.2842 97.2(15) 92.7385 85.8410
8000 33.2878 100.2(15) 93.0733 85.8406
8001 33.2914 97.7(15) 93.3998 85.8403
8002 33.2950 97.4(15) 93.7138 85.8400
8003 33.2986 100.5(15) 94.0111 85.8396
8004 33.3022 101.1(15) 94.2872 85.8393
8005 33.3058 99.1(16) 94.5382 85.8390
8006 33.3094 99.5(15) 94.7594 85.8386
8007 33.3130 100.4(15) 94.9466 85.8383
8008 33.3166 99.1(15) 95.0959 85.8379
8009 33.3202 97.9(15) 95.2043 85.8376
8010 33.3238 97.7(15) 95.2693 85.8373
8011 33.3274 96.4(15) 95.2893 85.8369
8012 33.3310 97.8(15) 95.2640 85.8366
8013 33.3346 97.6(15) 95.1938 85.8363
8014 33.3382 95.8(15) 95.0804 85.8359
8015 33.3418 93.8(14) 94.9265 85.8356
8016 33.3454 94.8(14) 94.7351 85.8353
8017 33.3490 97.6(15) 94.5102 85.8349
8018 33.3526 95.8(15) 94.2563 85.8346
8019 33.3562 93.5(14) 93.9773 85.8343
8020 33.3598 95.0(15) 93.6779 85.8339
8021 33.3634 94.0(14) 93.3624 85.8336
8022 33.3670 93.0(14) 93.0352 85.8333
8023 33.3706 92.7(14) 92.6996 85.8329
8024 33.3742 92.1(14) 92.3594 85.8326
8025 33.3778 91.0(14) 92.0181 85.8323
8026 33.3814 92.1(14) 91.6780 85.8319
8027 33.3850 90.7(14) 91.3418 85.8316
8028 33.3886 91.1(14) 91.0120 85.8313
8029 33.3922 90.8(14) 90.6906 85.8309
8030 33.3958 89.7(14) 90.3788 85.8306
8031 33.3994 88.5(14) 90.0782 85.8302
8032 33.4030 89.7(14) 89.7903 85.8299
8033 33.4066 89.3(14) 89.5153 85.8296
8034 33.4102 88.6(14) 89.2542 85.8292
8035 33.4138 89.3(14) 89.0074 85.8289
8036 33.4174 89.9(14) 88.7750 85.8286
8037 33.4210 88.9(14) 88.5576 85.8282
8038 33.4246 88.4(14) 88.3548 85.8279
8039 33.4282 89.0(14) 88.1665 85.8276
8040 33.4318 89.2(14) 87.9922 85.8272
8041 33.4354 88.6(14) 87.8314 85.8269
8042 33.4390 86.5(14) 87.6838 85.8266
8043 33.4426 88.1(14) 87.5488 85.8262
8044 33.4462 88.0(14) 87.4276 85.8259
8045 33.4498 85.6(14) 87.3143 85.8256
8046 33.4534 85.2(14) 87.2126 85.8252
8047 33.4570 86.8(14) 87.1207 85.8249
8048 33.4606 87.7(14) 87.0377 85.8246
8049 33.4642 86.2(14) 86.9631 85.8242
8050 33.4678 84.2(16) 86.8937 85.8216
8051 33.4714 88.2(14) 86.8266 85.8143
8052 33.4750 86.9(14) 86.7657 85.8070
8053 33.4786 86.0(14) 86.7104 85.7998
8054 33.4822 87.2(14) 86.6604 85.7925
8055 33.4858 86.4(14) 86.6148 85.7852
8056 33.4894 83.7(14) 86.5734 85.7779
8057 33.4930 85.3(14) 86.5356 85.7707
8058 33.4966 87.4(14) 86.5010 85.7634
8059 33.5002 87.3(14) 86.4693 85.7561
8060 33.5038 86.7(14) 86.4402 85.7488
8061 33.5074 85.9(14) 86.4134 85.7416
8062 33.5110 85.5(14) 86.3885 85.7343
8063 33.5146 84.0(14) 86.3654 85.7270
8064 33.5182 84.9(14) 86.3439 85.7197
8065 33.5218 87.0(14) 86.3238 85.7125
8066 33.5254 86.2(14) 86.3050 85.7052
8067 33.5290 86.6(14) 86.2872 85.6979
8068 33.5326 85.2(14) 86.2704 85.6906
8069 33.5362 85.6(14) 86.2546 85.6834
8070 33.5398 86.0(14) 86.2395 85.6761
8071 33.5434 86.6(14) 86.2252 85.6688
8072 33.5470 85.6(14) 86.2115 85.6615
8073 33.5506 86.3(14) 86.1985 85.6543
8074 33.5542 86.1(14) 86.1860 85.6470
8075 33.5578 85.1(14) 86.1740 85.6397
8076 33.5614 85.3(14) 86.1626 85.6324
8077 33.5650 85.2(14) 86.1516 85.6252
8078 33.5686 84.9(14) 86.1410 85.6179
8079 33.5722 87.0(14) 86.1309 85.6106
8080 33.5758 87.0(14) 86.1212 85.6033
8081 33.5794 87.3(14) 86.1119 85.5961
8082 33.5830 86.4(14) 86.1030 85.5888
8083 33.5866 84.5(14) 86.0944 85.5815
8084 33.5902 85.3(14) 86.0862 85.5742
8085 33.5938 86.3(14) 86.0783 85.5670
8086 33.5974 86.4(14) 86.0708 85.5597
8087 33.6010 86.2(14) 86.0636 85.5524
8088 33.6046 85.7(14) 86.0567 85.5452
8089 33.6082 87.2(14) 86.0502 85.5379
8090 33.6118 86.7(14) 86.0440 85.5306
8091 33.6154 86.6(14) 86.0382 85.5233
8092 33.6190 86.4(14) 86.0326 85.5161
8093 33.6226 86.4(14) 86.0275 85.5088
8094 33.6262 85.6(14) 86.0226 85.5015
8095 33.6298 87.5(14) 86.0171 85.4942
8096 33.6334 86.1(14) 86.0130 85.4870
8097 33.6370 85.1(14) 86.0045 85.4797
8098 33.6406 84.5(14) 86.0011 85.4724
8099 33.6442 86.7(14) 85.9980 85.4651
8100 33.6478 86.3(14) 85.9953 85.4579
8101 33.6514 86.4(14) 85.9930 85.4506
8102 33.6550 85.6(14) 85.9911 85.4433
8103 33.6586 85.9(14) 85.9823 85.4360
8104 33.6622 86.7(14) 85.9812 85.4288
8105 33.6658 86.3(14) 85.9806 85.4215
8106 33.6694 86.8(14) 85.9805 85.4142
8107 33.6730 87.7(14) 85.9809 85.4069
8108 33.6766 86.7(14) 85.9818 85.3997
8109 33.6802 85.6(14) 85.9832 85.3924
8110 33.6838 85.9(14) 85.9852 85.3851
8111 33.6874 86.2(14) 85.9879 85.3778
8112 33.6910 86.1(14) 85.9913 85.3706
8113 33.6946 86.8(14) 85.9954 85.3633
8114 33.6982 86.6(14) 86.0004 85.3560
8115 33.7018 85.9(14) 86.0062 85.3487
8116 33.7054 84.7(14) 86.0131 85.3415
8117 33.7090 86.3(14) 86.0211 85.3342
8118 33.7126 84.7(14) 86.0303 85.3269
8119 33.7162 85.0(14) 86.0408 85.3196
8120 33.7198 86.6(15) 86.0529 85.3124
8121 33.7234 84.8(14) 86.0668 85.3051
8122 33.7270 86.8(14) 86.0826 85.2978
8123 33.7306 86.8(14) 86.1005 85.2906
8124 33.7342 85.6(14) 86.1209 85.2833
8125 33.7378 84.9(14) 86.1441 85.2760
8126 33.7414 85.8(14) 86.1703 85.2687
8127 33.7450 85.8(14) 86.2001 85.2615
8128 33.7486 86.5(14) 86.2337 85.2542
8129 33.7522 85.2(14) 86.2717 85.2469
8130 33.7558 86.1(14) 86.3145 85.2396
8131 33.7594 85.8(14) 86.3628 85.2324
8132 33.7630 85.4(14) 86.4169 85.2251
8133 33.7666 85.7(14) 86.4778 85.2178
8134 33.7702 86.5(14) 86.5459 85.2105
8135 33.7738 86.7(14) 86.6219 85.2033
8136 33.7774 88.6(14) 86.7068 85.1960
8137 33.7810 88.8(14) 86.8010 85.1887
8138 33.7846 87.6(14) 86.9056 85.1814
8139 33.7882 89.0(14) 87.0210 85.1742
8140 33.7918 88.6(14) 87.1483 85.1669
8141 33.7954 86.8(14) 87.2882 85.1596
8142 33.7990 88.5(14) 87.4412 85.1523
8143 33.8026 87.6(14) 87.6083 85.1451
8144 33.8062 86.6(14) 87.7901 85.1378
8145 33.8098 86.5(14) 87.9870 85.1305
8146 33.8134 87.5(14) 88.1993 85.1232
8147 33.8170 86.9(14) 88.4279 85.1160
8148 33.8206 88.1(14) 88.6727 85.1087
8149 33.8242 88.9(14) 88.9338 85.1014
8150 33.8278 87.8(14) 89.2109 85.0941
8151 33.8314 89.8(14) 89.5043 85.0869
8152 33.8350 88.4(14) 89.8132 85.0796
8153 33.8386 88.3(14) 90.1366 85.0723
8154 33.8422 92.3(14) 90.4744 85.0650
8155 33.8458 90.3(14) 90.8250 85.0578
8156 33.8494 90.2(14) 91.1870 85.0505
8157 33.8530 92.4(14) 91.5583 85.0432
8158 33.8566 92.4(14) 91.9378 85.0359
8159 33.8602 92.3(14) 92.3226 85.0287
8160 33.8638 93.7(15) 92.7098 85.0214
8161 33.8746 96.7(15) 93.8575 84.9996
8162 33.8782 95.4(15) 94.2225 84.9923
8163 33.8818 95.2(14) 94.5725 84.9850
8164 33.8854 94.4(14) 94.9026 84.9778
8165 33.8890 95.4(14) 95.2080 84.9705
8166 33.8926 95.1(15) 95.4850 84.9632
8167 33.8962 97.1(15) 95.7291 84.9559
8168 33.8998 96.8(15) 95.9362 84.9487
8169 33.9034 97.1(15) 96.1032 84.9414
8170 33.9070 96.4(15) 96.2279 84.9341
8171 33.9106 96.4(15) 96.3084 84.9268
8172 33.9142 97.1(15) 96.3441 84.9196
8173 33.9178 97.7(15) 96.3354 84.9123
8174 33.9214 96.9(15) 96.2834 84.9050
8175 33.9250 97.0(15) 96.1902 84.8977
8176 33.9286 96.7(15) 96.0586 84.8905
8177 33.9322 96.6(15) 95.8917 84.8832
8178 33.9358 95.9(15) 95.6931 84.8759
8179 33.9394 95.7(15) 95.4668 84.8686
8180 33.9430 97.2(15) 95.2169 84.8614
8181 33.9466 98.8(17) 94.9472 84.8541
8182 33.9502 96.6(15) 94.6620 84.8468
8183 33.9538 93.9(15) 94.3657 84.8395
8184 33.9574 96.1(15) 94.0617 84.8323
8185 33.9610 95.0(15) 93.7545 84.8250
8186 33.9646 96.3(17) 93.4480 84.8177
8187 33.9682 96.1(14) 93.1463 84.8104
8188 33.9718 92.5(14) 92.8524 84.8032
8189 33.9754 93.1(15) 92.5703 84.7959
8190 33.9790 94.8(14) 92.3033 84.7886
8191 33.9826 94.3(14) 92.0542 84.7813
8192 33.9862 92.9(17) 91.8260 84.7741
8193 33.9898 93.3(15) 91.6213 84.7668
8194 33.9934 94.8(15) 91.4426 84.7595
8195 33.9970 91.1(14) 91.2915 84.7523
8196 34.0006 91.9(14) 91.1700 84.7450
8197 34.0042 93.1(14) 91.0796 84.7377
8198 34.0078 93.8(14) 91.0214 84.7304
8199 34.0114 93.1(14) 90.9964 84.7232
8200 34.0150 91.2(14) 91.0052 84.7159
8201 34.0186 91.5(14) 91.0480 84.7086
8202 34.0222 92.7(14) 91.1251 84.7013
8203 34.0258 93.2(14) 91.2360 84.6941
8204 34.0294 92.7(14) 91.3802 84.6868
8205 34.0330 92.0(14) 91.5569 84.6795
8206 34.0366 93.7(14) 91.7650 84.6722
8207 34.0402 90.9(14) 92.0030 84.6650
8208 34.0438 92.2(14) 92.2687 84.6577
8209 34.0474 95.9(15) 92.5606 84.6504
8210 34.0510 95.6(15) 92.8760 84.6431
8211 34.0546 94.8(15) 93.2120 84.6359
8212 34.0582 97.3(15) 93.5652 84.6286
8213 34.0618 95.1(14) 93.9328 84.6213
8214 34.0654 95.6(15) 94.3106 84.6140
8215 34.0690 92.6(14) 94.6938 84.6068
8216 34.0726 93.1(14) 95.0787 84.5995
8217 34.0762 94.7(14) 95.4598 84.5922
8218 34.0798 94.2(14) 95.8317 84.5849
8219 34.0834 95.6(15) 96.1885 84.5777
8220 34.0870 97.6(15) 96.5248 84.5704
8221 34.0906 97.9(15) 96.8341 84.5631
8222 34.0942 97.4(15) 97.1102 84.5558
8223 34.0978 96.1(15) 97.3477 84.5486
8224 34.1014 97.8(15) 97.5407 84.5413
8225 34.1050 97.8(15) 97.6843 84.5340
8226 34.1086 95.8(15) 97.7745 84.5267
8227 34.1122 97.1(15) 97.8086 84.5195
8228 34.1158 98.4(15) 97.7849 84.5122
8229 34.1194 98.2(15) 97.7032 84.5049
8230 34.1230 98.7(15) 97.5644 84.4977
8231 34.1266 94.8(14) 97.3709 84.4904
8232 34.1302 95.1(14) 97.1264 84.4831
8233 34.1338 97.4(15) 96.8353 84.4758
8234 34.1482 95.5(15) 95.3084 84.4467
8235 34.1518 93.7(14) 94.8638 84.4395
8236 34.1554 94.4(14) 94.4048 84.4322
8237 34.1590 94.0(14) 93.9380 84.4249
8238 34.1626 92.9(14) 93.4642 84.4176
8239 34.1662 91.3(14) 92.9895 84.4104
8240 34.1698 90.3(14) 92.5177 84.4031
8241 34.1734 89.8(14) 92.0512 84.3958
8242 34.1770 91.5(14) 91.5933 84.3885
8243 34.1806 91.6(14) 91.1475 84.3813
8244 34.1842 91.6(14) 90.7143 84.3740
8245 34.1878 91.2(14) 90.2956 84.3667
8246 34.1914 91.4(14) 89.8932 84.3594
8247 34.1950 89.8(14) 89.5084 84.3522
8248 34.1986 88.1(14) 89.1423 84.3449
8249 34.2022 87.7(14) 88.7948 84.3376
8250 34.2058 87.9(14) 88.4666 84.3303
8251 34.2094 85.8(14) 88.1582 84.3231
8252 34.2130 86.3(14) 87.8689 84.3158
8253 34.2166 86.8(16) 87.5986 84.3085
8254 34.2202 87.1(14) 87.3472 84.3012
8255 34.2238 85.6(14) 87.1141 84.2940
8256 34.2274 87.6(14) 86.8983 84.2867
8257 34.2310 85.6(14) 86.6992 84.2794
8258 34.2346 87.6(17) 86.5163 84.2722
8259 34.2382 86.4(14) 86.3482 84.2649
8260 34.2418 86.5(14) 86.1943 84.2576
8261 34.2454 86.4(14) 86.0535 84.2503
8262 34.2490 86.5(14) 85.9252 84.2431
8263 34.2526 87.0(14) 85.8081 84.2358
8264 34.2562 86.6(16) 85.7013 84.2285
8265 34.2598 85.6(15) 85.6042 84.2212
8266 34.2634 86.7(14) 85.5157 84.2140
8267 34.2670 86.5(14) 85.4351 84.2067
8268 34.2706 87.1(14) 85.3616 84.1994
8269 34.2742 87.3(14) 85.2947 84.1921
8270 34.2778 86.1(14) 85.2334 84.1849
8271 34.2814 85.3(14) 85.1772 84.1776
8272 34.2850 85.2(14) 85.1257 84.1703
8273 34.2886 86.9(14) 85.0783 84.1630
8274 34.2922 86.9(14) 85.0345 84.1558
8275 34.2958 84.3(14) 84.9940 84.1485
8276 34.2994 83.9(14) 84.9563 84.1412
8277 34.3030 86.0(14) 84.9157 84.1339
8278 34.3066 83.6(14) 84.8828 84.1267
8279 34.3102 83.6(14) 84.8520 84.1194
8280 34.3138 83.5(14) 84.8229 84.1121
8281 34.3174 87.7(17) 84.7914 84.1048
8282 34.3210 84.6(14) 84.7653 84.0976
8283 34.3246 85.3(14) 84.7405 84.0903
8284 34.3282 84.7(14) 84.7168 84.0830
8285 34.3318 84.7(14) 84.6941 84.0757
8286 34.3354 83.8(13) 84.6723 84.0685
8287 34.3390 84.0(14) 84.6514 84.0612
8288 34.3426 82.9(15) 84.6313 84.0539
8289 34.3462 85.2(15) 84.6096 84.0466
8290 34.3498 84.3(15) 84.5908 84.0394
8291 34.3534 83.7(15) 84.5725 84.0321
8292 34.3570 85.5(15) 84.5548 84.0248
8293 34.3606 85.9(15) 84.5377 84.0175
8294 34.3642 83.9(15) 84.5210 84.0103
8295 34.3678 85.6(15) 84.5048 84.0030
8296 34.3714 83.8(15) 84.4889 83.9957
8297 34.3750 85.1(15) 84.4736 83.9885
8298 34.3786 84.8(15) 84.4585 83.9812
8299 34.3822 84.9(15) 84.4439 83.9739
8300 34.3858 84.9(15) 84.4296 83.9666
8301 34.3894 85.0(15) 84.4156 83.9594
8302 34.3930 84.7(15) 84.4020 83.9521
8303 34.3966 85.1(15) 84.3887 83.9448
8304 34.4002 86.4(15) 84.3757 83.9375
8305 34.4038 83.0(15) 84.3630 83.9303
8306 34.4074 83.0(15) 84.3505 83.9230
8307 34.4110 84.7(15) 84.3384 83.9157
8308 34.4146 85.1(15) 84.3265 83.9084
8309 34.4182 83.6(19) 84.3149 83.9012
8310 34.4218 81.8(19) 84.3035 83.8939
8311 34.4254 84.4(19) 84.2924 83.8866
8312 34.4290 85.1(19) 84.2816 83.8793
8313 34.4326 84.3(19) 84.2709 83.8721
8314 34.4362 81.6(19) 84.2606 83.8648
8315 34.4398 83.7(19) 84.2504 83.8575
8316 34.4434 87.7(20) 84.2405 83.8502
8317 34.4470 85(2) 84.2309 83.8430
8318 34.4506 82.3(19) 84.2214 83.8357
8319 34.4542 84.0(19) 84.2122 83.8284
8320 34.4578 85.5(19) 84.2032 83.8211
8321 34.4614 84.4(19) 84.1945 83.8139
8322 34.4650 83.6(19) 84.1860 83.8066
8323 34.4686 82.8(19) 84.1777 83.7993
8324 34.4722 83.3(19) 84.1697 83.7920
8325 34.4758 84.4(19) 84.1619 83.7848
8326 34.4794 85.5(19) 84.1544 83.7775
8327 34.4830 83.3(19) 84.1471 83.7702
8328 34.4866 82.9(19) 84.1401 83.7629
8329 34.4902 85(2) 84.1334 83.7557
8330 34.4938 86(2) 84.1269 83.7484
8331 34.4974 82(2) 84.1208 83.7411
8332 34.5010 85.7(19) 84.1150 83.7338
8333 34.5046 85.3(19) 84.1095 83.7266
8334 34.5082 84.2(19) 84.1044 83.7193
8335 34.5118 85.4(19) 84.0996 83.7120
8336 34.5154 83.9(19) 84.0953 83.7048
8337 34.5190 84.0(19) 84.0915 83.6975
8338 34.5226 82.9(19) 84.0881 83.6902
8339 34.5262 82.2(19) 84.0853 83.6829
8340 34.5298 84.9(19) 84.0831 83.6757
8341 34.5334 85.7(20) 84.0816 83.6684
8342 34.5370 84.6(19) 84.0808 83.6611
8343 34.5406 84.4(19) 84.0808 83.6538
8344 34.5442 83.4(19) 84.0818 83.6466
8345 34.5478 83.6(19) 84.0838 83.6393
8346 34.5514 83.5(19) 84.0869 83.6320
8347 34.5550 84.6(19) 84.0914 83.6247
8348 34.5586 81.7(19) 84.0972 83.6175
8349 34.5622 83.6(19) 84.1047 83.6102
8350 34.5658 85.8(20) 84.1140 83.6029
8351 34.5694 87.6(20) 84.1252 83.5956
8352 34.5730 85.7(19) 84.1387 83.5884
8353 34.5766 86.1(20) 84.1546 83.5811
8354 34.5802 87.2(20) 84.1732 83.5738
8355 34.5838 84.4(19) 84.1948 83.5665
8356 34.5874 87(3) 84.2197 83.5593
8357 34.5910 85(2) 84.2481 83.5520
8358 34.5946 85.4(19) 84.2804 83.5447
8359 34.5982 84.1(19) 84.3170 83.5374
8360 34.6018 86.8(17) 84.3581 83.5302
8361 34.6054 84.1(14) 84.4041 83.5229
8362 34.6090 85.6(15) 84.4554 83.5156
8363 34.6126 86.3(17) 84.5123 83.5083
8364 34.6162 87.0(17) 84.5751 83.5011
8365 34.6198 86.4(17) 84.6441 83.4938
8366 34.6234 88.8(18) 84.7197 83.4865
8367 34.6270 87.8(18) 84.8021 83.4792
8368 34.6306 87.0(17) 84.8914 83.4720
8369 34.6342 85.9(17) 84.9880 83.4647
8370 34.6378 88.2(18) 85.0920 83.4574
8371 34.6414 87.9(18) 85.2034 83.4501
8372 34.6450 88.4(19) 85.3221 83.4429
8373 34.6486 88.1(18) 85.4483 83.4356
8374 34.6522 86.4(17) 85.5816 83.4283
8375 34.6558 85.7(17) 85.7218 83.4211
8376 34.6594 88.4(18) 85.8688 83.4138
8377 34.6630 89.9(18) 86.0218 83.4065
8378 34.6666 88.9(18) 86.1805 83.3992
8379 34.6702 89.8(18) 86.3439 83.3920
8380 34.6738 88.0(17) 86.5116 83.3847
8381 34.6774 86.8(15) 86.6823 83.3774
8382 34.6810 89.3(15) 86.8551 83.3701
8383 34.6846 88.9(15) 87.0285 83.3629
8384 34.6882 88.7(18) 87.2026 83.3556
8385 34.6918 89(2) 87.3735 83.3483
8386 34.6954 89.1(20) 87.5405 83.3410
8387 34.6990 89.5(20) 87.7054 83.3338
8388 34.7026 91(2) 87.8598 83.3265
8389 34.7062 89(2) 88.0051 83.3192
8390 34.7098 90.8(20) 88.1391 83.3119
8391 34.7134 93(2) 88.2603 83.3047
8392 34.7170 91(2) 88.3667 83.2974
8393 34.7206 87(3) 88.4579 83.2901
8394 34.7242 88.4(20) 88.5297 83.2828
8395 34.7278 88.1(20) 88.5819 83.2756
8396 34.7314 89(3) 88.6137 83.2683
8397 34.7350 89(2) 88.6240 83.2610
8398 34.7386 91(2) 88.6126 83.2537
8399 34.7422 89.0(20) 88.5793 83.2465
8400 34.7458 86.8(20) 88.5246 83.2392
8401 34.7494 86.5(20) 88.4491 83.2319
8402 34.7530 90.2(20) 88.3540 83.2246
8403 34.7566 92(2) 88.2406 83.2174
8404 34.7602 92(2) 88.1109 83.2101
8405 34.7638 91(2) 87.9665 83.2028
8406 34.7674 85.5(19) 87.8094 83.1955
8407 34.7710 84.7(19) 87.6419 83.1883
8408 34.7746 86.7(20) 87.4658 83.1810
8409 34.7782 86.2(20) 87.2831 83.1737
8410 34.7818 87.4(20) 87.0957 83.1665
8411 34.7854 87.3(20) 86.9057 83.1592
8412 34.7890 85.7(19) 86.7143 83.1519
8413 34.7926 87.5(20) 86.5230 83.1446
8414 34.7962 89.1(20) 86.3335 83.1374
8415 34.7998 87.8(20) 86.1465 83.1301
8416 34.8034 87.0(20) 85.9632 83.1228
8417 34.8070 87.1(20) 85.7846 83.1155
8418 34.8106 85.7(19) 85.6115 83.1083
8419 34.8142 86.4(20) 85.4441 83.1010
8420 34.8178 87.2(20) 85.2833 83.0937
8421 34.8214 85.6(19) 85.1294 83.0864
8422 34.8250 84.1(19) 84.9828 83.0792
8423 34.8286 81.7(19) 84.8434 83.0719
8424 34.8322 86(2) 84.7115 83.0646
8425 34.8358 84.9(19) 84.5872 83.0573
8426 34.8394 83.1(19) 84.4703 83.0501
8427 34.8430 83.8(19) 84.3607 83.0428
8428 34.8466 84.9(19) 84.2582 83.0355
8429 34.8502 84.4(19) 84.1629 83.0282
8430 34.8538 82.9(19) 84.0742 83.0210
8431 34.8574 82.9(19) 83.9919 83.0137
8432 34.8610 85(2) 83.9158 83.0064
8433 34.8646 85.5(19) 83.8454 82.9992
8434 34.8682 83.4(19) 83.7804 82.9919
8435 34.8718 83.2(17) 83.7205 82.9846
8436 34.8754 83.0(15) 83.6655 82.9773
8437 34.8790 82.8(15) 83.6147 82.9701
8438 34.8826 85.0(15) 83.5680 82.9628
8439 34.8862 83.4(15) 83.5251 82.9555
8440 34.8898 84.9(15) 83.4855 82.9482
8441 34.8934 82.8(15) 83.4490 82.9410
8442 34.8970 83.5(15) 83.4153 82.9337
8443 34.9006 83.9(15) 83.3841 82.9264
8444 34.9042 84.6(15) 83.3552 82.9191
8445 34.9078 83.4(17) 83.3284 82.9119
8446 34.9114 83.5(15) 83.3034 82.9046
8447 34.9150 85.6(15) 83.2800 82.8973
8448 34.9186 86.3(15) 83.2580 82.8900
8449 34.9222 86.1(15) 83.2374 82.8828
8450 34.9258 85.7(15) 83.2179 82.8755
8451 34.9294 85.1(15) 83.1995 82.8682
8452 34.9330 83.9(15) 83.1819 82.8609
8453 34.9366 85.1(15) 83.1652 82.8537
8454 34.9402 85.6(15) 83.1492 82.8464
8455 34.9438 84.5(15) 83.1338 82.8391
8456 34.9474 84.8(13) 83.1189 82.8318
8457 34.9510 85.6(14) 83.1046 82.8246
8458 34.9546 84.6(14) 83.0907 82.8173
8459 34.9582 82.9(13) 83.0773 82.8100
8460 34.9618 81.8(13) 83.0642 82.8027
8461 34.9654 83.4(14) 83.0514 82.7955
8462 34.9690 82.0(13) 83.0389 82.7882
8463 34.9726 83.1(14) 83.0267 82.7809
8464 34.9762 84.4(15) 83.0147 82.7737
8465 34.9798 85.1(14) 83.0030 82.7664
8466 34.9834 83.9(14) 82.9915 82.7591
8467 34.9870 83.2(14) 82.9801 82.7518
8468 34.9906 85.1(14) 82.9690 82.7446
8469 34.9942 84.8(14) 82.9580 82.7373
8470 34.9978 82.0(13) 82.9472 82.7300
8471 35.0014 83.4(14) 82.9365 82.7227
8472 35.0050 82.2(13) 82.9260 82.7155
8473 35.0086 82.7(14) 82.9155 82.7082
8474 35.0122 81.2(13) 82.9052 82.7009
8475 35.0158 82.5(15) 82.8951 82.6936
8476 35.0194 82.5(14) 82.8850 82.6864
8477 35.0230 81.3(13) 82.8751 82.6791
8478 35.0266 81.7(13) 82.8652 82.6718
8479 35.0302 83.2(14) 82.8555 82.6645
8480 35.0338 83.2(14) 82.8458 82.6573
8481 35.0374 83.2(14) 82.8363 82.6500
8482 35.0410 82.5(14) 82.8268 82.6427
8483 35.0446 84.2(14) 82.8174 82.6354
8484 35.0482 84.4(14) 82.8081 82.6282
8485 35.0518 84.1(14) 82.7988 82.6209
8486 35.0554 83.9(14) 82.7896 82.6136
8487 35.0590 82.9(14) 82.7806 82.6063
8488 35.0626 83.5(14) 82.7715 82.5991
8489 35.0662 83.3(14) 82.7626 82.5918
8490 35.0698 82.2(13) 82.7537 82.5845
8491 35.0734 82.7(14) 82.7448 82.5772
8492 35.0770 82.1(13) 82.7360 82.5700
8493 35.0806 81.2(13) 82.7273 82.5627
8494 35.0842 83.1(14) 82.7187 82.5554
8495 35.0878 85.5(14) 82.7101 82.5481
8496 35.0914 82.8(14) 82.7015 82.5409
8497 35.0950 82.9(14) 82.6930 82.5336
8498 35.0986 83.1(14) 82.6845 82.5263
8499 35.1022 83.8(14) 82.6761 82.5190
8500 35.1058 84.3(14) 82.6678 82.5118
8501 35.1094 84.0(14) 82.6595 82.5045
8502 35.1130 82.4(13) 82.6512 82.4972
8503 35.1166 82.0(13) 82.6430 82.4900
8504 35.1202 82.3(14) 82.6348 82.4827
8505 35.1238 82.4(13) 82.6267 82.4754
8506 35.1274 82.5(14) 82.6186 82.4681
8507 35.1310 82.1(13) 82.6105 82.4609
8508 35.1346 82.4(13) 82.6025 82.4536
8509 35.1382 83.1(14) 82.5945 82.4463
8510 35.1418 82.1(13) 82.5866 82.4390
8511 35.1454 82.9(14) 82.5787 82.4318
8512 35.1490 83.1(14) 82.5708 82.4245
8513 35.1526 82.7(14) 82.5630 82.4172
8514 35.1562 84.3(14) 82.5552 82.4099
8515 35.1598 83.7(14) 82.5475 82.4027
8516 35.1634 85.7(14) 82.5397 82.3954
8517 35.1670 81.8(13) 82.5321 82.3881
8518 35.1706 83.7(14) 82.5244 82.3808
8519 35.1742 83.4(14) 82.5168 82.3736
8520 35.1778 84.7(14) 82.5092 82.3663
8521 35.1814 83.1(14) 82.5016 82.3590
8522 35.1850 84.7(14) 82.4941 82.3517
8523 35.1886 85.3(14) 82.4866 82.3445
8524 35.1922 84.1(14) 82.4792 82.3372
8525 35.1958 85.1(14) 82.4718 82.3299
8526 35.1994 85.1(14) 82.4644 82.3226
8527 35.2030 84.4(14) 82.4570 82.3154
8528 35.2066 82.6(14) 82.4497 82.3081
8529 35.2102 81.7(13) 82.4424 82.3008
8530 35.2138 82.7(14) 82.4352 82.2935
8531 35.2174 83.9(14) 82.4279 82.2863
8532 35.2210 82.8(14) 82.4207 82.2790
8533 35.2246 83.7(14) 82.4136 82.2717
8534 35.2282 84.3(14) 82.4064 82.2644
8535 35.2318 84.2(14) 82.3994 82.2572
8536 35.2354 83.0(14) 82.3923 82.2499
8537 35.2390 84.5(14) 82.3853 82.2426
8538 35.2426 84.3(14) 82.3783 82.2353
8539 35.2462 84.5(14) 82.3713 82.2281
8540 35.2498 81.9(15) 82.3644 82.2208
8541 35.2534 82.7(14) 82.3575 82.2135
8542 35.2570 81.5(13) 82.3507 82.2063
8543 35.2606 82.4(13) 82.3438 82.1990
8544 35.2642 83.8(14) 82.3371 82.1917
8545 35.2678 82.1(13) 82.3303 82.1844
8546 35.2714 81.1(13) 82.3236 82.1772
8547 35.2750 83.2(14) 82.3170 82.1699
8548 35.2786 83.4(14) 82.3103 82.1626
8549 35.2822 83.6(14) 82.3038 82.1553
8550 35.2858 84.5(14) 82.2972 82.1481
8551 35.2894 82.4(14) 82.2907 82.1408
8552 35.2930 81.9(13) 82.2842 82.1335
8553 35.2966 82.0(13) 82.2778 82.1262
8554 35.3002 81.6(13) 82.2715 82.1190
8555 35.3038 81.0(13) 82.2651 82.1117
8556 35.3074 82.3(13) 82.2589 82.1044
8557 35.3110 83.7(14) 82.2526 82.0971
8558 35.3146 83.5(14) 82.2465 82.0899
8559 35.3182 84.7(14) 82.2403 82.0826
8560 35.3218 80.8(13) 82.2343 82.0753
8561 35.3254 83.6(14) 82.2282 82.0680
8562 35.3290 83.6(14) 82.2223 82.0608
8563 35.3326 84.8(14) 82.2164 82.0535
8564 35.3362 82.9(14) 82.2105 82.0462
8565 35.3398 85.2(14) 82.2047 82.0389
8566 35.3434 85.1(14) 82.1990 82.0317
8567 35.3470 81.8(13) 82.1934 82.0244
8568 35.3506 82.0(14) 82.1878 82.0171
8569 35.3542 84.2(14) 82.1822 82.0098
8570 35.3578 82.2(15) 82.1768 82.0026
8571 35.3614 82.0(13) 82.1716 81.9954
8572 35.3650 83.8(14) 82.1715 81.9934
8573 35.3686 84.4(14) 82.1716 81.9914
8574 35.3722 84.9(14) 82.1717 81.9894
8575 35.3758 85.2(14) 82.1719 81.9874
8576 35.3794 83.7(14) 82.1722 81.9854
8577 35.3830 81.8(13) 82.1727 81.9834
8578 35.3866 83.0(14) 82.1731 81.9813
8579 35.3902 83.1(14) 82.1738 81.9793
8580 35.3938 83.4(14) 82.1745 81.9773
8581 35.3974 85.1(14) 82.1753 81.9753
8582 35.4010 83.0(14) 82.1762 81.9733
8583 35.4046 82.4(13) 82.1773 81.9713
8584 35.4082 82.9(14) 82.1785 81.9693
8585 35.4118 83.8(14) 82.1799 81.9672
8586 35.4154 83.4(14) 82.1814 81.9652
8587 35.4190 82.2(13) 82.1830 81.9632
8588 35.4226 83.7(14) 82.1814 81.9612
8589 35.4262 84.0(14) 82.1833 81.9592
8590 35.4298 83.7(14) 82.1855 81.9572
8591 35.4334 83.4(14) 82.1879 81.9552
8592 35.4370 81.4(13) 82.1906 81.9531
8593 35.4406 83.4(14) 82.1934 81.9511
8594 35.4442 83.2(14) 82.1965 81.9491
8595 35.4478 82.2(13) 82.1999 81.9471
8596 35.4514 83.6(14) 82.2036 81.9451
8597 35.4550 83.4(14) 82.2077 81.9431
8598 35.4586 84.0(14) 82.2121 81.9411
8599 35.4622 81.7(13) 82.2170 81.9390
8600 35.4658 82.0(13) 82.2223 81.9370
8601 35.4694 83.0(14) 82.2281 81.9350
8602 35.4730 84.5(14) 82.2345 81.9330
8603 35.4766 83.5(14) 82.2416 81.9310
8604 35.4802 81.6(13) 82.2494 81.9290
8605 35.4838 83.2(14) 82.2580 81.9270
8606 35.4874 84.2(14) 82.2676 81.9249
8607 35.4910 82.5(13) 82.2782 81.9229
8608 35.4946 83.5(14) 82.2900 81.9209
8609 35.4982 84.3(14) 82.3031 81.9189
8610 35.5018 83.0(14) 82.3177 81.9169
8611 35.5054 85.0(14) 82.3340 81.9149
8612 35.5090 82.8(13) 82.3522 81.9129
8613 35.5126 83.8(14) 82.3724 81.9109
8614 35.5162 83.0(14) 82.3949 81.9088
8615 35.5198 85.1(14) 82.4201 81.9068
8616 35.5234 84.6(14) 82.4481 81.9048
8617 35.5270 84.4(14) 82.4793 81.9028
8618 35.5306 84.5(14) 82.5139 81.9008
8619 35.5342 83.8(14) 82.5524 81.8988
8620 35.5378 83.9(14) 82.5950 81.8968
8621 35.5414 82.1(13) 82.6422 81.8947
8622 35.5450 83.3(14) 82.6943 81.8927
8623 35.5486 83.8(14) 82.7517 81.8907
8624 35.5522 83.7(14) 82.8156 81.8887
8625 35.5558 83.1(14) 82.8847 81.8867
8626 35.5594 84.6(14) 82.9603 81.8847
8627 35.5630 83.6(14) 83.0426 81.8827
8628 35.5666 84.0(14) 83.1320 81.8806
8629 35.5702 84.4(14) 83.2288 81.8786
8630 35.5738 83.5(14) 83.3334 81.8766
8631 35.5774 85.9(14) 83.4458 81.8746
8632 35.5810 84.5(14) 83.5664 81.8726
8633 35.5846 82.3(13) 83.6952 81.8706
8634 35.5882 83.4(14) 83.8322 81.8686
8635 35.5918 86.9(14) 83.9774 81.8665
8636 35.5954 88.8(14) 84.1307 81.8645
8637 35.5990 87.4(14) 84.2920 81.8625
8638 35.6026 85.3(14) 84.4607 81.8605
8639 35.6062 87.6(14) 84.6367 81.8585
8640 35.6098 87.9(14) 84.8193 81.8565
8641 35.6134 85.2(15) 85.0079 81.8545
8642 35.6170 85.9(14) 85.2014 81.8524
8643 35.6206 86.6(14) 85.3994 81.8504
8644 35.6242 87.7(14) 85.6006 81.8484
8645 35.6278 87.0(14) 85.8035 81.8464
8646 35.6314 85.8(14) 86.0072 81.8444
8647 35.6350 85.2(14) 86.2099 81.8424
8648 35.6386 86.7(14) 86.4099 81.8404
8649 35.6422 88.6(14) 86.6052 81.8383
8650 35.6458 87.9(14) 86.7941 81.8363
8651 35.6494 86.4(14) 86.9744 81.8343
8652 35.6530 88.4(14) 87.1435 81.8323
8653 35.6566 89.2(14) 87.2995 81.8303
8654 35.6602 90.3(14) 87.4400 81.8283
8655 35.6638 88.7(14) 87.5626 81.8263
8656 35.6674 88.5(14) 87.6651 81.8242
8657 35.6710 90.3(14) 87.7459 81.8222
8658 35.6746 89.0(14) 87.8033 81.8202
8659 35.6782 89.2(14) 87.8362 81.8182
8660 35.6818 89.5(14) 87.8439 81.8162
8661 35.6854 89.4(14) 87.8262 81.8142
8662 35.6890 90.3(14) 87.7834 81.8122
8663 35.6926 88.3(14) 87.7166 81.8102
8664 35.6962 88.1(14) 87.6267 81.8081
8665 35.6998 90.1(14) 87.5155 81.8061
8666 35.7034 87.3(16) 87.3850 81.8041
8667 35.7070 89.8(14) 87.2375 81.8021
8668 35.7106 90.6(14) 87.0748 81.8001
8669 35.7142 88.6(14) 86.8995 81.7981
8670 35.7178 88.1(14) 86.7139 81.7961
8671 35.7214 87.7(14) 86.5201 81.7940
8672 35.7250 87.9(14) 86.3201 81.7920
8673 35.7286 87.5(14) 86.1160 81.7900
8674 35.7322 88.7(14) 85.9098 81.7880
8675 35.7358 87.4(14) 85.7028 81.7860
8676 35.7394 85.8(14) 85.4966 81.7840
8677 35.7430 85.9(14) 85.2928 81.7820
8678 35.7466 86.1(14) 85.0922 81.7799
8679 35.7502 86.5(14) 84.8960 81.7779
8680 35.7538 87.0(14) 84.7051 81.7759
8681 35.7574 85.0(14) 84.5205 81.7739
8682 35.7610 85.3(14) 84.3424 81.7719
8683 35.7646 86.3(14) 84.1716 81.7699
8684 35.7682 84.4(14) 84.0086 81.7679
8685 35.7718 85.5(14) 83.8533 81.7658
8686 35.7754 84.4(14) 83.7061 81.7638
8687 35.7790 85.3(14) 83.5672 81.7618
8688 35.7826 85.1(14) 83.4366 81.7598
8689 35.7862 85.1(14) 83.3141 81.7578
8690 35.7898 82.9(14) 83.1996 81.7558
8691 35.7934 85.7(14) 83.0931 81.7538
8692 35.7970 84.5(14) 82.9941 81.7517
8693 35.8006 83.0(14) 82.9024 81.7497
8694 35.8042 85.4(14) 82.8178 81.7477
8695 35.8078 86.9(14) 82.7400 81.7457
8696 35.8114 83.3(14) 82.6684 81.7437
8697 35.8150 82.8(14) 82.6028 81.7417
8698 35.8186 84.8(14) 82.5428 81.7397
8699 35.8222 85.0(14) 82.4881 81.7376
8700 35.8258 83.1(14) 82.4381 81.7356
8701 35.8294 83.0(14) 82.3926 81.7336
8702 35.8330 82.3(13) 82.3512 81.7316
8703 35.8366 85.6(14) 82.3135 81.7296
8704 35.8402 85.3(14) 82.2793 81.7276
8705 35.8438 83.0(14) 82.2481 81.7256
8706 35.8474 81.4(13) 82.2198 81.7235
8707 35.8510 83.8(14) 82.1940 81.7215
8708 35.8546 83.1(14) 82.1705 81.7195
8709 35.8582 82.7(14) 82.1491 81.7175
8710 35.8618 80.8(13) 82.1294 81.7155
8711 35.8654 82.1(13) 82.1114 81.7135
8712 35.8690 81.4(13) 82.0949 81.7115
8713 35.8726 81.6(13) 82.0797 81.7094
8714 35.8762 81.9(13) 82.0656 81.7074
8715 35.8798 83.6(14) 82.0526 81.7054
8716 35.8834 82.6(14) 82.0405 81.7034
8717 35.8870 82.4(14) 82.0292 81.7014
8718 35.8906 84.2(14) 82.0186 81.6994
8719 35.8942 82.1(14) 82.0087 81.6974
8720 35.8978 83.5(14) 81.9994 81.6954
8721 35.9014 84.1(14) 81.9905 81.6933
8722 35.9050 83.2(14) 81.9822 81.6913
8723 35.9086 83.0(14) 81.9743 81.6893
8724 35.9122 82.8(14) 81.9667 81.6873
8725 35.9158 84.1(14) 81.9595 81.6853
8726 35.9194 84.0(14) 81.9526 81.6833
8727 35.9230 83.1(14) 81.9460 81.6813
8728 35.9266 83.5(14) 81.9397 81.6792
8729 35.9302 83.5(14) 81.9336 81.6772
8730 35.9338 82.7(13) 81.9277 81.6752
8731 35.9374 80.5(13) 81.9220 81.6732
8732 35.9410 83.0(14) 81.9166 81.6712
8733 35.9446 82.5(13) 81.9113 81.6692
8734 35.9482 82.9(14) 81.9062 81.6672
8735 35.9518 82.4(14) 81.9013 81.6651
8736 35.9554 82.7(14) 81.8965 81.6631
8737 35.9590 82.5(14) 81.8919 81.6611
8738 35.9626 83.1(14) 81.8874 81.6591
8739 35.9662 83.4(14) 81.8830 81.6571
8740 35.9698 83.2(14) 81.8788 81.6551
8741 35.9734 81.3(13) 81.8747 81.6531
8742 35.9770 81.1(13) 81.8707 81.6510
8743 35.9806 82.3(13) 81.8669 81.6490
8744 35.9842 82.6(13) 81.8631 81.6470
8745 35.9878 81.7(13) 81.8595 81.6450
8746 35.9914 83.3(14) 81.8560 81.6430
8747 35.9950 84.0(14) 81.8526 81.6410
8748 35.9986 84.8(14) 81.8492 81.6390
8749 36.0022 82.7(14) 81.8460 81.6369
8750 36.0058 81.7(13) 81.8429 81.6349
8751 36.0094 82.2(14) 81.8398 81.6329
8752 36.0130 84.6(14) 81.8369 81.6309
8753 36.0166 82.3(13) 81.8340 81.6289
8754 36.0202 81.6(13) 81.8313 81.6269
8755 36.0238 82.7(14) 81.8286 81.6249
8756 36.0274 81.1(14) 81.8260 81.6228
8757 36.0310 79.6(15) 81.8235 81.6208
8758 36.0346 81.5(13) 81.8210 81.6188
8759 36.0382 83.3(14) 81.8152 81.6168
8760 36.0418 82.2(13) 81.8129 81.6148
8761 36.0454 83.0(14) 81.8108 81.6128
8762 36.0490 82.2(13) 81.8087 81.6108
8763 36.0526 80.0(13) 81.8066 81.6087
8764 36.0562 82.9(14) 81.8047 81.6067
8765 36.0598 83.1(14) 81.8028 81.6047
8766 36.0634 84.9(14) 81.8013 81.6027
8767 36.0670 82.2(13) 81.7996 81.6007
8768 36.0706 81.9(13) 81.7980 81.5987
8769 36.0742 82.6(14) 81.7965 81.5967
8770 36.0778 82.1(13) 81.7950 81.5947
8771 36.0814 82.9(14) 81.7929 81.5926
8772 36.0850 84.1(14) 81.7916 81.5906
8773 36.0886 82.3(14) 81.7903 81.5886
8774 36.0922 82.7(14) 81.7892 81.5866
8775 36.0958 82.1(13) 81.7886 81.5846
8776 36.0994 83.6(14) 81.7876 81.5826
8777 36.1030 83.8(14) 81.7867 81.5806
8778 36.1066 82.0(13) 81.7859 81.5785
8779 36.1102 82.6(14) 81.7852 81.5765
8780 36.1138 81.3(13) 81.7846 81.5745
8781 36.1174 82.0(13) 81.7840 81.5725
8782 36.1210 84.2(14) 81.7836 81.5705
8783 36.1246 83.1(14) 81.7833 81.5685
8784 36.1282 82.0(13) 81.7830 81.5665
8785 36.1318 82.9(14) 81.7829 81.5644
8786 36.1354 81.0(13) 81.7828 81.5624
8787 36.1390 82.0(13) 81.7829 81.5604
8788 36.1426 82.2(13) 81.7831 81.5584
8789 36.1462 84.0(14) 81.7833 81.5564
8790 36.1498 82.5(14) 81.7837 81.5544
8791 36.1534 81.6(13) 81.7843 81.5524
8792 36.1570 82.0(13) 81.7849 81.5503
8793 36.1606 82.0(13) 81.7857 81.5483
8794 36.1642 79.9(13) 81.7867 81.5463
8795 36.1678 81.7(13) 81.7877 81.5443
8796 36.1714 83.2(14) 81.7890 81.5423
8797 36.1750 82.5(13) 81.7904 81.5403
8798 36.1786 81.6(13) 81.7919 81.5383
8799 36.1822 81.6(13) 81.7937 81.5362
8800 36.1858 81.5(13) 81.7956 81.5342
8801 36.1894 83.7(14) 81.7977 81.5322
8802 36.1930 82.6(14) 81.8001 81.5302
8803 36.1966 84.8(14) 81.8027 81.5282
8804 36.2002 82.6(14) 81.8055 81.5262
8805 36.2038 81.0(13) 81.8086 81.5242
8806 36.2074 81.2(13) 81.8120 81.5221
8807 36.2110 83.4(14) 81.8158 81.5201
8808 36.2146 82.2(14) 81.8199 81.5181
8809 36.2182 81.5(13) 81.8244 81.5161
8810 36.2218 82.1(14) 81.8293 81.5141
8811 36.2254 81.8(13) 81.8347 81.5121
8812 36.2290 81.6(13) 81.8407 81.5101
8813 36.2326 82.6(14) 81.8473 81.5080
8814 36.2362 83.6(14) 81.8552 81.5060
8815 36.2398 84.0(14) 81.8632 81.5040
8816 36.2434 83.2(14) 81.8720 81.5020
8817 36.2470 82.7(14) 81.8817 81.5000
8818 36.2506 83.7(14) 81.8932 81.4980
8819 36.2542 84.2(14) 81.9052 81.4960
8820 36.2578 82.3(14) 81.9137 81.4939
8821 36.2614 81.8(13) 81.9284 81.4919
8822 36.2650 80.9(13) 81.9448 81.4899
8823 36.2686 79.8(13) 81.9630 81.4879
8824 36.2722 83.2(14) 81.9832 81.4859
8825 36.2758 81.0(13) 82.0057 81.4839
8826 36.2794 82.0(15) 82.0306 81.4819
8827 36.2830 83.9(14) 82.0582 81.4799
8828 36.2866 83.9(14) 82.0889 81.4778
8829 36.2902 84.0(14) 82.1228 81.4758
8830 36.2938 80.9(13) 82.1603 81.4738
8831 36.2974 80.5(13) 82.2017 81.4718
8832 36.3010 81.9(13) 82.2474 81.4698
8833 36.3046 83.4(14) 82.2976 81.4678
8834 36.3082 83.3(14) 82.3527 81.4658
8835 36.3118 84.3(14) 82.4131 81.4637
8836 36.3154 83.0(14) 82.4790 81.4617
8837 36.3190 82.2(13) 82.5508 81.4597
8838 36.3226 83.0(14) 82.6290 81.4577
8839 36.3262 84.8(14) 82.7136 81.4557
8840 36.3298 83.1(14) 82.8052 81.4537
8841 36.3334 82.4(14) 82.9036 81.4517
8842 36.3370 82.6(14) 83.0095 81.4496
8843 36.3406 82.3(14) 83.1229 81.4476
8844 36.3442 84.3(14) 83.2437 81.4456
8845 36.3478 82.1(13) 83.3723 81.4436
8846 36.3514 80.9(13) 83.5085 81.4416
8847 36.3550 80.9(13) 83.6524 81.4396
8848 36.3586 82.3(13) 83.8035 81.4376
8849 36.3622 82.2(13) 83.9619 81.4355
8850 36.3658 81.9(17) 84.1273 81.4335
8851 36.3694 84.0(14) 84.2989 81.4315
8852 36.3730 84.3(14) 84.4765 81.4295
8853 36.3766 81.7(14) 84.6595 81.4275
8854 36.3802 81.6(13) 84.8469 81.4255
8855 36.3838 83.9(14) 85.0377 81.4235
8856 36.3874 84.1(15) 85.2313 81.4214
8857 36.3910 83.7(14) 85.4262 81.4194
8858 36.3946 82.8(14) 85.6210 81.4174
8859 36.3982 81.1(13) 85.8147 81.4154
8860 36.4018 82.1(13) 86.0055 81.4134
8861 36.4054 84.3(14) 86.1917 81.4114
8862 36.4090 82.9(14) 86.3712 81.4094
8863 36.4126 81.8(13) 86.5426 81.4073
8864 36.4162 82.6(14) 86.7038 81.4053
8865 36.4198 82.3(13) 86.8526 81.4033
8866 36.4234 83.4(14) 86.9874 81.4013
8867 36.4270 84.1(14) 87.1063 81.3993
8868 36.4306 83.0(14) 87.2075 81.3973
8869 36.4342 82.1(14) 87.2896 81.3953
8870 36.4378 84.4(14) 87.3515 81.3932
8871 36.4414 82.4(14) 87.3921 81.3912
8872 36.4450 84.8(14) 87.4108 81.3892
8873 36.4486 84.9(14) 87.4073 81.3872
8874 36.4522 84.0(14) 87.3818 81.3852
8875 36.4558 81.3(14) 87.3345 81.3832
8876 36.4594 82.1(13) 87.2664 81.3812
8877 36.4630 83.7(14) 87.1782 81.3792
8878 36.4666 84.8(14) 87.0714 81.3771
8879 36.4702 84.0(14) 86.9474 81.3751
8880 36.4738 84.4(14) 86.8081 81.3731
8881 36.4774 85.9(14) 86.6550 81.3711
8882 36.4810 86.3(14) 86.4901 81.3691
8883 36.4846 84.1(14) 86.3157 81.3671
8884 36.4882 82.2(13) 86.1331 81.3651
8885 36.4918 81.7(13) 85.9444 81.3630
8886 36.4954 82.8(14) 85.7515 81.3610
8887 36.4990 83.9(14) 85.5561 81.3590
8888 36.5026 83.4(14) 85.3594 81.3570
8889 36.5062 82.9(14) 85.1631 81.3550
8890 36.5098 83.3(14) 84.9685 81.3530
8891 36.5134 81.6(13) 84.7765 81.3510
8892 36.5170 79.8(13) 84.5882 81.3489
8893 36.5206 81.7(13) 84.4046 81.3469
8894 36.5242 82.6(14) 84.2265 81.3449
8895 36.5278 81.9(14) 84.0542 81.3429
8896 36.5314 82.4(14) 83.8885 81.3409
8897 36.5350 82.3(14) 83.7298 81.3389
8898 36.5386 83.7(14) 83.5782 81.3369
8899 36.5422 82.6(14) 83.4341 81.3348
8900 36.5458 83.3(14) 83.2976 81.3328
8901 36.5494 82.5(14) 83.1689 81.3308
8902 36.5530 83.7(14) 83.0478 81.3288
8903 36.5566 82.7(14) 82.9342 81.3268
8904 36.5602 82.5(14) 82.8281 81.3248
8905 36.5638 82.5(14) 82.7293 81.3228
8906 36.5674 81.4(13) 82.6375 81.3207
8907 36.5710 82.0(13) 82.5526 81.3187
8908 36.5746 83.9(14) 82.4742 81.3167
8909 36.5782 81.8(13) 82.4019 81.3147
8910 36.5818 82.9(14) 82.3356 81.3127
8911 36.5854 81.9(14) 82.2748 81.3107
8912 36.5890 83.0(14) 82.2193 81.3087
8913 36.5926 83.8(14) 82.1687 81.3066
8914 36.5962 83.5(14) 82.1226 81.3046
8915 36.5998 81.2(13) 82.0807 81.3026
8916 36.6034 83.8(14) 82.0428 81.3006
8917 36.6070 85.4(14) 82.0084 81.2986
8918 36.6106 82.9(14) 81.9773 81.2966
8919 36.6142 82.3(14) 81.9493 81.2946
8920 36.6178 83.3(14) 81.9240 81.2925
8921 36.6214 81.7(13) 81.9012 81.2905
8922 36.6250 82.1(14) 81.8807 81.2885
8923 36.6286 80.4(13) 81.8623 81.2865
8924 36.6322 80.0(13) 81.8457 81.2845
8925 36.6358 82.6(14) 81.8308 81.2825
8926 36.6394 83.2(14) 81.8174 81.2805
8927 36.6430 82.0(13) 81.8055 81.2784
8928 36.6466 81.0(13) 81.7947 81.2764
8929 36.6502 82.5(14) 81.7851 81.2744
8930 36.6538 83.1(14) 81.7766 81.2724
8931 36.6574 84.0(14) 81.7689 81.2704
8932 36.6610 82.7(14) 81.7621 81.2684
8933 36.6646 82.0(13) 81.7561 81.2664
8934 36.6682 83.1(14) 81.7508 81.2644
8935 36.6718 82.9(14) 81.7462 81.2623
8936 36.6754 81.8(13) 81.7421 81.2603
8937 36.6790 81.4(13) 81.7387 81.2583
8938 36.6826 81.6(13) 81.7358 81.2563
8939 36.6862 81.2(13) 81.7334 81.2543
8940 36.6898 82.3(13) 81.7314 81.2523
8941 36.6934 84.7(14) 81.7299 81.2503
8942 36.6970 83.5(14) 81.7289 81.2482
8943 36.7006 83.0(14) 81.7283 81.2462
8944 36.7042 84.0(14) 81.7282 81.2442
8945 36.7078 80.8(13) 81.7284 81.2422
8946 36.7114 80.7(13) 81.7291 81.2402
8947 36.7150 80.8(13) 81.7302 81.2382
8948 36.7186 81.0(13) 81.7317 81.2362
8949 36.7222 82.5(14) 81.7336 81.2341
8950 36.7258 81.6(13) 81.7359 81.2321
8951 36.7294 81.2(13) 81.7386 81.2301
8952 36.7330 81.0(13) 81.7419 81.2281
8953 36.7366 82.2(14) 81.7455 81.2261
8954 36.7402 82.1(13) 81.7496 81.2241
8955 36.7438 82.1(13) 81.7542 81.2221
8956 36.7474 82.3(13) 81.7592 81.2200
8957 36.7510 82.1(13) 81.7648 81.2180
8958 36.7546 82.0(13) 81.7710 81.2160
8959 36.7582 82.8(14) 81.7777 81.2140
8960 36.7618 82.0(13) 81.7850 81.2120
8961 36.7654 82.4(13) 81.7931 81.2100
8962 36.7690 85.6(14) 81.8018 81.2080
8963 36.7726 83.3(14) 81.8113 81.2059
8964 36.7762 82.5(13) 81.8216 81.2039
8965 36.7798 84.0(14) 81.8328 81.2019
8966 36.7834 81.8(13) 81.8450 81.1999
8967 36.7870 82.0(13) 81.8583 81.1979
8968 36.7906 82.6(14) 81.8728 81.1959
8969 36.7942 84.3(14) 81.8886 81.1939
8970 36.7978 83.1(14) 81.9060 81.1918
8971 36.8014 81.0(13) 81.9249 81.1898
8972 36.8050 81.6(13) 81.9457 81.1878
8973 36.8086 81.9(13) 81.9685 81.1858
8974 36.8122 82.2(13) 81.9936 81.1838
8975 36.8158 84.9(14) 82.0212 81.1818
8976 36.8194 83.0(14) 82.0516 81.1798
8977 36.8230 82.0(13) 82.0852 81.1777
8978 36.8266 81.9(14) 82.1224 81.1757
8979 36.8302 81.6(14) 82.1634 81.1737
8980 36.8338 82.0(14) 82.2088 81.1717
8981 36.8374 83.5(14) 82.2590 81.1697
8982 36.8410 82.5(14) 82.3146 81.1677
8983 36.8446 83.4(14) 82.3761 81.1657
8984 36.8482 84.0(14) 82.4441 81.1636
8985 36.8518 83.4(14) 82.5193 81.1616
8986 36.8554 83.0(14) 82.6022 81.1596
8987 36.8590 82.3(14) 82.6937 81.1576
8988 36.8626 83.0(14) 82.7945 81.1556
8989 36.8662 85.0(14) 82.9054 81.1536
8990 36.8698 82.4(14) 83.0270 81.1516
8991 36.8734 81.7(13) 83.1603 81.1496
8992 36.8770 84.5(14) 83.3062 81.1475
8993 36.8806 83.1(14) 83.4651 81.1455
8994 36.8842 84.3(14) 83.6383 81.1435
8995 36.8878 84.3(14) 83.8263 81.1415
8996 36.8914 83.1(14) 84.0299 81.1395
8997 36.8950 86.4(14) 84.2490 81.1375
8998 36.8986 85.9(14) 84.4858 81.1355
8999 36.9022 86.0(14) 84.7399 81.1334
9000 36.9058 86.5(14) 85.0117 81.1314
9001 36.9094 84.6(14) 85.3019 81.1294
9002 36.9130 85.2(14) 85.6106 81.1274
9003 36.9166 85.2(14) 85.9377 81.1254
9004 36.9202 86.9(14) 86.2827 81.1234
9005 36.9238 86.5(14) 86.6448 81.1214
9006 36.9274 86.6(14) 87.0259 81.1193
9007 36.9310 88.8(14) 87.4238 81.1173
9008 36.9346 89.2(14) 87.8374 81.1153
9009 36.9382 88.5(14) 88.2661 81.1133
9010 36.9418 87.7(14) 88.7083 81.1113
9011 36.9454 87.8(14) 89.1617 81.1093
9012 36.9490 86.8(14) 89.6254 81.1073
9013 36.9526 88.4(14) 90.0964 81.1052
9014 36.9562 88.9(14) 90.5724 81.1032
9015 36.9598 86.4(14) 91.0498 81.1012
9016 36.9634 88.3(14) 91.5265 81.0992
9017 36.9670 89.8(14) 91.9983 81.0972
9018 36.9706 89.8(14) 92.4609 81.0952
9019 36.9742 90.8(14) 92.9112 81.0932
9020 36.9778 91.0(14) 93.3442 81.0911
9021 36.9814 91.5(14) 93.7553 81.0891
9022 36.9850 89.5(14) 94.1396 81.0871
9023 36.9886 90.9(14) 94.4931 81.0851
9024 36.9922 92.7(14) 94.8108 81.0831
9025 36.9958 92.4(14) 95.0882 81.0811
9026 36.9994 91.7(14) 95.3219 81.0791
9027 37.0030 91.4(14) 95.5083 81.0770
9028 37.0066 92.3(14) 95.6445 81.0750
9029 37.0102 92.7(14) 95.7285 81.0730
9030 37.0138 91.9(14) 95.7593 81.0710
9031 37.0174 91.1(15) 95.7365 81.0690
9032 37.0210 92.7(14) 95.6606 81.0670
9033 37.0246 93.2(14) 95.5329 81.0650
9034 37.0282 93.1(14) 95.3553 81.0629
9035 37.0318 92.8(14) 95.1307 81.0609
9036 37.0354 93.8(14) 94.8626 81.0589
9037 37.0390 93.9(14) 94.5541 81.0569
9038 37.0426 89.2(14) 94.2096 81.0549
9039 37.0462 91.8(14) 93.8336 81.0529
9040 37.0498 91.9(14) 93.4299 81.0509
9041 37.0534 88.7(14) 93.0032 81.0488
9042 37.0570 91.4(14) 92.5579 81.0468
9043 37.0606 90.9(14) 92.0988 81.0448
9044 37.0642 89.1(14) 91.6290 81.0428
9045 37.0678 90.7(14) 91.1528 81.0408
9046 37.0714 89.8(14) 90.6738 81.0388
9047 37.0750 87.9(14) 90.1958 81.0368
9048 37.0786 89.3(14) 89.7208 81.0347
9049 37.0822 89.7(14) 89.2521 81.0327
9050 37.0858 88.9(14) 88.7924 81.0307
9051 37.0894 88.6(14) 88.3430 81.0287
9052 37.0930 88.4(14) 87.9061 81.0267
9053 37.0966 87.1(14) 87.4832 81.0247
9054 37.1002 87.1(14) 87.0762 81.0227
9055 37.1038 87.0(14) 86.6850 81.0207
9056 37.1074 87.5(14) 86.3109 81.0186
9057 37.1110 86.1(14) 85.9548 81.0166
9058 37.1146 83.5(14) 85.6165 81.0146
9059 37.1182 84.3(14) 85.2964 81.0126
9060 37.1218 84.0(14) 84.9945 81.0106
9061 37.1254 84.7(16) 84.7110 81.0086
9062 37.1290 84.1(14) 84.4450 81.0066
9063 37.1326 83.7(14) 84.1964 81.0045
9064 37.1362 85.8(14) 83.9651 81.0025
9065 37.1398 84.7(14) 83.7498 81.0005
9066 37.1434 83.6(14) 83.5503 80.9985
9067 37.1470 84.1(14) 83.3658 80.9965
9068 37.1506 83.9(14) 83.1957 80.9945
9069 37.1542 83.5(14) 83.0389 80.9925
9070 37.1578 83.3(14) 82.8948 80.9904
9071 37.1614 83.6(14) 82.7628 80.9884
9072 37.1650 83.7(14) 82.6417 80.9864
9073 37.1686 84.8(14) 82.5309 80.9844
9074 37.1722 83.4(14) 82.4296 80.9824
9075 37.1758 83.1(14) 82.3373 80.9804
9076 37.1794 83.2(14) 82.2529 80.9784
9077 37.1830 83.9(14) 82.1759 80.9763
9078 37.1866 83.1(14) 82.1057 80.9743
9079 37.1902 81.1(13) 82.0417 80.9723
9080 37.1938 81.7(13) 81.9831 80.9703
9081 37.1974 82.7(14) 81.9296 80.9683
9082 37.2010 84.2(14) 81.8808 80.9663
9083 37.2046 82.7(14) 81.8359 80.9643
9084 37.2082 83.2(14) 81.7947 80.9622
9085 37.2118 82.5(13) 81.7569 80.9602
9086 37.2154 82.0(13) 81.7220 80.9582
9087 37.2190 81.5(13) 81.6897 80.9562
9088 37.2226 80.5(14) 81.6598 80.9542
9089 37.2262 81.6(13) 81.6321 80.9522
9090 37.2298 79.6(13) 81.6062 80.9502
9091 37.2334 79.9(13) 81.5820 80.9481
9092 37.2370 82.9(14) 81.5594 80.9461
9093 37.2406 82.8(14) 81.5381 80.9441
9094 37.2442 82.1(13) 81.5180 80.9421
9095 37.2478 80.5(13) 81.4991 80.9401
9096 37.2514 79.4(13) 81.4811 80.9381
9097 37.2550 81.2(13) 81.4640 80.9361
9098 37.2586 81.8(13) 81.4395 80.9258
9099 37.2622 81.4(13) 81.4126 80.9124
9100 37.2658 82.1(13) 81.3864 80.8990
9101 37.2694 80.3(13) 81.3607 80.8857
9102 37.2730 80.6(13) 81.3357 80.8723
9103 37.2766 80.8(13) 81.3112 80.8589
9104 37.2802 80.8(13) 81.2871 80.8455
9105 37.2838 81.5(13) 81.2635 80.8321
9106 37.2874 81.2(13) 81.2403 80.8187
9107 37.2910 81.2(13) 81.2176 80.8053
9108 37.2946 80.4(13) 81.1951 80.7919
9109 37.2982 79.9(13) 81.1731 80.7785
9110 37.3018 81.7(15) 81.1513 80.7651
9111 37.3054 82.4(14) 81.1299 80.7517
9112 37.3090 81.1(13) 81.1087 80.7383
9113 37.3126 79.3(13) 81.0878 80.7250
9114 37.3162 80.7(13) 81.0672 80.7116
9115 37.3198 81.7(13) 81.0469 80.6982
9116 37.3234 80.3(15) 81.0267 80.6848
9117 37.3270 81.8(13) 81.0068 80.6714
9118 37.3306 81.7(13) 80.9872 80.6580
9119 37.3342 79.7(13) 80.9677 80.6446
9120 37.3378 78.8(13) 80.9484 80.6312
9121 37.3414 80.3(13) 80.9293 80.6178
9122 37.3450 79.1(13) 80.9104 80.6044
9123 37.3486 82.7(13) 80.8917 80.5910
9124 37.3522 82.4(13) 80.8732 80.5777
9125 37.3558 81.7(13) 80.8548 80.5643
9126 37.3594 81.3(13) 80.8365 80.5509
9127 37.3630 82.5(14) 80.8184 80.5375
9128 37.3666 81.3(13) 80.8005 80.5241
9129 37.3702 83.6(14) 80.7827 80.5107
9130 37.3738 80.9(13) 80.7651 80.4973
9131 37.3774 82.5(15) 80.7475 80.4839
9132 37.3810 80.1(13) 80.7301 80.4705
9133 37.3846 80.8(13) 80.7128 80.4571
9134 37.3882 81.3(13) 80.6957 80.4437
9135 37.3918 79.1(13) 80.6786 80.4304
9136 37.3954 80.8(13) 80.6617 80.4170
9137 37.3990 83.5(14) 80.6448 80.4036
9138 37.4026 81.9(13) 80.6281 80.3902
9139 37.4062 82.1(13) 80.6115 80.3768
9140 37.4098 82.4(14) 80.5949 80.3634
9141 37.4134 83.0(14) 80.5785 80.3500
9142 37.4170 81.1(13) 80.5621 80.3366
9143 37.4206 79.9(13) 80.5459 80.3232
9144 37.4242 82.0(13) 80.5297 80.3098
9145 37.4278 80.6(13) 80.5136 80.2964
9146 37.4314 80.5(13) 80.4976 80.2831
9147 37.4350 81.9(13) 80.4817 80.2697
9148 37.4386 81.5(14) 80.4658 80.2563
9149 37.4422 82.9(14) 80.4500 80.2429
9150 37.4458 82.6(14) 80.4343 80.2295
9151 37.4494 81.0(13) 80.4187 80.2161
9152 37.4530 78.9(13) 80.4031 80.2027
9153 37.4566 78.8(13) 80.3876 80.1893
9154 37.4602 80.0(13) 80.3722 80.1759
9155 37.4638 80.9(13) 80.3568 80.1625
9156 37.4674 81.0(13) 80.3415 80.1491
9157 37.4710 82.9(14) 80.3262 80.1358
9158 37.4746 84.7(14) 80.3110 80.1224
9159 37.4782 81.1(13) 80.2959 80.1090
9160 37.4818 80.4(13) 80.2808 80.0956
9161 37.4854 80.8(13) 80.2658 80.0822
9162 37.4890 79.3(13) 80.2509 80.0688
9163 37.4926 81.3(13) 80.2359 80.0554
9164 37.4962 81.0(13) 80.2211 80.0420
9165 37.4998 81.6(13) 80.2063 80.0286
9166 37.5034 81.6(13) 80.1916 80.0152
9167 37.5070 80.9(13) 80.1769 80.0019
9168 37.5106 81.5(13) 80.1622 79.9885
9169 37.5142 80.9(13) 80.1476 79.9751
9170 37.5178 80.1(13) 80.1331 79.9617
9171 37.5214 79.0(13) 80.1186 79.9483
9172 37.5250 78.5(13) 80.1041 79.9349
9173 37.5286 80.1(13) 80.0897 79.9215
9174 37.5322 81.6(13) 80.0754 79.9081
9175 37.5358 80.5(13) 80.0611 79.8947
9176 37.5394 79.5(13) 80.0468 79.8813
9177 37.5430 80.8(13) 80.0326 79.8679
9178 37.5466 79.1(13) 80.0185 79.8546
9179 37.5502 82.0(13) 80.0044 79.8412
9180 37.5538 81.4(13) 79.9903 79.8278
9181 37.5574 78.9(13) 79.9763 79.8144
9182 37.5610 78.5(13) 79.9623 79.8010
9183 37.5646 80.8(13) 79.9484 79.7876
9184 37.5682 79.3(14) 79.9345 79.7742
9185 37.5718 80.2(13) 79.9207 79.7608
9186 37.5754 81.0(13) 79.9069 79.7474
9187 37.5790 80.2(13) 79.8931 79.7340
9188 37.5826 80.6(13) 79.8794 79.7206
9189 37.5862 79.0(13) 79.8658 79.7073
9190 37.5898 80.6(13) 79.8522 79.6939
9191 37.5934 81.5(14) 79.8387 79.6805
9192 37.5970 78.0(13) 79.8252 79.6671
9193 37.6006 80.2(13) 79.8117 79.6537
9194 37.6042 80.1(13) 79.7984 79.6403
9195 37.6078 78.7(13) 79.7851 79.6269
9196 37.6114 78.7(13) 79.7718 79.6135
9197 37.6150 78.5(13) 79.7586 79.6001
9198 37.6186 79.2(13) 79.7454 79.5867
9199 37.6222 81.0(13) 79.7323 79.5734
9200 37.6258 79.4(13) 79.7192 79.5600
9201 37.6294 81.3(13) 79.7062 79.5466
9202 37.6330 78.4(16) 79.6933 79.5332
9203 37.6366 78.1(13) 79.6805 79.5198
9204 37.6402 79.2(13) 79.6677 79.5064
9205 37.6438 79.7(13) 79.6550 79.4930
9206 37.6474 80.9(13) 79.6423 79.4796
9207 37.6510 81.6(13) 79.6298 79.4662
9208 37.6546 81.6(13) 79.6173 79.4528
9209 37.6582 79.9(13) 79.6049 79.4394
9210 37.6618 82.4(14) 79.5926 79.4261
9211 37.6654 82.9(14) 79.5804 79.4127
9212 37.6690 82.1(13) 79.5683 79.3993
9213 37.6726 80.9(13) 79.5563 79.3859
9214 37.6762 80.6(13) 79.5445 79.3725
9215 37.6798 80.7(13) 79.5328 79.3591
9216 37.6834 80.9(13) 79.5212 79.3457
9217 37.6870 79.5(13) 79.5098 79.3323
9218 37.6906 79.8(13) 79.4986 79.3189
9219 37.6942 80.3(13) 79.4875 79.3055
9220 37.6978 79.4(13) 79.4767 79.2921
9221 37.7014 79.6(13) 79.4662 79.2788
9222 37.7050 81.9(13) 79.4558 79.2654
9223 37.7086 82.0(14) 79.4458 79.2520
9224 37.7122 80.7(13) 79.4361 79.2386
9225 37.7158 81.9(14) 79.4268 79.2252
9226 37.7194 82.5(14) 79.4179 79.2118
9227 37.7230 79.4(13) 79.4094 79.1984
9228 37.7266 80.8(13) 79.4015 79.1850
9229 37.7302 80.9(13) 79.3941 79.1716
9230 37.7338 82.3(14) 79.3873 79.1582
9231 37.7374 80.5(13) 79.3812 79.1448
9232 37.7410 80.2(13) 79.3759 79.1315
9233 37.7446 81.4(13) 79.3715 79.1181
9234 37.7482 80.2(13) 79.3679 79.1047
9235 37.7518 78.5(13) 79.3654 79.0913
9236 37.7554 77.6(13) 79.3641 79.0779
9237 37.7590 78.3(13) 79.3639 79.0645
9238 37.7626 79.6(13) 79.3651 79.0511
9239 37.7662 79.8(13) 79.3678 79.0377
9240 37.7698 80.4(13) 79.3720 79.0243
9241 37.7734 81.0(13) 79.3780 79.0109
9242 37.7770 80.5(13) 79.3857 78.9975
9243 37.7806 80.8(13) 79.3955 78.9842
9244 37.7842 82.1(13) 79.4072 78.9708
9245 37.7878 81.3(13) 79.4212 78.9574
9246 37.7914 80.3(13) 79.4375 78.9440
9247 37.7950 80.0(13) 79.4562 78.9306
9248 37.7986 81.7(13) 79.4774 78.9172
9249 37.8022 80.1(13) 79.5013 78.9038
9250 37.8058 80.8(13) 79.5279 78.8904
9251 37.8094 79.5(13) 79.5572 78.8770
9252 37.8130 78.9(13) 79.5894 78.8636
9253 37.8166 79.1(13) 79.6244 78.8502
9254 37.8202 80.6(13) 79.6622 78.8369
9255 37.8238 80.2(13) 79.7030 78.8235
9256 37.8274 78.9(13) 79.7465 78.8101
9257 37.8310 80.3(13) 79.7927 78.7967
9258 37.8346 79.8(13) 79.8416 78.7833
9259 37.8382 79.8(13) 79.8930 78.7699
9260 37.8418 81.4(13) 79.9467 78.7565
9261 37.8454 79.9(13) 80.0025 78.7431
9262 37.8490 78.9(13) 80.0602 78.7297
9263 37.8526 81.1(13) 80.1195 78.7163
9264 37.8562 80.5(13) 80.1800 78.7029
9265 37.8598 78.8(13) 80.2414 78.6895
9266 37.8634 78.6(13) 80.3032 78.6762
9267 37.8670 79.6(13) 80.3650 78.6628
9268 37.8706 80.7(13) 80.4262 78.6494
9269 37.8742 80.4(13) 80.4863 78.6360
9270 37.8778 80.2(13) 80.5446 78.6226
9271 37.8814 79.9(13) 80.6006 78.6092
9272 37.8850 82.2(13) 80.6534 78.5958
9273 37.8886 78.1(13) 80.7023 78.5824
9274 37.8922 79.6(13) 80.7465 78.5690
9275 37.8958 80.4(13) 80.7854 78.5556
9276 37.8994 79.2(13) 80.8181 78.5422
9277 37.9030 79.2(13) 80.8440 78.5289
9278 37.9066 79.2(13) 80.8624 78.5155
9279 37.9102 80.9(13) 80.8729 78.5021
9280 37.9138 80.7(13) 80.8749 78.4887
9281 37.9174 80.5(13) 80.8662 78.4753
9282 37.9210 79.7(13) 80.8508 78.4619
9283 37.9246 79.5(13) 80.8267 78.4485
9284 37.9282 81.0(13) 80.7940 78.4351
9285 37.9318 83.1(14) 80.7532 78.4217
9286 37.9354 80.6(13) 80.7046 78.4083
9287 37.9390 80.4(13) 80.6490 78.3949
9288 37.9426 81.7(13) 80.5870 78.3816
9289 37.9462 81.0(13) 80.5193 78.3682
9290 37.9498 80.1(16) 80.4466 78.3548
9291 37.9534 79.2(13) 80.3696 78.3414
9292 37.9570 79.5(13) 80.2893 78.3280
9293 37.9606 80.9(13) 80.2061 78.3146
9294 37.9642 79.7(13) 80.1208 78.3012
9295 37.9678 78.1(13) 80.0341 78.2878
9296 37.9714 79.8(13) 79.9465 78.2744
9297 37.9750 80.1(13) 79.8585 78.2610
9298 37.9786 80.0(14) 79.7706 78.2476
9299 37.9822 79.3(13) 79.6834 78.2343
9300 37.9858 79.1(13) 79.5971 78.2209
9301 37.9894 79.2(13) 79.5122 78.2075
9302 37.9930 79.5(13) 79.4289 78.1941
9303 37.9966 82.0(13) 79.3476 78.1807
9304 38.0002 80.1(13) 79.2683 78.1673
9305 38.0038 79.5(13) 79.1914 78.1539
9306 38.0074 79.7(13) 79.1171 78.1405
9307 38.0110 80.0(13) 79.0454 78.1271
9308 38.0146 79.2(13) 78.9764 78.1137
9309 38.0182 79.5(13) 78.9102 78.1004
9310 38.0218 80.6(14) 78.8468 78.0870
9311 38.0254 80.8(13) 78.7863 78.0736
9312 38.0290 80.6(13) 78.7285 78.0602
9313 38.0326 79.9(14) 78.6736 78.0468
9314 38.0362 78.5(13) 78.6213 78.0334
9315 38.0398 79.2(13) 78.5718 78.0200
9316 38.0434 80.6(13) 78.5248 78.0066
9317 38.0470 80.6(13) 78.4802 77.9932
9318 38.0506 81.0(13) 78.4381 77.9798
9319 38.0542 79.8(13) 78.3982 77.9664
9320 38.0578 82.2(13) 78.3604 77.9531
9321 38.0614 78.2(13) 78.3247 77.9397
9322 38.0650 77.5(13) 78.2908 77.9263
9323 38.0686 78.8(14) 78.2588 77.9129
9324 38.0722 79.5(13) 78.2284 77.8995
9325 38.0758 80.8(13) 78.1995 77.8861
9326 38.0794 82.1(13) 78.1720 77.8727
9327 38.0830 79.8(13) 78.1459 77.8593
9328 38.0866 78.2(13) 78.1210 77.8459
9329 38.0902 78.2(13) 78.0972 77.8325
9330 38.0938 78.9(13) 78.0743 77.8191
9331 38.0974 79.2(13) 78.0525 77.8058
9332 38.1010 80.9(13) 78.0314 77.7924
9333 38.1046 78.6(13) 78.0111 77.7790
9334 38.1082 78.1(13) 77.9915 77.7656
9335 38.1118 78.4(13) 77.9725 77.7522
9336 38.1154 77.5(13) 77.9541 77.7388
9337 38.1190 78.9(13) 77.9361 77.7254
9338 38.1226 79.6(13) 77.9187 77.7120
9339 38.1262 80.5(13) 77.9017 77.6986
9340 38.1298 77.8(13) 77.8850 77.6852
9341 38.1334 78.4(13) 77.8687 77.6719
9342 38.1370 77.1(13) 77.8527 77.6585
9343 38.1406 78.4(13) 77.8370 77.6451
9344 38.1442 76.8(13) 77.8215 77.6317
9345 38.1478 80.6(13) 77.8063 77.6183
9346 38.1514 80.6(13) 77.7913 77.6049
9347 38.1550 78.5(14) 77.7765 77.5915
9348 38.1586 80.2(13) 77.7618 77.5781
9349 38.1622 80.7(13) 77.7474 77.5647
9350 38.1658 80.4(13) 77.7331 77.5513
9351 38.1694 79.1(13) 77.7190 77.5379
9352 38.1730 78.6(13) 77.7050 77.5246
9353 38.1766 78.3(13) 77.6912 77.5112
9354 38.1802 78.6(13) 77.6775 77.4978
9355 38.1838 78.1(13) 77.6639 77.4844
9356 38.1874 79.1(13) 77.6505 77.4710
9357 38.1910 78.7(13) 77.6371 77.4576
9358 38.1946 79.1(13) 77.6239 77.4442
9359 38.1982 78.9(13) 77.6109 77.4308
9360 38.2018 79.6(13) 77.5979 77.4174
9361 38.2054 79.9(13) 77.5855 77.4040
9362 38.2090 79.5(13) 77.5729 77.3906
9363 38.2126 78.8(13) 77.5604 77.3773
9364 38.2162 78.8(13) 77.5479 77.3639
9365 38.2198 79.1(13) 77.5356 77.3505
9366 38.2234 77.8(13) 77.5235 77.3371
9367 38.2270 78.2(13) 77.5119 77.3237
9368 38.2306 78.7(13) 77.5000 77.3103
9369 38.2342 78.9(13) 77.4883 77.2969
9370 38.2378 77.9(13) 77.4768 77.2835
9371 38.2414 80.4(13) 77.4654 77.2701
9372 38.2450 80.0(13) 77.4542 77.2567
9373 38.2486 78.3(13) 77.4433 77.2433
9374 38.2522 79.3(13) 77.4330 77.2299
9375 38.2558 78.9(13) 77.4224 77.2166
9376 38.2594 77.3(13) 77.4122 77.2032
9377 38.2630 77.5(13) 77.4023 77.1898
9378 38.2666 79.5(13) 77.3926 77.1764
9379 38.2702 79.5(13) 77.3833 77.1630
9380 38.2738 79.5(13) 77.3744 77.1496
9381 38.2774 79.8(13) 77.3659 77.1362
9382 38.2810 79.7(13) 77.3578 77.1228
9383 38.2846 78.9(13) 77.3503 77.1094
9384 38.2882 78.1(13) 77.3433 77.0960
9385 38.2918 78.0(13) 77.3369 77.0826
9386 38.2954 79.0(13) 77.3311 77.0693
9387 38.2990 79.5(13) 77.3261 77.0559
9388 38.3026 79.4(13) 77.3218 77.0425
9389 38.3062 77.8(13) 77.3184 77.0291
9390 38.3098 80.5(13) 77.3160 77.0157
9391 38.3134 78.2(13) 77.3146 77.0023
9392 38.3170 75.5(13) 77.3143 76.9889
9393 38.3206 78.9(13) 77.3151 76.9755
9394 38.3242 79.3(13) 77.3173 76.9621
9395 38.3278 78.4(13) 77.3209 76.9487
9396 38.3314 79.4(13) 77.3260 76.9353
9397 38.3350 79.5(13) 77.3326 76.9220
9398 38.3386 78.9(13) 77.3410 76.9086
9399 38.3422 76.1(13) 77.3511 76.8952
9400 38.3458 76.9(13) 77.3632 76.8818
9401 38.3494 78.8(13) 77.3772 76.8684
9402 38.3530 78.4(13) 77.3934 76.8550
9403 38.3566 78.8(13) 77.4117 76.8416
9404 38.3602 78.1(13) 77.4324 76.8282
9405 38.3638 78.7(14) 77.4553 76.8148
9406 38.3674 80.4(13) 77.4807 76.8014
9407 38.3710 79.0(13) 77.5086 76.7880
9408 38.3746 78.3(13) 77.5390 76.7747
9409 38.3782 79.0(13) 77.5718 76.7613
9410 38.3818 76.3(13) 77.6073 76.7479
9411 38.3854 77.0(13) 77.6453 76.7345
9412 38.3890 78.2(13) 77.6857 76.7211
9413 38.3926 79.6(13) 77.7286 76.7077
9414 38.3962 82.5(13) 77.7739 76.6943
9415 38.3998 79.4(13) 77.8214 76.6809
9416 38.4034 79.9(13) 77.8710 76.6675
9417 38.4070 81.5(13) 77.9225 76.6541
9418 38.4106 79.6(13) 77.9759 76.6407
9419 38.4142 78.7(13) 78.0306 76.6274
9420 38.4178 78.6(13) 78.0866 76.6140
9421 38.4214 78.2(13) 78.1436 76.6006
9422 38.4250 78.7(13) 78.2012 76.5872
9423 38.4286 77.8(13) 78.2590 76.5738
9424 38.4322 78.9(13) 78.3166 76.5604
9425 38.4358 81.2(13) 78.3737 76.5470
9426 38.4394 80.5(14) 78.4296 76.5336
9427 38.4430 80.4(14) 78.4840 76.5202
9428 38.4466 80.8(13) 78.5365 76.5068
9429 38.4502 82.2(14) 78.5865 76.4934
9430 38.4538 81.6(14) 78.6334 76.4801
9431 38.4574 78.8(15) 78.6771 76.4667
9432 38.4610 80.7(13) 78.7169 76.4533
9433 38.4646 80.1(13) 78.7526 76.4399
9434 38.4682 80.7(13) 78.7837 76.4265
9435 38.4718 82.3(15) 78.8101 76.4131
9436 38.4754 79.6(13) 78.8316 76.3997
9437 38.4790 81.1(13) 78.8480 76.3863
9438 38.4826 78.2(13) 78.8593 76.3729
9439 38.4862 80.4(13) 78.8655 76.3595
9440 38.4898 79.5(13) 78.8668 76.3461
9441 38.4934 80.1(15) 78.8633 76.3328
9442 38.4970 82.4(15) 78.8554 76.3194
9443 38.5006 79.9(13) 78.8434 76.3060
9444 38.5042 79.0(13) 78.8278 76.2926
9445 38.5078 80.7(13) 78.8092 76.2792
9446 38.5114 82.2(14) 78.7882 76.2658
9447 38.5150 83.3(14) 78.7654 76.2524
9448 38.5186 82.7(13) 78.7417 76.2390
9449 38.5222 80.5(13) 78.7177 76.2256
9450 38.5258 79.7(13) 78.6943 76.2122
9451 38.5294 79.6(13) 78.6721 76.1989
9452 38.5330 79.4(13) 78.6519 76.1855
9453 38.5366 80.3(13) 78.6344 76.1721
9454 38.5402 80.7(13) 78.6203 76.1587
9455 38.5438 81.4(13) 78.6100 76.1453
9456 38.5474 80.9(14) 78.6042 76.1319
9457 38.5510 78.3(13) 78.6033 76.1185
9458 38.5546 78.7(13) 78.6077 76.1051
9459 38.5582 80.9(13) 78.6177 76.0917
9460 38.5618 79.5(13) 78.6335 76.0783
9461 38.5654 80.7(13) 78.6552 76.0649
9462 38.5690 81.0(13) 78.6830 76.0516
9463 38.5726 81.1(13) 78.7167 76.0382
9464 38.5762 80.5(13) 78.7564 76.0248
9465 38.5798 80.0(13) 78.8018 76.0114
9466 38.5834 81.4(13) 78.8525 75.9980
9467 38.5870 79.9(13) 78.9083 75.9846
9468 38.5906 79.3(13) 78.9687 75.9712
9469 38.5942 79.6(13) 79.0330 75.9578
9470 38.5978 80.6(13) 79.1007 75.9444
9471 38.6014 81.3(13) 79.1711 75.9310
9472 38.6050 82.3(13) 79.2433 75.9176
9473 38.6086 80.9(13) 79.3162 75.9043
9474 38.6122 81.8(13) 79.3891 75.8909
9475 38.6158 83.7(14) 79.4608 75.8775
9476 38.6194 81.6(13) 79.5300 75.8641
9477 38.6230 81.0(13) 79.5957 75.8507
9478 38.6266 81.9(13) 79.6566 75.8373
9479 38.6302 80.3(13) 79.7115 75.8239
9480 38.6338 82.3(13) 79.7590 75.8105
9481 38.6374 81.2(13) 79.7982 75.7971
9482 38.6410 82.7(13) 79.8278 75.7837
9483 38.6446 82.7(13) 79.8469 75.7703
9484 38.6482 82.3(13) 79.8547 75.7570
9485 38.6518 83.1(14) 79.8505 75.7436
9486 38.6554 81.7(13) 79.8339 75.7302
9487 38.6590 83.1(14) 79.8047 75.7168
9488 38.6626 84.0(14) 79.7628 75.7034
9489 38.6662 81.3(13) 79.7085 75.6900
9490 38.6698 82.2(13) 79.6422 75.6766
9491 38.6734 80.9(13) 79.5644 75.6632
9492 38.6770 82.8(14) 79.4759 75.6498
9493 38.6806 81.9(13) 79.3777 75.6364
9494 38.6842 81.1(13) 79.2707 75.6230
9495 38.6878 81.4(13) 79.1566 75.6096
9496 38.6914 82.6(14) 79.0351 75.5963
9497 38.6950 81.7(13) 78.9081 75.5829
9498 38.6986 81.3(13) 78.7768 75.5695
9499 38.7022 83.3(14) 78.6418 75.5561
9500 38.7058 80.5(13) 78.5044 75.5427
9501 38.7094 83.0(14) 78.3655 75.5293
9502 38.7130 81.4(14) 78.2259 75.5159
9503 38.7166 79.9(13) 78.0851 75.5025
9504 38.7202 79.1(13) 77.9468 75.4891
9505 38.7238 80.8(13) 77.8098 75.4757
9506 38.7274 80.3(13) 77.6746 75.4623
9507 38.7310 78.2(13) 77.5421 75.4490
9508 38.7346 77.7(13) 77.4128 75.4356
9509 38.7382 81.7(13) 77.2867 75.4222
9510 38.7418 80.7(13) 77.1634 75.4088
9511 38.7454 78.9(13) 77.0451 75.3954
9512 38.7490 78.4(13) 76.9312 75.3820
9513 38.7526 77.7(13) 76.8216 75.3686
9514 38.7562 76.1(13) 76.7164 75.3552
9515 38.7598 77.0(13) 76.6160 75.3418
9516 38.7634 76.2(13) 76.5200 75.3284
9517 38.7670 77.4(13) 76.4287 75.3150
9518 38.7706 77.8(13) 76.3419 75.3017
9519 38.7742 76.5(13) 76.2597 75.2883
9520 38.7778 76.6(13) 76.1818 75.2749
9521 38.7814 77.5(13) 76.1082 75.2615
9522 38.7850 79.5(13) 76.0388 75.2481
9523 38.7886 76.7(13) 75.9733 75.2347
9524 38.7922 76.8(13) 75.9115 75.2213
9525 38.7958 77.7(13) 75.8534 75.2079
9526 38.7994 77.6(13) 75.7988 75.1945
9527 38.8030 75.7(14) 75.7473 75.1811
9528 38.8066 75.6(13) 75.6989 75.1677
9529 38.8102 77.5(14) 75.6533 75.1544
9530 38.8138 77.6(13) 75.6104 75.1410
9531 38.8174 76.2(13) 75.5699 75.1276
9532 38.8210 76.9(13) 75.5317 75.1142
9533 38.8246 78.2(13) 75.4957 75.1008
9534 38.8282 77.1(13) 75.4615 75.0874
9535 38.8318 77.7(13) 75.4291 75.0740
9536 38.8354 77.8(13) 75.3983 75.0606
9537 38.8390 76.1(13) 75.3690 75.0472
9538 38.8426 74.6(13) 75.3410 75.0338
9539 38.8462 74.4(13) 75.3143 75.0204
9540 38.8498 75.7(13) 75.2887 75.0071
9541 38.8534 74.4(13) 75.2640 74.9937
9542 38.8570 75.0(13) 75.2402 74.9803
9543 38.8606 77.5(13) 75.2173 74.9669
9544 38.8642 77.6(13) 75.1950 74.9535
9545 38.8678 76.5(13) 75.1735 74.9401
9546 38.8714 74.8(13) 75.1525 74.9267
9547 38.8750 75.1(13) 75.1320 74.9133
9548 38.8786 76.0(13) 75.1120 74.8999
9549 38.8822 75.3(14) 75.0924 74.8865
9550 38.8858 72.4(14) 75.0732 74.8731
9551 38.8894 73.3(14) 75.0544 74.8598
9552 38.8930 72.8(13) 75.0359 74.8464
9553 38.8966 74.9(15) 75.0177 74.8330
9554 38.9002 76.3(13) 74.9997 74.8196
9555 38.9038 75.5(13) 74.9819 74.8062
9556 38.9074 76.1(13) 74.9644 74.7928
9557 38.9110 74.9(13) 74.9471 74.7794
9558 38.9146 74.1(13) 74.9299 74.7660
9559 38.9182 76.3(13) 74.9129 74.7526
9560 38.9218 74.6(13) 74.8961 74.7392
9561 38.9254 76.1(13) 74.8794 74.7259
9562 38.9290 76.0(13) 74.8628 74.7125
9563 38.9326 77.9(13) 74.8464 74.6991
9564 38.9362 75.5(13) 74.8301 74.6857
9565 38.9398 75.0(13) 74.8139 74.6723
9566 38.9434 75.6(13) 74.7978 74.6589
9567 38.9470 76.7(13) 74.7818 74.6455
9568 38.9506 75.7(13) 74.7658 74.6321
9569 38.9542 76.2(13) 74.7500 74.6187
9570 38.9578 76.0(13) 74.7343 74.6053
9571 38.9614 74.3(14) 74.7186 74.5919
9572 38.9650 76.6(13) 74.7030 74.5786
9573 38.9686 77.1(13) 74.6875 74.5652
9574 38.9722 76.0(13) 74.6721 74.5518
9575 38.9758 75.1(13) 74.6567 74.5384
9576 38.9794 75.9(13) 74.6415 74.5250
9577 38.9830 76.6(13) 74.6262 74.5116
9578 38.9866 74.7(13) 74.6111 74.4982
9579 38.9902 77.3(13) 74.5960 74.4848
9580 38.9938 74.7(13) 74.5810 74.4714
9581 38.9974 74.7(14) 74.5660 74.4580
9582 39.0010 76.3(13) 74.5511 74.4446
9583 39.0046 73.8(13) 74.5363 74.4313
9584 39.0082 77.2(13) 74.5215 74.4179
9585 39.0118 77.5(13) 74.5068 74.4045
9586 39.0154 76.0(13) 74.4921 74.3911
9587 39.0190 75.4(13) 74.4775 74.3777
9588 39.0226 75.4(13) 74.4630 74.3643
9589 39.0262 73.5(13) 74.4486 74.3509
9590 39.0298 75.2(13) 74.4342 74.3375
9591 39.0334 75.3(13) 74.4199 74.3241
9592 39.0370 76.5(13) 74.4056 74.3107
9593 39.0406 76.4(13) 74.3914 74.2974
9594 39.0442 74.3(13) 74.3773 74.2840
9595 39.0478 74.8(13) 74.3633 74.2706
9596 39.0514 75.7(13) 74.3493 74.2572
9597 39.0550 74.6(13) 74.3354 74.2438
9598 39.0586 75.2(13) 74.3215 74.2304
9599 39.0622 76.5(13) 74.3078 74.2170
9600 39.0658 76.0(13) 74.2941 74.2036
9601 39.0694 76.0(13) 74.2805 74.1902
9602 39.0730 76.2(13) 74.2669 74.1768
9603 39.0766 75.3(13) 74.2534 74.1634
9604 39.0802 77.1(13) 74.2401 74.1501
9605 39.0838 75.3(14) 74.2267 74.1367
9606 39.0874 74.2(13) 74.2135 74.1233
9607 39.0910 76.0(13) 74.2003 74.1099
9608 39.0946 76.4(13) 74.1871 74.0965
9609 39.0982 76.9(13) 74.1740 74.0831
9610 39.1018 74.0(13) 74.1610 74.0697
9611 39.1054 73.9(13) 74.1481 74.0563
9612 39.1090 75.5(13) 74.1351 74.0429
9613 39.1126 75.7(13) 74.1222 74.0295
9614 39.1162 75.7(13) 74.1094 74.0161
9615 39.1198 77.2(13) 74.0966 74.0028
9616 39.1234 76.9(13) 74.0837 73.9894
9617 39.1270 76.0(13) 74.0709 73.9760
9618 39.1306 75.2(13) 74.0581 73.9626
9619 39.1342 75.7(13) 74.0453 73.9492
9620 39.1378 77.3(13) 74.0325 73.9358
9621 39.1414 76.5(14) 74.0196 73.9224
9622 39.1450 74.1(13) 74.0067 73.9090
9623 39.1486 73.6(13) 73.9937 73.8956
9624 39.1522 76.5(13) 73.9805 73.8820
9625 39.1558 75.3(13) 73.9669 73.8682
9626 39.1594 74.8(15) 73.9533 73.8544
9627 39.1630 76.4(13) 73.9395 73.8405
9628 39.1666 77.2(16) 73.9256 73.8267
9629 39.1702 75.4(13) 73.9115 73.8129
9630 39.1738 74.8(13) 73.8974 73.7990
9631 39.1774 78.4(13) 73.8831 73.7852
9632 39.1810 76.5(13) 73.8686 73.7713
9633 39.1846 76.2(13) 73.8541 73.7575
9634 39.1882 75.4(13) 73.8393 73.7437
9635 39.1918 75.4(14) 73.8245 73.7298
9636 39.1954 75.6(13) 73.8096 73.7160
9637 39.1990 74.7(13) 73.7945 73.7022
9638 39.2026 75.0(13) 73.7793 73.6883
9639 39.2062 75.0(13) 73.7640 73.6745
9640 39.2098 76.5(13) 73.7487 73.6607
9641 39.2134 75.6(13) 73.7333 73.6468
9642 39.2170 75.6(13) 73.7178 73.6330
9643 39.2206 75.7(13) 73.7024 73.6192
9644 39.2242 74.2(13) 73.6868 73.6053
9645 39.2278 76.6(13) 73.6713 73.5915
9646 39.2314 74.0(14) 73.6557 73.5776
9647 39.2350 76.2(14) 73.6402 73.5638
9648 39.2386 77.6(13) 73.6246 73.5500
9649 39.2422 74.7(13) 73.6091 73.5361
9650 39.2458 75.7(13) 73.5936 73.5223
9651 39.2494 74.9(13) 73.5781 73.5085
9652 39.2530 74.5(13) 73.5627 73.4946
9653 39.2566 75.7(13) 73.5473 73.4808
9654 39.2602 74.4(13) 73.5319 73.4670
9655 39.2638 72.1(13) 73.5166 73.4531
9656 39.2674 74.8(13) 73.5013 73.4393
9657 39.2710 77.2(13) 73.4861 73.4255
9658 39.2746 76.2(13) 73.4710 73.4116
9659 39.2782 74.7(13) 73.4559 73.3978
9660 39.2818 76.4(13) 73.4408 73.3839
9661 39.2854 75.5(13) 73.4258 73.3701
9662 39.2890 74.2(13) 73.4108 73.3563
9663 39.2926 76.3(13) 73.3959 73.3424
9664 39.2962 76.5(13) 73.3811 73.3286
9665 39.2998 75.2(13) 73.3663 73.3148
9666 39.3034 74.6(13) 73.3516 73.3009
9667 39.3070 72.9(13) 73.3369 73.2871
9668 39.3106 71.8(13) 73.3222 73.2733
9669 39.3142 74.0(13) 73.3065 73.2594
9670 39.3178 74.1(13) 73.2919 73.2456
9671 39.3214 74.0(13) 73.2774 73.2318
9672 39.3250 71.7(13) 73.2629 73.2179
9673 39.3286 72.7(13) 73.2454 73.2041
9674 39.3322 74.6(13) 73.2310 73.1902
9675 39.3358 74.5(13) 73.2166 73.1764
9676 39.3394 73.3(13) 73.2023 73.1626
9677 39.3430 74.6(13) 73.1880 73.1487
9678 39.3466 76.3(14) 73.1737 73.1349
9679 39.3502 74.3(14) 73.1594 73.1211
9680 39.3538 73.7(14) 73.1438 73.1072
9681 39.3574 76.9(14) 73.1296 73.0934
9682 39.3610 73.8(14) 73.1154 73.0796
9683 39.3646 74.4(14) 73.1012 73.0657
9684 39.3682 74.6(14) 73.0870 73.0519
9685 39.3718 73.0(14) 73.0729 73.0380
9686 39.3754 72.9(14) 73.0588 73.0242
9687 39.3790 72.8(14) 73.0446 73.0104
9688 39.3826 73.1(14) 73.0305 72.9965
9689 39.3862 74.2(14) 73.0164 72.9827
9690 39.3898 74.0(14) 73.0023 72.9689
9691 39.3934 75.5(14) 72.9883 72.9550
9692 39.3970 75.4(15) 72.9742 72.9412
9693 39.4006 72.6(14) 72.9601 72.9274
9694 39.4042 73.1(14) 72.9461 72.9135
9695 39.4078 73.1(14) 72.9320 72.8997
9696 39.4114 73.3(15) 72.9180 72.8859
9697 39.4150 74.5(18) 72.9039 72.8720
9698 39.4186 71.9(18) 72.8899 72.8582
9699 39.4222 73.2(18) 72.8759 72.8443
9700 39.4258 74.0(18) 72.8619 72.8305
9701 39.4294 71.6(18) 72.8479 72.8167
9702 39.4330 73.6(18) 72.8338 72.8028
9703 39.4366 76.2(18) 72.8198 72.7890
9704 39.4402 70.5(18) 72.8058 72.7752
9705 39.4438 72.5(18) 72.7918 72.7613
9706 39.4474 73.8(18) 72.7778 72.7475
9707 39.4510 74.5(18) 72.7639 72.7337
9708 39.4546 75.7(18) 72.7499 72.7198
9709 39.4582 73.0(18) 72.7359 72.7060
9710 39.4618 72.5(18) 72.7219 72.6922
9711 39.4654 75.8(18) 72.7080 72.6783
9712 39.4690 74.8(18) 72.6940 72.6645
9713 39.4726 74.2(18) 72.6800 72.6506
9714 39.4762 74.9(18) 72.6660 72.6368
9715 39.4798 71.8(18) 72.6521 72.6230
9716 39.4834 73.1(18) 72.6381 72.6091
9717 39.4870 73.6(18) 72.6242 72.5953
9718 39.4906 73.4(18) 72.6102 72.5815
9719 39.4942 75.0(20) 72.5963 72.5676
9720 39.4978 72.0(18) 72.5824 72.5538
9721 39.5014 74.0(18) 72.5685 72.5400
9722 39.5050 72(2) 72.5545 72.5261
9723 39.5086 72.9(18) 72.5406 72.5123
9724 39.5122 71.5(19) 72.5266 72.4985
9725 39.5158 72(2) 72.5127 72.4846
9726 39.5194 74.5(18) 72.4988 72.4708
9727 39.5230 69.9(18) 72.4849 72.4569
9728 39.5266 70.2(18) 72.4709 72.4431
9729 39.5302 69.5(18) 72.4570 72.4293
9730 39.5338 71.2(18) 72.4431 72.4154
9731 39.5374 72.5(18) 72.4292 72.4016
9732 39.5410 72.3(18) 72.4153 72.3878
9733 39.5446 76.1(18) 72.4014 72.3739
9734 39.5482 72.7(18) 72.3874 72.3601
9735 39.5518 72.5(19) 72.3735 72.3463
9736 39.5554 73.7(18) 72.3596 72.3324
9737 39.5590 75.4(18) 72.3457 72.3186
9738 39.5626 72.2(18) 72.3318 72.3047
9739 39.5662 70.7(20) 72.3179 72.2909
9740 39.5698 73.2(18) 72.3040 72.2771
9741 39.5734 72.7(18) 72.2901 72.2632
9742 39.5770 75.0(18) 72.2762 72.2494
9743 39.5806 71.9(18) 72.2624 72.2356
9744 39.5842 73.1(18) 72.2485 72.2217
9745 39.5878 70.7(18) 72.2346 72.2079
9746 39.5914 74.1(18) 72.2207 72.1941
9747 39.5950 74.9(18) 72.2068 72.1802
9748 39.5986 70.4(18) 72.1929 72.1664
9749 39.6022 72.3(19) 72.1791 72.1525
9750 39.6058 71.2(17) 72.1652 72.1387
9751 39.6094 72.9(13) 72.1513 72.1249
9752 39.6130 71.5(13) 72.1374 72.1110
9753 39.6166 74.7(15) 72.1236 72.0972
9754 39.6202 73.3(17) 72.1097 72.0834
9755 39.6238 72.4(16) 72.0959 72.0695
9756 39.6274 73.3(16) 72.0820 72.0557
9757 39.6310 71.9(16) 72.0681 72.0419
9758 39.6346 73.5(16) 72.0543 72.0280
9759 39.6382 73.9(16) 72.0404 72.0142
9760 39.6418 73.2(16) 72.0266 72.0004
9761 39.6454 71.7(16) 72.0127 71.9865
9762 39.6490 72.7(16) 71.9989 71.9727
9763 39.6526 74.3(16) 71.9850 71.9588
9764 39.6562 74.1(16) 71.9712 71.9450
9765 39.6598 73.3(16) 71.9573 71.9312
9766 39.6634 73.4(17) 71.9435 71.9173
9767 39.6670 73.8(16) 71.9297 71.9035
9768 39.6706 73.4(16) 71.9158 71.8897
9769 39.6742 71.7(16) 71.9020 71.8758
9770 39.6778 73.6(14) 71.8882 71.8620
9771 39.6814 70.4(15) 71.8744 71.8482
9772 39.6850 73.6(18) 71.8605 71.8343
9773 39.6886 75.7(19) 71.8467 71.8205
9774 39.6922 71.9(18) 71.8329 71.8067
9775 39.6958 71.7(18) 71.8191 71.7928
9776 39.6994 71.6(18) 71.8053 71.7790
9777 39.7030 69.8(18) 71.7914 71.7652
9778 39.7066 73.3(18) 71.7776 71.7513
9779 39.7102 72.5(18) 71.7638 71.7375
9780 39.7138 74.0(18) 71.7500 71.7236
9781 39.7174 71.5(18) 71.7362 71.7098
9782 39.7210 71.5(18) 71.7224 71.6960
9783 39.7246 71.0(18) 71.7086 71.6821
9784 39.7282 72.4(18) 71.6948 71.6683
9785 39.7318 71.2(18) 71.6810 71.6545
9786 39.7354 69.1(18) 71.6673 71.6406
9787 39.7390 68.9(17) 71.6535 71.6268
9788 39.7426 70.8(18) 71.6397 71.6130
9789 39.7462 72.4(18) 71.6259 71.5991
9790 39.7498 71.2(18) 71.6121 71.5853
9791 39.7534 70.4(18) 71.5984 71.5714
9792 39.7570 72.3(19) 71.5846 71.5576
9793 39.7606 73(2) 71.5708 71.5438
9794 39.7642 73.1(18) 71.5571 71.5299
9795 39.7678 72.1(18) 71.5433 71.5161
9796 39.7714 71.8(18) 71.5295 71.5023
9797 39.7750 69.4(17) 71.5158 71.4884
9798 39.7786 70.0(19) 71.5020 71.4746
9799 39.7822 71.3(18) 71.4883 71.4608
9800 39.7858 72.4(18) 71.4746 71.4469
9801 39.7894 73.3(18) 71.4608 71.4331
9802 39.7930 72.9(18) 71.4471 71.4193
9803 39.7966 70.6(18) 71.4334 71.4054
9804 39.8002 70.0(18) 71.4197 71.3916
9805 39.8038 70.3(18) 71.4059 71.3777
9806 39.8074 69.2(18) 71.3922 71.3639
9807 39.8110 74(2) 71.3785 71.3501
9808 39.8146 70(2) 71.3648 71.3362
9809 39.8182 70.4(20) 71.3511 71.3224
9810 39.8218 72.5(18) 71.3374 71.3086
9811 39.8254 69.9(20) 71.3238 71.2947
9812 39.8290 71.6(18) 71.3101 71.2809
9813 39.8326 71.2(18) 71.2964 71.2671
9814 39.8362 72.4(18) 71.2828 71.2532
9815 39.8398 72.7(18) 71.2691 71.2394
9816 39.8434 72.5(18) 71.2555 71.2255
9817 39.8470 71.4(18) 71.2419 71.2117
9818 39.8506 73.0(18) 71.2283 71.1979
9819 39.8542 74.0(18) 71.2147 71.1840
9820 39.8578 67.5(17) 71.2011 71.1702
9821 39.8614 69.3(17) 71.1875 71.1564
9822 39.8650 72.3(18) 71.1740 71.1425
9823 39.8686 70.8(18) 71.1604 71.1287
9824 39.8722 71.5(20) 71.1469 71.1149
9825 39.8758 73.1(19) 71.1334 71.1010
9826 39.8794 72.2(14) 71.1200 71.0872
9827 39.8830 70.0(13) 71.1065 71.0734
9828 39.8866 70.4(14) 71.0931 71.0595
9829 39.8902 71.3(14) 71.0797 71.0457
9830 39.8938 70.4(14) 71.0664 71.0318
9831 39.8974 69.3(14) 71.0531 71.0180
9832 39.9010 71.4(14) 71.0399 71.0042
9833 39.9046 71.3(14) 71.0266 70.9903
9834 39.9082 71.2(14) 71.0135 70.9765
9835 39.9118 71.3(14) 71.0004 70.9627
9836 39.9154 72.4(14) 70.9874 70.9488
9837 39.9190 72.6(14) 70.9744 70.9350
9838 39.9226 71.4(14) 70.9615 70.9212
9839 39.9262 71.6(14) 70.9487 70.9073
9840 39.9298 69.4(14) 70.9359 70.8935
9841 39.9334 70.0(14) 70.9232 70.8797
9842 39.9370 71.5(15) 70.9107 70.8658
9843 39.9406 71.0(14) 70.8982 70.8520
9844 39.9442 72.5(14) 70.8858 70.8382
9845 39.9478 70.6(13) 70.8736 70.8243
9846 39.9514 70.7(12) 70.8614 70.8105
9847 39.9550 72.1(12) 70.8495 70.7966
9848 39.9586 71.0(12) 70.8376 70.7828
9849 39.9622 70.1(12) 70.8258 70.7690
9850 39.9658 71.1(12) 70.8142 70.7551
9851 39.9694 71.1(13) 70.8027 70.7413
9852 39.9730 74.4(13) 70.7913 70.7275
9853 39.9766 73.2(13) 70.7801 70.7136
9854 39.9802 72.0(13) 70.7691 70.6998
9855 39.9838 70.4(12) 70.7582 70.6860
9856 39.9874 70.8(13) 70.7475 70.6721
9857 39.9910 70.3(12) 70.7368 70.6583
9858 39.9946 71.1(13) 70.7264 70.6444
9859 39.9982 72.3(13) 70.7161 70.6306
9860 40.0018 72.0(13) 70.7059 70.6168
9861 40.0054 70.4(12) 70.6959 70.6029
9862 40.0090 71.5(13) 70.6859 70.5891
9863 40.0126 72.3(13) 70.6761 70.5753
9864 40.0162 70.9(13) 70.6664 70.5614
9865 40.0198 72.0(13) 70.6568 70.5476
9866 40.0234 71.4(13) 70.6473 70.5338
9867 40.0270 72.4(13) 70.6378 70.5199
9868 40.0306 71.7(13) 70.6283 70.5061
9869 40.0342 70.4(12) 70.6189 70.4922
9870 40.0378 72.6(13) 70.6094 70.4784
9871 40.0414 71.2(13) 70.6000 70.4646
9872 40.0450 72.1(13) 70.5904 70.4507
9873 40.0486 73.8(15) 70.5808 70.4369
9874 40.0522 70.3(13) 70.5710 70.4231
9875 40.0558 72.3(13) 70.5611 70.4092
9876 40.0594 72.1(13) 70.5511 70.3954
9877 40.0630 71.9(13) 70.5408 70.3816
9878 40.0666 71.6(13) 70.5303 70.3677
9879 40.0702 72.5(13) 70.5196 70.3539
9880 40.0738 72.8(13) 70.5086 70.3400
9881 40.0774 73.9(13) 70.4973 70.3262
9882 40.0810 71.8(13) 70.4856 70.3124
9883 40.0846 70.6(13) 70.4736 70.2985
9884 40.0882 71.5(13) 70.4612 70.2847
9885 40.0918 71.0(13) 70.4484 70.2709
9886 40.0954 70.4(12) 70.4352 70.2570
9887 40.0990 70.9(12) 70.4216 70.2432
9888 40.1026 72.1(13) 70.4078 70.2294
9889 40.1062 72.5(13) 70.3933 70.2155
9890 40.1098 72.6(13) 70.3784 70.2017
9891 40.1134 73.5(13) 70.3631 70.1879
9892 40.1170 71.5(13) 70.3474 70.1740
9893 40.1206 72.0(13) 70.3313 70.1602
9894 40.1242 71.1(13) 70.3149 70.1464
9895 40.1278 72.8(13) 70.2982 70.1325
9896 40.1314 70.6(12) 70.2812 70.1187
9897 40.1350 71.7(13) 70.2640 70.1048
9898 40.1386 71.8(13) 70.2465 70.0910
9899 40.1422 71.0(13) 70.2290 70.0772
9900 40.1458 71.5(13) 70.2112 70.0633
9901 40.1494 69.4(12) 70.1934 70.0495
9902 40.1530 70.1(12) 70.1755 70.0357
9903 40.1566 69.8(12) 70.1576 70.0218
9904 40.1602 72.1(13) 70.1396 70.0080
9905 40.1638 72.0(13) 70.1217 69.9942
9906 40.1674 70.6(13) 70.1038 69.9803
9907 40.1710 70.5(12) 70.0860 69.9665
9908 40.1746 69.8(12) 70.0683 69.9527
9909 40.1782 68.9(12) 70.0506 69.9388
9910 40.1818 70.4(13) 70.0331 69.9250
9911 40.1854 70.6(13) 70.0157 69.9111
9912 40.1890 70.8(13) 69.9984 69.8973
9913 40.1926 70.6(12) 69.9813 69.8835
9914 40.1962 69.9(12) 69.9643 69.8696
9915 40.1998 69.7(12) 69.9475 69.8558
9916 40.2034 70.2(12) 69.9308 69.8420
9917 40.2070 71.3(13) 69.9144 69.8281
9918 40.2106 71.7(13) 69.8980 69.8143
9919 40.2142 69.9(12) 69.8818 69.8005
9920 40.2178 69.8(12) 69.8658 69.7866
9921 40.2214 72.0(13) 69.8500 69.7728
9922 40.2250 70.9(13) 69.8343 69.7589
9923 40.2286 70.6(12) 69.8187 69.7451
9924 40.2322 70.9(13) 69.8034 69.7313
9925 40.2358 71.0(13) 69.7881 69.7174
9926 40.2394 70.3(12) 69.7730 69.7036
9927 40.2430 69.4(12) 69.7580 69.6898
9928 40.2466 69.3(12) 69.7432 69.6759
9929 40.2502 70.0(12) 69.7284 69.6621
9930 40.2538 69.6(12) 69.7138 69.6483
9931 40.2574 69.2(12) 69.6993 69.6344
9932 40.2610 68.9(12) 69.6849 69.6206
9933 40.2646 68.3(12) 69.6706 69.6068
9934 40.2682 69.0(12) 69.6564 69.5929
9935 40.2718 70.2(12) 69.6423 69.5791
9936 40.2754 71.2(13) 69.6283 69.5652
9937 40.2790 71.0(13) 69.6143 69.5514
9938 40.2826 70.8(13) 69.6004 69.5376
9939 40.2862 72.7(13) 69.5866 69.5237
9940 40.2898 70.8(12) 69.5720 69.5099
9941 40.2934 70.4(12) 69.5583 69.4961
9942 40.2970 68.1(12) 69.5446 69.4822
9943 40.3006 68.3(12) 69.5310 69.4684
9944 40.3042 68.5(12) 69.5175 69.4546
9945 40.3078 70.8(12) 69.5040 69.4407
9946 40.3114 69.4(12) 69.4905 69.4269
9947 40.3150 68.6(12) 69.4771 69.4130
9948 40.3186 70.4(12) 69.4637 69.3992
9949 40.3222 70.0(12) 69.4504 69.3854
9950 40.3258 68.2(12) 69.4370 69.3715
9951 40.3294 68.2(12) 69.4238 69.3577
9952 40.3330 70.3(12) 69.4105 69.3439
9953 40.3366 70.2(12) 69.3973 69.3300
9954 40.3402 69.2(12) 69.3841 69.3162
9955 40.3438 68.5(12) 69.3710 69.3024
9956 40.3474 69.8(12) 69.3579 69.2885
9957 40.3510 69.8(12) 69.3448 69.2747
9958 40.3546 69.0(12) 69.3317 69.2609
9959 40.3582 69.7(12) 69.3187 69.2470
9960 40.3618 67.0(14) 69.3057 69.2332
9961 40.3654 67.9(12) 69.2928 69.2194
9962 40.3690 67.7(12) 69.2799 69.2055
9963 40.3726 68.4(12) 69.2670 69.1917
9964 40.3762 68.1(12) 69.2541 69.1778
9965 40.3798 71.0(13) 69.2413 69.1640
9966 40.3834 67.9(12) 69.2285 69.1502
9967 40.3870 68.0(12) 69.2158 69.1363
9968 40.3906 69.4(12) 69.2030 69.1225
9969 40.3942 67.6(12) 69.1904 69.1087
9970 40.3978 67.7(12) 69.1777 69.0948
9971 40.4014 67.9(12) 69.1651 69.0810
9972 40.4050 69.1(12) 69.1526 69.0672
9973 40.4086 70.6(12) 69.1401 69.0533
9974 40.4122 68.4(12) 69.1276 69.0395
9975 40.4158 69.8(12) 69.1152 69.0257
9976 40.4194 69.9(12) 69.1028 69.0118
9977 40.4230 69.2(12) 69.0905 68.9980
9978 40.4266 69.0(12) 69.0782 68.9841
9979 40.4302 70.9(13) 69.0660 68.9703
9980 40.4338 70.6(12) 69.0538 68.9565
9981 40.4374 70.1(12) 69.0418 68.9426
9982 40.4410 69.7(12) 69.0297 68.9288
9983 40.4446 67.9(12) 69.0178 68.9150
9984 40.4482 68.4(12) 69.0059 68.9011
9985 40.4518 69.2(12) 68.9941 68.8873
9986 40.4554 70.2(12) 68.9823 68.8735
9987 40.4590 71.3(14) 68.9707 68.8596
9988 40.4626 68.2(12) 68.9591 68.8458
9989 40.4662 67.3(12) 68.9477 68.8319
9990 40.4698 68.1(12) 68.9363 68.8181
9991 40.4734 68.5(12) 68.9250 68.8043
9992 40.4770 69.1(12) 68.9139 68.7904
9993 40.4806 69.9(12) 68.9028 68.7766
9994 40.4842 70.2(12) 68.8919 68.7628
9995 40.4878 68.2(12) 68.8811 68.7489
9996 40.4914 68.9(12) 68.8705 68.7351
9997 40.4950 70.4(12) 68.8600 68.7213
9998 40.4986 68.6(12) 68.8497 68.7074
9999 40.5022 67.6(12) 68.8395 68.6936
10000 40.5058 68.8(12) 68.8296 68.6797
10001 40.5094 68.7(12) 68.8198 68.6659
10002 40.5130 68.6(12) 68.8103 68.6521
10003 40.5166 68.6(12) 68.8011 68.6382
10004 40.5202 68.0(12) 68.7921 68.6244
10005 40.5238 67.9(12) 68.7834 68.6106
10006 40.5274 68.9(12) 68.7750 68.5967
10007 40.5310 69.4(12) 68.7669 68.5829
10008 40.5346 69.4(12) 68.7593 68.5691
10009 40.5382 69.9(12) 68.7520 68.5552
10010 40.5418 68.3(12) 68.7453 68.5414
10011 40.5454 69.5(12) 68.7390 68.5276
10012 40.5490 70.1(12) 68.7333 68.5137
10013 40.5526 70.1(12) 68.7282 68.4999
10014 40.5562 69.6(12) 68.7237 68.4860
10015 40.5598 68.1(12) 68.7200 68.4722
10016 40.5634 70.4(12) 68.7171 68.4584
10017 40.5670 69.4(12) 68.7151 68.4445
10018 40.5706 69.9(12) 68.7143 68.4307
10019 40.5742 70.3(12) 68.7144 68.4169
10020 40.5778 69.9(14) 68.7155 68.4030
10021 40.5814 70.9(13) 68.7180 68.3892
10022 40.5850 69.5(12) 68.7217 68.3754
10023 40.5886 69.4(12) 68.7270 68.3615
10024 40.5922 70.3(12) 68.7345 68.3477
10025 40.5958 70.3(12) 68.7430 68.3339
10026 40.5994 69.9(12) 68.7535 68.3200
10027 40.6030 68.9(12) 68.7659 68.3062
10028 40.6066 68.6(12) 68.7804 68.2923
10029 40.6102 69.7(12) 68.7972 68.2785
10030 40.6138 71.1(13) 68.8164 68.2647
10031 40.6174 70.9(13) 68.8381 68.2508
10032 40.6210 70.6(12) 68.8626 68.2370
10033 40.6246 69.7(12) 68.8899 68.2232
10034 40.6282 67.9(12) 68.9201 68.2093
10035 40.6318 66.5(12) 68.9534 68.1955
10036 40.6354 68.9(12) 68.9900 68.1817
10037 40.6390 71.1(13) 69.0298 68.1678
10038 40.6426 70.5(12) 69.0731 68.1540
10039 40.6462 72.0(13) 69.1199 68.1402
10040 40.6498 69.4(12) 69.1703 68.1263
10041 40.6534 70.0(12) 69.2242 68.1125
10042 40.6570 67.7(12) 69.2817 68.0986
10043 40.6606 69.1(12) 69.3429 68.0848
10044 40.6642 70.2(13) 69.4076 68.0710
10045 40.6678 68.7(12) 69.4758 68.0571
10046 40.6714 68.9(13) 69.5474 68.0433
10047 40.6750 68.9(12) 69.6223 68.0295
10048 40.6786 70.4(12) 69.7002 68.0156
10049 40.6822 71.2(13) 69.7810 68.0018
10050 40.6858 70.3(12) 69.8644 67.9880
10051 40.6894 70.3(12) 69.9502 67.9741
10052 40.6930 71.8(13) 70.0378 67.9603
10053 40.6966 70.6(12) 70.1271 67.9464
10054 40.7002 71.3(13) 70.2174 67.9326
10055 40.7038 71.6(13) 70.3083 67.9188
10056 40.7074 73.5(13) 70.3993 67.9049
10057 40.7110 71.7(13) 70.4897 67.8911
10058 40.7146 71.2(13) 70.5790 67.8773
10059 40.7182 71.7(13) 70.6662 67.8634
10060 40.7218 70.1(12) 70.7509 67.8496
10061 40.7254 70.6(12) 70.8322 67.8358
10062 40.7290 71.6(13) 70.9093 67.8219
10063 40.7326 72.0(13) 70.9815 67.8081
10064 40.7362 71.0(13) 71.0480 67.7943
10065 40.7398 71.8(13) 71.1080 67.7804
10066 40.7434 74.6(13) 71.1609 67.7666
10067 40.7470 70.0(12) 71.2059 67.7527
10068 40.7506 71.9(13) 71.2427 67.7389
10069 40.7542 73.0(13) 71.2705 67.7251
10070 40.7578 73.1(13) 71.2892 67.7112
10071 40.7614 71.0(13) 71.2982 67.6974
10072 40.7650 71.7(13) 71.2976 67.6836
10073 40.7686 70.8(13) 71.2871 67.6697
10074 40.7722 71.2(13) 71.2667 67.6559
10075 40.7758 72.3(13) 71.2367 67.6421
10076 40.7794 71.8(13) 71.1971 67.6282
10077 40.7830 71.9(13) 71.1483 67.6144
10078 40.7866 73.7(13) 71.0907 67.6006
10079 40.7902 71.6(15) 71.0246 67.5867
10080 40.7938 69.9(12) 70.9506 67.5729
10081 40.7974 71.7(13) 70.8693 67.5590
10082 40.8010 74.7(13) 70.7812 67.5452
10083 40.8046 72.3(13) 70.6871 67.5314
10084 40.8082 73.5(13) 70.5877 67.5175
10085 40.8118 74.5(13) 70.4836 67.5037
10086 40.8154 73.2(13) 70.3755 67.4899
10087 40.8190 71.4(13) 70.2643 67.4760
10088 40.8226 71.9(13) 70.1505 67.4622
10089 40.8262 71.5(13) 70.0350 67.4484
10090 40.8298 72.9(13) 69.9182 67.4345
10091 40.8334 69.5(12) 69.8011 67.4207
10092 40.8370 69.1(12) 69.6839 67.4069
10093 40.8406 70.1(12) 69.5673 67.3930
10094 40.8442 71.3(13) 69.4519 67.3792
10095 40.8478 70.7(13) 69.3380 67.3653
10096 40.8514 70.2(12) 69.2259 67.3515
10097 40.8550 70.4(12) 69.1162 67.3377
10098 40.8586 69.6(12) 69.0092 67.3238
10099 40.8622 69.8(12) 68.9049 67.3100
10100 40.8658 69.0(12) 68.8033 67.2962
10101 40.8694 69.0(12) 68.7054 67.2823
10102 40.8730 71.6(13) 68.6107 67.2685
10103 40.8766 70.8(12) 68.5195 67.2547
10104 40.8802 68.7(12) 68.4319 67.2408
10105 40.8838 69.1(12) 68.3479 67.2270
10106 40.8874 68.5(12) 68.2674 67.2132
10107 40.8910 68.8(12) 68.1906 67.1993
10108 40.8946 68.9(13) 68.1173 67.1855
10109 40.8982 70.4(12) 68.0475 67.1716
10110 40.9018 69.3(12) 67.9810 67.1578
10111 40.9054 71.7(13) 67.9175 67.1440
10112 40.9090 66.3(12) 67.8577 67.1301
10113 40.9126 67.3(12) 67.8009 67.1163
10114 40.9162 67.5(12) 67.7472 67.1025
10115 40.9198 67.1(12) 67.6964 67.0886
10116 40.9234 67.4(12) 67.6483 67.0748
10117 40.9270 68.5(13) 67.6028 67.0610
10118 40.9306 69.2(12) 67.5597 67.0471
10119 40.9342 67.5(13) 67.5190 67.0333
10120 40.9378 69.0(12) 67.4805 67.0194
10121 40.9414 65.1(12) 67.4440 67.0056
10122 40.9450 67.1(12) 67.4095 66.9918
10123 40.9486 68.9(12) 67.3768 66.9779
10124 40.9522 68.1(12) 67.3457 66.9641
10125 40.9558 66.4(13) 67.3162 66.9503
10126 40.9594 68.6(12) 67.2881 66.9364
10127 40.9630 68.0(12) 67.2613 66.9226
10128 40.9666 67.6(12) 67.2358 66.9088
10129 40.9702 69.5(12) 67.2114 66.8949
10130 40.9738 67.5(12) 67.1881 66.8811
10131 40.9774 68.0(12) 67.1657 66.8672
10132 40.9810 66.7(12) 67.1442 66.8534
10133 40.9846 68.0(12) 67.1235 66.8396
10134 40.9882 66.4(12) 67.1036 66.8257
10135 40.9918 68.2(12) 67.0844 66.8119
10136 40.9954 67.0(12) 67.0658 66.7981
10137 40.9990 69.5(12) 67.0479 66.7842
10138 41.0026 67.6(12) 67.0305 66.7704
10139 41.0062 68.0(12) 67.0136 66.7566
10140 41.0098 67.7(12) 66.9973 66.7427
10141 41.0134 66.7(12) 66.9814 66.7289
10142 41.0170 68.0(12) 66.9660 66.7151
10143 41.0206 67.9(12) 66.9510 66.7012
10144 41.0242 67.6(12) 66.9365 66.6874
10145 41.0278 66.8(12) 66.9224 66.6736
10146 41.0314 66.9(12) 66.9088 66.6597
10147 41.0350 66.8(12) 66.8957 66.6459
10148 41.0386 66.4(12) 66.8829 66.6320
10149 41.0422 66.2(12) 66.8707 66.6182
10150 41.0458 67.9(12) 66.8596 66.6050
10151 41.0494 69.1(12) 66.8543 66.5971
10152 41.0530 68.2(12) 66.8495 66.5891
10153 41.0566 67.7(12) 66.8453 66.5811
10154 41.0602 69.0(12) 66.8411 66.5732
10155 41.0638 67.7(12) 66.8382 66.5652
10156 41.0674 66.9(12) 66.8361 66.5572
10157 41.0710 68.2(12) 66.8348 66.5493
10158 41.0746 68.3(12) 66.8343 66.5413
10159 41.0782 68.0(12) 66.8348 66.5333
10160 41.0818 67.1(13) 66.8355 66.5254
10161 41.0854 69.0(12) 66.8381 66.5174
10162 41.0890 68.3(12) 66.8418 66.5094
10163 41.0926 67.7(12) 66.8468 66.5015
10164 41.0962 68.0(12) 66.8531 66.4935
10165 41.0998 68.9(12) 66.8609 66.4855
10166 41.1034 68.3(12) 66.8703 66.4776
10167 41.1070 67.1(12) 66.8814 66.4696
10168 41.1106 67.1(12) 66.8942 66.4616
10169 41.1142 67.5(12) 66.9089 66.4537
10170 41.1178 67.6(12) 66.9256 66.4457
10171 41.1214 66.5(12) 66.9445 66.4377
10172 41.1250 66.6(13) 66.9655 66.4298
10173 41.1286 66.8(12) 66.9889 66.4218
10174 41.1322 67.8(12) 67.0148 66.4138
10175 41.1358 67.3(13) 67.0432 66.4059
10176 41.1394 66.7(12) 67.0742 66.3979
10177 41.1430 67.7(12) 67.1079 66.3899
10178 41.1466 68.0(12) 67.1444 66.3820
10179 41.1502 69.1(12) 67.1837 66.3740
10180 41.1538 67.8(12) 67.2259 66.3660
10181 41.1574 67.6(12) 67.2710 66.3581
10182 41.1610 66.5(12) 67.3191 66.3501
10183 41.1646 67.1(12) 67.3700 66.3421
10184 41.1682 68.5(12) 67.4238 66.3342
10185 41.1718 67.4(12) 67.4805 66.3262
10186 41.1754 67.8(12) 67.5398 66.3182
10187 41.1790 67.0(14) 67.6018 66.3103
10188 41.1826 67.3(12) 67.6663 66.3023
10189 41.1862 68.6(12) 67.7331 66.2943
10190 41.1898 67.9(12) 67.8019 66.2864
10191 41.1934 68.8(12) 67.8727 66.2784
10192 41.1970 67.9(12) 67.9451 66.2704
10193 41.2006 66.8(13) 68.0188 66.2625
10194 41.2042 68.7(12) 68.0933 66.2545
10195 41.2078 68.1(12) 68.1685 66.2465
10196 41.2114 68.0(12) 68.2438 66.2386
10197 41.2150 66.8(12) 68.3186 66.2306
10198 41.2186 68.9(12) 68.3926 66.2226
10199 41.2222 68.0(12) 68.4652 66.2147
10200 41.2258 67.9(12) 68.5358 66.2067
10201 41.2294 68.7(12) 68.6037 66.1987
10202 41.2330 69.5(13) 68.6684 66.1908
10203 41.2366 69.8(12) 68.7291 66.1828
10204 41.2402 68.0(12) 68.7852 66.1748
10205 41.2438 69.6(12) 68.8361 66.1669
10206 41.2474 68.7(12) 68.8813 66.1589
10207 41.2510 69.8(12) 68.9200 66.1509
10208 41.2546 70.2(12) 68.9518 66.1430
10209 41.2582 69.6(12) 68.9762 66.1350
10210 41.2618 69.7(12) 68.9930 66.1270
10211 41.2654 69.7(12) 69.0017 66.1191
10212 41.2690 68.6(12) 69.0023 66.1111
10213 41.2726 69.2(12) 68.9947 66.1031
10214 41.2762 67.7(12) 68.9788 66.0952
10215 41.2798 69.8(12) 68.9549 66.0872
10216 41.2834 68.1(12) 68.9230 66.0792
10217 41.2870 67.6(12) 68.8836 66.0713
10218 41.2906 68.7(12) 68.8370 66.0633
10219 41.2942 68.2(12) 68.7834 66.0553
10220 41.2978 69.8(12) 68.7236 66.0474
10221 41.3014 70.1(12) 68.6579 66.0394
10222 41.3050 69.7(12) 68.5871 66.0314
10223 41.3086 70.0(13) 68.5115 66.0235
10224 41.3122 69.4(12) 68.4319 66.0155
10225 41.3158 69.1(12) 68.3489 66.0075
10226 41.3194 69.8(12) 68.2631 65.9996
10227 41.3230 68.3(12) 68.1750 65.9916
10228 41.3266 68.1(12) 68.0852 65.9836
10229 41.3302 67.9(12) 67.9944 65.9757
10230 41.3338 69.5(12) 67.9030 65.9677
10231 41.3374 66.6(12) 67.8114 65.9597
10232 41.3410 69.2(12) 67.7202 65.9518
10233 41.3446 67.4(12) 67.6297 65.9438
10234 41.3482 68.2(12) 67.5403 65.9358
10235 41.3518 68.8(12) 67.4523 65.9279
10236 41.3554 66.1(12) 67.3661 65.9199
10237 41.3590 67.4(12) 67.2818 65.9119
10238 41.3626 68.5(12) 67.1997 65.9040
10239 41.3662 67.3(12) 67.1200 65.8960
10240 41.3698 67.5(12) 67.0428 65.8880
10241 41.3734 67.7(12) 66.9682 65.8801
10242 41.3770 66.0(12) 66.8964 65.8721
10243 41.3806 66.2(12) 66.8274 65.8641
10244 41.3842 67.7(12) 66.7612 65.8562
10245 41.3878 66.1(12) 66.6978 65.8482
10246 41.3914 65.9(12) 66.6373 65.8402
10247 41.3950 67.2(12) 66.5797 65.8323
10248 41.3986 66.9(12) 66.5248 65.8243
10249 41.4022 66.9(12) 66.4727 65.8163
10250 41.4058 66.8(12) 66.4233 65.8084
10251 41.4094 68.1(12) 66.3765 65.8004
10252 41.4130 66.5(12) 66.3322 65.7924
10253 41.4166 65.5(12) 66.2903 65.7845
10254 41.4202 65.1(13) 66.2508 65.7765
10255 41.4238 67.1(12) 66.2134 65.7685
10256 41.4274 66.1(13) 66.1782 65.7606
10257 41.4310 66.8(12) 66.1450 65.7526
10258 41.4346 66.3(12) 66.1137 65.7446
10259 41.4382 66.5(12) 66.0841 65.7367
10260 41.4418 65.7(12) 66.0562 65.7287
10261 41.4454 65.6(12) 66.0299 65.7207
10262 41.4490 66.8(12) 66.0050 65.7128
10263 41.4526 65.2(12) 65.9814 65.7048
10264 41.4562 66.4(12) 65.9591 65.6968
10265 41.4598 66.1(12) 65.9380 65.6889
10266 41.4634 65.3(12) 65.9179 65.6809
10267 41.4670 67.7(12) 65.8987 65.6729
10268 41.4706 68.3(12) 65.8805 65.6650
10269 41.4742 64.2(12) 65.8631 65.6570
10270 41.4778 64.7(12) 65.8464 65.6490
10271 41.4814 65.3(12) 65.8304 65.6411
10272 41.4850 66.8(12) 65.8151 65.6331
10273 41.4886 65.0(12) 65.8003 65.6251
10274 41.4922 65.7(12) 65.7860 65.6172
10275 41.4958 65.2(12) 65.7721 65.6092
10276 41.4994 67.3(12) 65.7587 65.6012
10277 41.5030 66.5(12) 65.7457 65.5933
10278 41.5066 66.4(12) 65.7330 65.5853
10279 41.5102 65.8(12) 65.7206 65.5773
10280 41.5138 66.7(12) 65.7085 65.5694
10281 41.5174 65.5(12) 65.6967 65.5614
10282 41.5210 66.5(12) 65.6851 65.5535
10283 41.5246 65.3(12) 65.6736 65.5455
10284 41.5282 63.5(12) 65.6624 65.5375
10285 41.5318 66.0(12) 65.6514 65.5295
10286 41.5354 65.6(12) 65.6405 65.5216
10287 41.5390 66.5(12) 65.6298 65.5136
10288 41.5426 67.6(12) 65.6192 65.5056
10289 41.5462 66.1(12) 65.6087 65.4977
10290 41.5498 65.6(12) 65.5983 65.4897
10291 41.5534 66.0(12) 65.5881 65.4817
10292 41.5570 65.9(12) 65.5779 65.4738
10293 41.5606 66.5(12) 65.5678 65.4658
10294 41.5642 66.0(12) 65.5578 65.4578
10295 41.5678 64.1(12) 65.5479 65.4499
10296 41.5714 65.8(12) 65.5380 65.4419
10297 41.5750 64.0(12) 65.5283 65.4340
10298 41.5786 65.1(12) 65.5185 65.4260
10299 41.5822 66.1(12) 65.5089 65.4180
10300 41.5858 65.8(12) 65.4993 65.4100
10301 41.5894 64.3(12) 65.4897 65.4021
10302 41.5930 64.6(12) 65.4802 65.3941
10303 41.5966 66.6(12) 65.4708 65.3861
10304 41.6002 66.0(12) 65.4614 65.3782
10305 41.6038 66.5(12) 65.4520 65.3702
10306 41.6074 65.8(12) 65.4427 65.3622
10307 41.6110 65.1(13) 65.4335 65.3543
10308 41.6146 65.4(12) 65.4242 65.3463
10309 41.6182 65.0(12) 65.4151 65.3383
10310 41.6218 64.9(12) 65.4059 65.3304
10311 41.6254 65.7(12) 65.3968 65.3224
10312 41.6290 67.5(12) 65.3877 65.3145
10313 41.6326 66.5(12) 65.3786 65.3065
10314 41.6362 66.4(12) 65.3696 65.2985
10315 41.6398 66.6(12) 65.3606 65.2906
10316 41.6434 66.8(12) 65.3516 65.2826
10317 41.6470 66.4(12) 65.3427 65.2746
10318 41.6506 64.4(12) 65.3338 65.2667
10319 41.6542 64.2(13) 65.3249 65.2587
10320 41.6578 64.4(12) 65.3161 65.2507
10321 41.6614 65.0(12) 65.3072 65.2428
10322 41.6650 66.6(12) 65.2984 65.2348
10323 41.6686 66.2(12) 65.2896 65.2268
10324 41.6722 68.5(12) 65.2809 65.2188
10325 41.6758 64.6(12) 65.2722 65.2109
10326 41.6794 65.2(12) 65.2634 65.2029
10327 41.6830 64.7(12) 65.2547 65.1950
10328 41.6866 65.2(12) 65.2460 65.1870
10329 41.6902 66.3(12) 65.2374 65.1790
10330 41.6938 64.5(12) 65.2288 65.1711
10331 41.6974 64.3(12) 65.2201 65.1631
10332 41.7010 63.4(12) 65.2115 65.1551
10333 41.7046 64.3(12) 65.2030 65.1472
10334 41.7082 64.3(12) 65.1944 65.1392
10335 41.7118 65.2(12) 65.1858 65.1312
10336 41.7154 66.2(12) 65.1773 65.1233
10337 41.7190 64.8(12) 65.1688 65.1153
10338 41.7226 65.3(12) 65.1603 65.1073
10339 41.7262 66.1(12) 65.1518 65.0994
10340 41.7298 64.7(12) 65.1433 65.0914
10341 41.7334 64.9(12) 65.1349 65.0834
10342 41.7370 64.3(12) 65.1264 65.0755
10343 41.7406 65.0(12) 65.1180 65.0675
10344 41.7442 65.2(12) 65.1096 65.0595
10345 41.7478 64.0(12) 65.1012 65.0516
10346 41.7514 64.3(12) 65.0928 65.0436
10347 41.7550 65.2(12) 65.0844 65.0356
10348 41.7586 65.6(13) 65.0760 65.0277
10349 41.7622 65.9(12) 65.0677 65.0197
10350 41.7658 63.0(12) 65.0594 65.0117
10351 41.7694 65.7(12) 65.0510 65.0038
10352 41.7730 66.3(12) 65.0427 64.9958
10353 41.7766 64.9(12) 65.0344 64.9878
10354 41.7802 65.4(12) 65.0261 64.9799
10355 41.7838 65.7(12) 65.0179 64.9719
10356 41.7874 66.8(12) 65.0096 64.9639
10357 41.7910 66.4(12) 65.0014 64.9560
10358 41.7946 65.7(12) 64.9931 64.9480
10359 41.7982 64.9(12) 64.9849 64.9400
10360 41.8018 64.7(12) 64.9767 64.9321
10361 41.8054 65.7(12) 64.9685 64.9241
10362 41.8090 67.1(12) 64.9603 64.9161
10363 41.8126 64.4(12) 64.9521 64.9082
10364 41.8162 65.2(12) 64.9439 64.9002
10365 41.8198 66.5(12) 64.9357 64.8922
10366 41.8234 66.6(12) 64.9276 64.8843
10367 41.8270 65.4(12) 64.9195 64.8763
10368 41.8306 65.2(12) 64.9116 64.8683
10369 41.8342 64.9(12) 64.9035 64.8604
10370 41.8378 64.3(12) 64.8954 64.8524
10371 41.8414 66.8(12) 64.8873 64.8444
10372 41.8450 65.6(12) 64.8793 64.8365
10373 41.8486 64.3(12) 64.8712 64.8285
10374 41.8522 65.2(12) 64.8632 64.8205
10375 41.8558 66.1(12) 64.8551 64.8126
10376 41.8594 66.4(12) 64.8471 64.8046
10377 41.8630 65.8(12) 64.8391 64.7966
10378 41.8666 66.7(12) 64.8312 64.7887
10379 41.8702 64.3(12) 64.8232 64.7807
10380 41.8738 63.9(12) 64.8153 64.7727
10381 41.8774 64.7(12) 64.8074 64.7648
10382 41.8810 65.6(12) 64.7995 64.7568
10383 41.8846 65.9(12) 64.7917 64.7488
10384 41.8882 66.5(12) 64.7838 64.7409
10385 41.8918 66.4(12) 64.7760 64.7329
10386 41.8954 65.3(12) 64.7683 64.7249
10387 41.8990 64.8(12) 64.7606 64.7170
10388 41.9026 65.4(12) 64.7529 64.7090
10389 41.9062 65.4(13) 64.7452 64.7010
10390 41.9098 64.6(12) 64.7376 64.6931
10391 41.9134 64.3(12) 64.7301 64.6851
10392 41.9170 64.3(12) 64.7226 64.6771
10393 41.9206 65.9(12) 64.7152 64.6692
10394 41.9242 65.1(12) 64.7079 64.6612
10395 41.9278 67.2(12) 64.7006 64.6532
10396 41.9314 63.6(12) 64.6934 64.6453
10397 41.9350 66.5(12) 64.6863 64.6373
10398 41.9386 65.4(12) 64.6794 64.6293
10399 41.9422 66.2(12) 64.6725 64.6214
10400 41.9458 63.1(12) 64.6658 64.6134
10401 41.9494 66.8(12) 64.6591 64.6054
10402 41.9530 65.1(12) 64.6525 64.5975
10403 41.9566 65.0(14) 64.6461 64.5895
10404 41.9602 64.8(12) 64.6399 64.5815
10405 41.9638 64.2(12) 64.6338 64.5736
10406 41.9674 66.6(12) 64.6279 64.5656
10407 41.9710 65.3(12) 64.6221 64.5576
10408 41.9746 64.8(12) 64.6166 64.5497
10409 41.9782 64.2(12) 64.6112 64.5417
10410 41.9818 64.8(12) 64.6061 64.5337
10411 41.9854 64.6(12) 64.6012 64.5258
10412 41.9890 63.2(12) 64.5964 64.5178
10413 41.9926 64.7(12) 64.5920 64.5098
10414 41.9962 65.7(12) 64.5877 64.5019
10415 41.9998 66.2(12) 64.5837 64.4939
10416 42.0034 66.0(12) 64.5800 64.4859
10417 42.0070 64.1(12) 64.5765 64.4780
10418 42.0106 64.9(12) 64.5732 64.4700
10419 42.0142 63.9(12) 64.5702 64.4620
10420 42.0178 65.0(12) 64.5675 64.4541
10421 42.0214 63.5(12) 64.5650 64.4461
10422 42.0250 65.1(12) 64.5627 64.4381
10423 42.0286 65.9(12) 64.5607 64.4302
10424 42.0322 65.3(12) 64.5589 64.4222
10425 42.0358 63.7(12) 64.5573 64.4142
10426 42.0394 63.5(13) 64.5559 64.4063
10427 42.0430 63.3(12) 64.5547 64.3983
10428 42.0466 65.2(12) 64.5536 64.3903
10429 42.0502 65.2(12) 64.5527 64.3824
10430 42.0538 64.7(12) 64.5519 64.3744
10431 42.0574 64.8(12) 64.5511 64.3664
10432 42.0610 64.7(12) 64.5504 64.3585
10433 42.0646 64.6(12) 64.5496 64.3505
10434 42.0682 65.7(12) 64.5489 64.3425
10435 42.0718 64.7(12) 64.5480 64.3346
10436 42.0754 64.3(12) 64.5470 64.3266
10437 42.0790 64.8(12) 64.5458 64.3186
10438 42.0826 64.8(12) 64.5444 64.3107
10439 42.0862 65.3(12) 64.5427 64.3027
10440 42.0898 63.3(12) 64.5406 64.2947
10441 42.0934 63.0(12) 64.5381 64.2868
10442 42.0970 65.1(12) 64.5351 64.2788
10443 42.1006 65.0(12) 64.5316 64.2708
10444 42.1042 63.9(12) 64.5275 64.2629
10445 42.1078 65.8(12) 64.5227 64.2549
10446 42.1114 65.8(12) 64.5173 64.2469
10447 42.1150 65.8(12) 64.5111 64.2390
10448 42.1186 65.5(12) 64.5042 64.2310
10449 42.1222 63.9(12) 64.4965 64.2230
10450 42.1258 65.3(12) 64.4881 64.2151
10451 42.1294 64.1(12) 64.4788 64.2071
10452 42.1330 64.2(12) 64.4688 64.1991
10453 42.1366 65.2(12) 64.4582 64.1912
10454 42.1402 64.9(12) 64.4468 64.1832
10455 42.1438 65.4(12) 64.4348 64.1752
10456 42.1474 66.4(12) 64.4222 64.1673
10457 42.1510 65.7(12) 64.4090 64.1593
10458 42.1546 64.5(12) 64.3955 64.1513
10459 42.1582 63.8(12) 64.3814 64.1434
10460 42.1618 64.5(12) 64.3671 64.1354
10461 42.1654 65.0(12) 64.3525 64.1274
10462 42.1690 66.3(12) 64.3376 64.1195
10463 42.1726 65.2(12) 64.3226 64.1115
10464 42.1762 62.1(12) 64.3074 64.1035
10465 42.1798 64.5(12) 64.2922 64.0956
10466 42.1834 64.8(12) 64.2769 64.0876
10467 42.1870 63.9(12) 64.2617 64.0797
10468 42.1906 62.7(12) 64.2464 64.0717
10469 42.1942 64.2(12) 64.2313 64.0637
10470 42.1978 63.4(12) 64.2163 64.0557
10471 42.2014 63.1(13) 64.2014 64.0478
10472 42.2050 63.7(12) 64.1866 64.0398
10473 42.2086 64.8(12) 64.1721 64.0318
10474 42.2122 63.7(12) 64.1577 64.0239
10475 42.2158 63.5(12) 64.1436 64.0159
10476 42.2194 64.5(13) 64.1296 64.0079
10477 42.2230 64.9(12) 64.1159 64.0000
10478 42.2266 65.1(12) 64.1025 63.9920
10479 42.2302 63.3(12) 64.0893 63.9840
10480 42.2338 63.0(12) 64.0763 63.9761
10481 42.2374 63.9(12) 64.0636 63.9681
10482 42.2410 63.8(12) 64.0512 63.9601
10483 42.2446 62.6(12) 64.0390 63.9522
10484 42.2482 64.5(12) 64.0270 63.9442
10485 42.2518 63.6(12) 64.0154 63.9363
10486 42.2554 62.9(12) 64.0039 63.9283
10487 42.2590 64.2(12) 63.9927 63.9203
10488 42.2626 64.8(12) 63.9816 63.9124
10489 42.2662 64.2(12) 63.9708 63.9044
10490 42.2698 65.6(12) 63.9603 63.8964
10491 42.2734 64.2(12) 63.9499 63.8884
10492 42.2770 65.6(12) 63.9397 63.8805
10493 42.2806 63.6(12) 63.9296 63.8725
10494 42.2842 63.0(12) 63.9198 63.8645
10495 42.2878 62.9(12) 63.9101 63.8566
10496 42.2914 64.7(12) 63.9005 63.8486
10497 42.2950 64.5(12) 63.8911 63.8406
10498 42.2986 63.7(12) 63.8818 63.8327
10499 42.3022 63.3(12) 63.8727 63.8247
10500 42.3058 64.3(12) 63.8636 63.8168
10501 42.3094 64.7(12) 63.8546 63.8088
10502 42.3130 64.4(12) 63.8458 63.8008
10503 42.3166 63.8(12) 63.8370 63.7929
10504 42.3202 63.8(12) 63.8284 63.7849
10505 42.3238 64.6(12) 63.8197 63.7769
10506 42.3274 63.8(12) 63.8112 63.7690
10507 42.3310 62.0(12) 63.8027 63.7610
10508 42.3346 62.6(12) 63.7943 63.7530
10509 42.3382 63.8(12) 63.7860 63.7450
10510 42.3418 65.0(12) 63.7777 63.7371
10511 42.3454 65.7(12) 63.7694 63.7291
10512 42.3490 63.0(12) 63.7612 63.7211
10513 42.3526 64.4(12) 63.7530 63.7132
10514 42.3562 62.6(12) 63.7449 63.7052
10515 42.3598 64.2(12) 63.7368 63.6973
10516 42.3634 63.3(12) 63.7288 63.6893
10517 42.3670 63.3(12) 63.7208 63.6813
10518 42.3706 62.6(12) 63.7128 63.6734
10519 42.3742 64.9(12) 63.7048 63.6654
10520 42.3778 64.9(12) 63.6969 63.6574
10521 42.3814 64.8(12) 63.6890 63.6495
10522 42.3850 64.4(12) 63.6812 63.6415
10523 42.3886 62.8(12) 63.6733 63.6335
10524 42.3922 64.5(12) 63.6655 63.6256
10525 42.3958 64.5(12) 63.6578 63.6176
10526 42.3994 64.6(12) 63.6500 63.6096
10527 42.4030 64.8(12) 63.6423 63.6017
10528 42.4066 64.4(12) 63.6347 63.5937
10529 42.4102 63.8(12) 63.6270 63.5857
10530 42.4138 64.1(12) 63.6195 63.5778
10531 42.4174 65.0(12) 63.6119 63.5698
10532 42.4210 63.7(12) 63.6044 63.5618
10533 42.4246 64.6(12) 63.5974 63.5539
10534 42.4282 64.2(12) 63.5900 63.5459
10535 42.4318 64.3(12) 63.5827 63.5379
10536 42.4354 63.0(12) 63.5754 63.5300
10537 42.4390 63.2(12) 63.5682 63.5220
10538 42.4426 63.8(12) 63.5611 63.5140
10539 42.4462 64.2(12) 63.5540 63.5061
10540 42.4498 62.7(12) 63.5470 63.4981
10541 42.4534 61.4(12) 63.5401 63.4901
10542 42.4570 63.6(12) 63.5333 63.4822
10543 42.4606 64.6(12) 63.5265 63.4742
10544 42.4642 64.0(12) 63.5199 63.4662
10545 42.4678 61.8(12) 63.5134 63.4583
10546 42.4714 63.1(12) 63.5069 63.4503
10547 42.4750 62.9(12) 63.5006 63.4423
10548 42.4786 63.5(12) 63.4943 63.4344
10549 42.4822 62.6(12) 63.4882 63.4264
10550 42.4858 64.8(12) 63.4822 63.4184
10551 42.4894 65.2(12) 63.4763 63.4105
10552 42.4930 63.1(13) 63.4706 63.4025
10553 42.4966 65.4(12) 63.4649 63.3945
10554 42.5002 63.1(12) 63.4594 63.3866
10555 42.5038 63.8(12) 63.4540 63.3786
10556 42.5074 65.0(12) 63.4488 63.3706
10557 42.5110 65.0(12) 63.4437 63.3627
10558 42.5146 64.4(12) 63.4387 63.3547
10559 42.5182 64.5(12) 63.4338 63.3467
10560 42.5218 64.1(12) 63.4290 63.3388
10561 42.5254 64.9(12) 63.4244 63.3308
10562 42.5290 64.2(12) 63.4199 63.3228
10563 42.5326 64.9(12) 63.4155 63.3149
10564 42.5362 65.0(12) 63.4112 63.3069
10565 42.5398 63.8(12) 63.4070 63.2989
10566 42.5434 64.1(12) 63.4029 63.2910
10567 42.5470 62.6(12) 63.3989 63.2830
10568 42.5506 63.2(12) 63.3950 63.2750
10569 42.5542 65.4(12) 63.3911 63.2671
10570 42.5578 65.1(12) 63.3874 63.2591
10571 42.5614 64.2(12) 63.3836 63.2511
10572 42.5650 63.3(12) 63.3799 63.2432
10573 42.5686 64.1(12) 63.3763 63.2352
10574 42.5722 64.9(12) 63.3726 63.2272
10575 42.5758 64.9(12) 63.3690 63.2193
10576 42.5794 65.8(12) 63.3654 63.2113
10577 42.5830 65.1(12) 63.3617 63.2033
10578 42.5866 64.7(12) 63.3580 63.1954
10579 42.5902 65.5(12) 63.3543 63.1874
10580 42.5938 65.6(12) 63.3505 63.1794
10581 42.5974 65.5(12) 63.3467 63.1715
10582 42.6010 64.5(12) 63.3429 63.1635
10583 42.6046 62.1(12) 63.3390 63.1555
10584 42.6082 65.5(12) 63.3350 63.1476
10585 42.6118 64.4(13) 63.3310 63.1396
10586 42.6154 65.0(12) 63.3270 63.1316
10587 42.6190 64.9(12) 63.3230 63.1237
10588 42.6226 66.5(12) 63.3191 63.1157
10589 42.6262 66.5(12) 63.3152 63.1077
10590 42.6298 66.7(12) 63.3114 63.0998
10591 42.6334 64.4(12) 63.3078 63.0918
10592 42.6370 63.8(12) 63.3043 63.0838
10593 42.6406 64.4(12) 63.3010 63.0759
10594 42.6442 65.4(12) 63.2979 63.0679
10595 42.6478 65.6(12) 63.2952 63.0599
10596 42.6514 65.4(12) 63.2927 63.0520
10597 42.6550 65.4(12) 63.2906 63.0440
10598 42.6586 64.6(12) 63.2888 63.0360
10599 42.6622 63.2(12) 63.2874 63.0281
10600 42.6658 63.8(12) 63.2864 63.0201
10601 42.6694 65.2(12) 63.2858 63.0121
10602 42.6730 64.3(12) 63.2856 63.0042
10603 42.6766 65.0(12) 63.2859 62.9962
10604 42.6802 65.3(13) 63.2865 62.9882
10605 42.6838 65.1(13) 63.2876 62.9803
10606 42.6874 65.5(12) 63.2891 62.9723
10607 42.6910 64.8(12) 63.2909 62.9643
10608 42.6946 65.6(12) 63.2931 62.9564
10609 42.6982 65.3(12) 63.2957 62.9484
10610 42.7018 65.6(14) 63.2984 62.9404
10611 42.7054 65.7(12) 63.3014 62.9325
10612 42.7090 64.7(12) 63.3046 62.9245
10613 42.7126 66.1(12) 63.3079 62.9165
10614 42.7162 64.3(13) 63.3112 62.9086
10615 42.7198 64.6(12) 63.3145 62.9006
10616 42.7234 65.4(12) 63.3177 62.8926
10617 42.7270 65.3(12) 63.3207 62.8847
10618 42.7306 64.4(12) 63.3233 62.8767
10619 42.7342 64.6(12) 63.3256 62.8687
10620 42.7378 65.3(12) 63.3274 62.8608
10621 42.7414 65.6(12) 63.3285 62.8528
10622 42.7450 65.0(12) 63.3290 62.8448
10623 42.7486 65.2(12) 63.3286 62.8369
10624 42.7522 65.5(12) 63.3273 62.8289
10625 42.7558 66.6(12) 63.3249 62.8209
10626 42.7594 63.1(12) 63.3215 62.8130
10627 42.7630 64.0(12) 63.3169 62.8050
10628 42.7666 64.5(12) 63.3111 62.7970
10629 42.7702 66.7(12) 63.3040 62.7891
10630 42.7738 66.1(12) 63.2957 62.7811
10631 42.7774 65.3(12) 63.2861 62.7731
10632 42.7810 69.4(12) 63.2753 62.7652
10633 42.7846 65.6(12) 63.2632 62.7572
10634 42.7882 63.1(12) 63.2499 62.7492
10635 42.7918 67.2(12) 63.2356 62.7413
10636 42.7954 62.4(12) 63.2202 62.7333
10637 42.7990 64.5(12) 63.2039 62.7253
10638 42.8026 66.8(12) 63.1867 62.7174
10639 42.8062 65.9(12) 63.1687 62.7094
10640 42.8098 67.3(12) 63.1501 62.7014
10641 42.8134 66.5(12) 63.1309 62.6935
10642 42.8170 65.3(12) 63.1111 62.6855
10643 42.8206 64.5(12) 63.0910 62.6775
10644 42.8242 65.6(12) 63.0705 62.6696
10645 42.8278 65.1(12) 63.0498 62.6616
10646 42.8314 65.3(12) 63.0290 62.6536
10647 42.8350 65.1(12) 63.0080 62.6457
10648 42.8386 63.9(12) 62.9870 62.6377
10649 42.8422 63.9(12) 62.9661 62.6297
10650 42.8458 64.8(12) 62.9453 62.6218
10651 42.8494 64.0(12) 62.9246 62.6138
10652 42.8530 63.3(12) 62.9042 62.6058
10653 42.8566 63.2(12) 62.8840 62.5979
10654 42.8602 63.2(12) 62.8641 62.5899
10655 42.8638 64.8(12) 62.8446 62.5820
10656 42.8674 64.8(12) 62.8254 62.5740
10657 42.8710 65.5(12) 62.8066 62.5660
10658 42.8746 62.5(12) 62.7882 62.5580
10659 42.8782 64.4(12) 62.7702 62.5501
10660 42.8818 64.5(12) 62.7527 62.5421
10661 42.8854 64.8(12) 62.7356 62.5341
10662 42.8890 64.9(12) 62.7190 62.5262
10663 42.8926 64.2(12) 62.7029 62.5182
10664 42.8962 62.7(12) 62.6872 62.5102
10665 42.8998 63.7(12) 62.6719 62.5023
10666 42.9034 65.5(12) 62.6571 62.4943
10667 42.9070 64.7(12) 62.6428 62.4863
10668 42.9106 63.1(12) 62.6289 62.4784
10669 42.9142 62.7(12) 62.6155 62.4704
10670 42.9178 64.1(12) 62.6024 62.4625
10671 42.9214 64.6(12) 62.5897 62.4545
10672 42.9250 64.4(12) 62.5775 62.4465
10673 42.9286 64.3(12) 62.5656 62.4386
10674 42.9322 65.2(12) 62.5540 62.4306
10675 42.9358 64.9(12) 62.5428 62.4226
10676 42.9394 64.1(12) 62.5319 62.4146
10677 42.9430 64.7(12) 62.5254 62.4108
10678 42.9466 63.7(12) 62.5202 62.4078
10679 42.9502 63.1(12) 62.5153 62.4049
10680 42.9538 63.4(12) 62.5106 62.4020
10681 42.9574 63.9(12) 62.5062 62.3991
10682 42.9610 62.6(12) 62.5020 62.3962
10683 42.9646 63.2(12) 62.4980 62.3932
10684 42.9682 63.0(12) 62.4943 62.3903
10685 42.9718 63.4(12) 62.4907 62.3874
10686 42.9754 65.0(12) 62.4874 62.3845
10687 42.9790 63.8(12) 62.4842 62.3816
10688 42.9826 62.2(12) 62.4812 62.3787
10689 42.9862 62.0(12) 62.4783 62.3757
10690 42.9898 63.6(12) 62.4757 62.3728
10691 42.9934 64.8(12) 62.4732 62.3699
10692 42.9970 64.9(12) 62.4708 62.3670
10693 43.0006 63.3(12) 62.4686 62.3641
10694 43.0042 62.6(12) 62.4665 62.3611
10695 43.0078 61.8(12) 62.4646 62.3582
10696 43.0114 63.8(12) 62.4629 62.3553
10697 43.0150 63.3(12) 62.4613 62.3524
10698 43.0186 62.7(12) 62.4599 62.3495
10699 43.0222 62.2(12) 62.4586 62.3466
10700 43.0258 62.9(12) 62.4575 62.3436
10701 43.0294 62.8(12) 62.4566 62.3407
10702 43.0330 61.3(12) 62.4559 62.3378
10703 43.0366 63.4(12) 62.4554 62.3349
10704 43.0402 63.8(12) 62.4551 62.3320
10705 43.0438 64.3(12) 62.4550 62.3290
10706 43.0474 61.9(12) 62.4552 62.3261
10707 43.0510 60.6(12) 62.4557 62.3232
10708 43.0546 63.9(12) 62.4566 62.3203
10709 43.0582 63.3(12) 62.4577 62.3174
10710 43.0618 62.7(14) 62.4592 62.3145
10711 43.0654 63.1(12) 62.4611 62.3115
10712 43.0690 63.6(12) 62.4635 62.3086
10713 43.0726 64.7(12) 62.4663 62.3057
10714 43.0762 63.4(12) 62.4696 62.3028
10715 43.0798 62.5(12) 62.4735 62.2999
10716 43.0834 62.6(12) 62.4781 62.2970
10717 43.0870 63.2(12) 62.4833 62.2940
10718 43.0906 63.0(12) 62.4892 62.2911
10719 43.0942 63.9(12) 62.4959 62.2882
10720 43.0978 64.2(12) 62.5035 62.2853
10721 43.1014 61.9(12) 62.5120 62.2824
10722 43.1050 63.1(12) 62.5216 62.2794
10723 43.1086 62.7(12) 62.5321 62.2765
10724 43.1122 60.3(12) 62.5438 62.2736
10725 43.1158 64.3(12) 62.5568 62.2707
10726 43.1194 65.2(12) 62.5710 62.2678
10727 43.1230 62.3(12) 62.5866 62.2649
10728 43.1266 63.8(12) 62.6037 62.2619
10729 43.1302 63.1(12) 62.6223 62.2590
10730 43.1338 64.0(12) 62.6424 62.2561
10731 43.1374 63.8(12) 62.6643 62.2532
10732 43.1410 61.7(12) 62.6880 62.2503
10733 43.1446 63.4(12) 62.7135 62.2473
10734 43.1482 64.7(12) 62.7409 62.2444
10735 43.1518 64.8(12) 62.7702 62.2415
10736 43.1554 64.2(12) 62.8015 62.2386
10737 43.1590 63.1(12) 62.8349 62.2357
10738 43.1626 63.3(12) 62.8703 62.2328
10739 43.1662 63.1(12) 62.9079 62.2298
10740 43.1698 63.7(12) 62.9475 62.2269
10741 43.1734 63.7(12) 62.9893 62.2240
10742 43.1770 62.5(12) 63.0331 62.2211
10743 43.1806 62.5(12) 63.0790 62.2182
10744 43.1842 63.3(12) 63.1268 62.2153
10745 43.1878 64.4(12) 63.1766 62.2123
10746 43.1914 63.7(12) 63.2282 62.2094
10747 43.1950 63.0(12) 63.2815 62.2065
10748 43.1986 64.0(12) 63.3364 62.2036
10749 43.2022 62.0(12) 63.3927 62.2007
10750 43.2058 63.8(12) 63.4504 62.1977
10751 43.2094 64.4(12) 63.5090 62.1948
10752 43.2130 64.4(12) 63.5685 62.1919
10753 43.2166 62.8(12) 63.6286 62.1890
10754 43.2202 62.5(12) 63.6890 62.1861
10755 43.2238 62.9(12) 63.7493 62.1832
10756 43.2274 62.3(12) 63.8094 62.1802
10757 43.2310 64.2(12) 63.8688 62.1773
10758 43.2346 65.2(12) 63.9270 62.1744
10759 43.2382 64.3(12) 63.9838 62.1715
10760 43.2418 63.0(12) 64.0387 62.1686
10761 43.2454 63.4(12) 64.0912 62.1656
10762 43.2490 64.9(12) 64.1409 62.1627
10763 43.2526 64.9(12) 64.1872 62.1598
10764 43.2562 64.5(12) 64.2299 62.1569
10765 43.2598 64.1(12) 64.2682 62.1540
10766 43.2634 64.8(12) 64.3020 62.1511
10767 43.2670 64.3(12) 64.3307 62.1481
10768 43.2706 64.1(12) 64.3539 62.1452
10769 43.2742 62.8(12) 64.3714 62.1423
10770 43.2778 63.9(12) 64.3829 62.1394
10771 43.2814 64.6(12) 64.3881 62.1365
10772 43.2850 62.3(12) 64.3871 62.1335
10773 43.2886 62.2(12) 64.3792 62.1306
10774 43.2922 61.3(12) 64.3655 62.1277
10775 43.2958 61.4(12) 64.3455 62.1248
10776 43.2994 63.2(13) 64.3197 62.1219
10777 43.3030 62.5(12) 64.2882 62.1190
10778 43.3066 63.6(12) 64.2513 62.1160
10779 43.3102 62.6(12) 64.2094 62.1131
10780 43.3138 64.2(12) 64.1626 62.1102
10781 43.3174 64.6(12) 64.1122 62.1073
10782 43.3210 62.2(12) 64.0581 62.1044
10783 43.3246 61.7(12) 64.0010 62.1015
10784 43.3282 64.4(12) 63.9412 62.0985
10785 43.3318 63.1(12) 63.8792 62.0956
10786 43.3354 63.1(12) 63.8155 62.0927
10787 43.3390 64.4(12) 63.7506 62.0898
10788 43.3426 63.7(12) 63.6842 62.0869
10789 43.3462 63.2(12) 63.6178 62.0839
10790 43.3498 62.8(12) 63.5512 62.0810
10791 43.3534 61.3(12) 63.4848 62.0781
10792 43.3570 63.9(12) 63.4188 62.0752
10793 43.3606 64.5(12) 63.3535 62.0723
10794 43.3642 61.7(12) 63.2892 62.0694
10795 43.3678 60.9(12) 63.2260 62.0664
10796 43.3714 61.7(12) 63.1642 62.0635
10797 43.3750 60.6(12) 63.1039 62.0606
10798 43.3786 62.7(12) 63.0453 62.0577
10799 43.3822 63.6(12) 62.9884 62.0548
10800 43.3858 63.1(12) 62.9334 62.0518
10801 43.3894 63.0(12) 62.8804 62.0489
10802 43.3930 62.0(12) 62.8294 62.0460
10803 43.3966 64.1(12) 62.7805 62.0431
10804 43.4002 63.7(12) 62.7337 62.0402
10805 43.4038 62.3(12) 62.6889 62.0373
10806 43.4074 60.5(12) 62.6463 62.0343
10807 43.4110 60.4(12) 62.6057 62.0314
10808 43.4146 62.6(12) 62.5673 62.0285
10809 43.4182 63.0(12) 62.5308 62.0256
10810 43.4218 63.4(12) 62.4964 62.0227
10811 43.4254 64.2(12) 62.4638 62.0197
10812 43.4290 63.7(12) 62.4332 62.0168
10813 43.4326 61.6(12) 62.4043 62.0139
10814 43.4362 62.4(12) 62.3771 62.0110
10815 43.4398 62.7(12) 62.3517 62.0081
10816 43.4434 61.9(12) 62.3277 62.0052
10817 43.4470 63.6(12) 62.3053 62.0022
10818 43.4506 63.0(12) 62.2843 61.9993
10819 43.4542 62.5(12) 62.2647 61.9964
10820 43.4578 62.0(12) 62.2463 61.9935
10821 43.4614 60.8(12) 62.2290 61.9906
10822 43.4650 64.1(12) 62.2129 61.9877
10823 43.4686 62.6(12) 62.1978 61.9847
10824 43.4722 63.1(12) 62.1837 61.9818
10825 43.4758 61.0(12) 62.1704 61.9789
10826 43.4794 62.5(12) 62.1580 61.9760
10827 43.4830 62.7(12) 62.1463 61.9731
10828 43.4866 60.8(12) 62.1353 61.9701
10829 43.4902 61.9(12) 62.1249 61.9672
10830 43.4938 64.6(12) 62.1151 61.9643
10831 43.4974 61.9(12) 62.1059 61.9614
10832 43.5010 61.1(12) 62.0971 61.9585
10833 43.5046 61.8(12) 62.0888 61.9556
10834 43.5082 61.8(12) 62.0809 61.9526
10835 43.5118 61.7(12) 62.0733 61.9497
10836 43.5154 61.0(12) 62.0661 61.9468
10837 43.5190 63.0(12) 62.0592 61.9439
10838 43.5226 63.7(12) 62.0525 61.9410
10839 43.5262 63.5(12) 62.0462 61.9380
10840 43.5298 63.4(12) 62.0400 61.9351
10841 43.5334 61.6(12) 62.0342 61.9322
10842 43.5370 61.8(12) 62.0284 61.9293
10843 43.5406 61.9(12) 62.0228 61.9264
10844 43.5442 61.5(12) 62.0173 61.9235
10845 43.5478 63.6(12) 62.0120 61.9205
10846 43.5514 63.3(12) 62.0068 61.9176
10847 43.5550 63.0(12) 62.0018 61.9147
10848 43.5586 63.0(12) 61.9968 61.9118
10849 43.5622 62.1(12) 61.9924 61.9089
10850 43.5658 62.1(12) 61.9876 61.9059
10851 43.5694 61.6(12) 61.9829 61.9030
10852 43.5730 62.6(12) 61.9783 61.9001
10853 43.5766 63.4(12) 61.9737 61.8972
10854 43.5802 63.0(12) 61.9692 61.8943
10855 43.5838 62.0(12) 61.9648 61.8914
10856 43.5874 63.5(12) 61.9605 61.8884
10857 43.5910 62.9(12) 61.9562 61.8855
10858 43.5946 61.2(12) 61.9519 61.8826
10859 43.5982 62.5(12) 61.9477 61.8797
10860 43.6018 62.9(12) 61.9436 61.8768
10861 43.6054 62.6(12) 61.9394 61.8739
10862 43.6090 62.3(12) 61.9353 61.8709
10863 43.6126 62.6(12) 61.9313 61.8680
10864 43.6162 61.8(12) 61.9273 61.8651
10865 43.6198 62.9(12) 61.9233 61.8622
10866 43.6234 63.3(12) 61.9194 61.8593
10867 43.6270 62.8(12) 61.9155 61.8563
10868 43.6306 63.4(12) 61.9116 61.8534
10869 43.6342 62.0(15) 61.9077 61.8505
10870 43.6378 63.4(13) 61.9039 61.8476
10871 43.6414 61.6(12) 61.9001 61.8447
10872 43.6450 63.8(12) 61.8964 61.8418
10873 43.6486 63.4(12) 61.8926 61.8388
10874 43.6522 61.4(12) 61.8889 61.8359
10875 43.6558 61.1(12) 61.8852 61.8330
10876 43.6594 62.0(12) 61.8815 61.8301
10877 43.6630 61.1(12) 61.8779 61.8272
10878 43.6666 62.0(12) 61.8742 61.8242
10879 43.6702 63.0(12) 61.8706 61.8213
10880 43.6738 63.0(12) 61.8670 61.8184
10881 43.6774 62.3(12) 61.8635 61.8155
10882 43.6810 61.7(12) 61.8599 61.8126
10883 43.6846 61.3(12) 61.8574 61.8097
10884 43.6882 62.2(12) 61.8539 61.8067
10885 43.6918 63.2(12) 61.8504 61.8038
10886 43.6954 63.2(12) 61.8469 61.8009
10887 43.6990 62.9(12) 61.8437 61.7980
10888 43.7026 60.9(12) 61.8402 61.7951
10889 43.7062 61.7(12) 61.8368 61.7921
10890 43.7098 62.3(12) 61.8333 61.7892
10891 43.7134 62.8(12) 61.8299 61.7863
10892 43.7170 62.6(12) 61.8265 61.7834
10893 43.7206 62.5(12) 61.8234 61.7805
10894 43.7242 60.7(12) 61.8200 61.7776
10895 43.7278 63.1(12) 61.8167 61.7746
10896 43.7314 64.7(12) 61.8133 61.7717
10897 43.7350 63.0(12) 61.8100 61.7688
10898 43.7386 60.8(12) 61.8066 61.7659
10899 43.7422 62.3(12) 61.8033 61.7630
10900 43.7458 62.2(12) 61.8000 61.7601
10901 43.7494 62.9(12) 61.7967 61.7571
10902 43.7530 63.6(12) 61.7934 61.7542
10903 43.7566 64.0(12) 61.7902 61.7513
10904 43.7602 62.2(12) 61.7869 61.7484
10905 43.7638 60.9(12) 61.7836 61.7455
10906 43.7674 61.9(12) 61.7804 61.7425
10907 43.7710 61.9(12) 61.7772 61.7396
10908 43.7746 61.3(12) 61.7739 61.7367
10909 43.7782 62.1(12) 61.7707 61.7338
10910 43.7818 61.9(12) 61.7675 61.7309
10911 43.7854 60.5(12) 61.7643 61.7280
10912 43.7890 61.3(14) 61.7611 61.7250
10913 43.7926 62.7(13) 61.7579 61.7221
10914 43.7962 62.3(12) 61.7547 61.7192
10915 43.7998 61.8(12) 61.7516 61.7163
10916 43.8034 63.0(12) 61.7484 61.7134
10917 43.8070 61.5(12) 61.7452 61.7104
10918 43.8106 63.0(12) 61.7421 61.7075
10919 43.8142 62.7(12) 61.7389 61.7046
10920 43.8178 60.8(12) 61.7358 61.7017
10921 43.8214 59.7(12) 61.7327 61.6988
10922 43.8250 62.0(12) 61.7296 61.6959
10923 43.8286 61.2(12) 61.7264 61.6929
10924 43.8322 63.5(12) 61.7233 61.6900
10925 43.8358 62.7(12) 61.7196 61.6871
10926 43.8394 63.2(12) 61.7165 61.6842
10927 43.8430 60.7(12) 61.7134 61.6813
10928 43.8466 61.6(12) 61.7103 61.6783
10929 43.8502 62.1(12) 61.7072 61.6754
10930 43.8538 61.6(12) 61.7041 61.6725
10931 43.8574 62.3(12) 61.7011 61.6696
10932 43.8610 61.5(12) 61.6980 61.6667
10933 43.8646 61.2(12) 61.6950 61.6638
10934 43.8682 62.0(12) 61.6919 61.6608
10935 43.8718 62.8(12) 61.6885 61.6579
10936 43.8754 62.3(12) 61.6855 61.6550
10937 43.8790 63.4(12) 61.6825 61.6521
10938 43.8826 62.1(12) 61.6795 61.6492
10939 43.8862 62.1(12) 61.6765 61.6463
10940 43.8898 62.2(12) 61.6735 61.6433
10941 43.8934 60.3(12) 61.6705 61.6404
10942 43.8970 62.3(12) 61.6676 61.6375
10943 43.9006 62.1(12) 61.6646 61.6346
10944 43.9042 60.4(12) 61.6616 61.6317
10945 43.9078 60.1(12) 61.6587 61.6287
10946 43.9114 62.2(12) 61.6558 61.6258
10947 43.9150 63.0(12) 61.6529 61.6229
10948 43.9186 62.5(12) 61.6500 61.6200
10949 43.9222 64.0(12) 61.6471 61.6171
10950 43.9258 64.1(12) 61.6442 61.6142
10951 43.9294 62.0(12) 61.6414 61.6112
10952 43.9330 61.9(12) 61.6385 61.6083
10953 43.9366 63.2(12) 61.6357 61.6054
10954 43.9402 63.4(12) 61.6329 61.6025
10955 43.9438 61.2(12) 61.6301 61.5996
10956 43.9474 61.9(12) 61.6273 61.5966
10957 43.9510 61.7(12) 61.6246 61.5937
10958 43.9546 62.0(12) 61.6218 61.5908
10959 43.9582 63.2(12) 61.6191 61.5879
10960 43.9618 61.8(12) 61.6164 61.5850
10961 43.9654 62.0(12) 61.6138 61.5821
10962 43.9690 62.1(12) 61.6111 61.5791
10963 43.9726 60.0(12) 61.6085 61.5762
10964 43.9762 60.8(12) 61.6060 61.5733
10965 43.9798 62.3(13) 61.6034 61.5704
10966 43.9834 61.6(12) 61.6009 61.5675
10967 43.9870 62.1(12) 61.5984 61.5646
10968 43.9906 63.5(12) 61.5959 61.5616
10969 43.9942 63.1(12) 61.5935 61.5587
10970 43.9978 61.3(12) 61.5910 61.5558
10971 44.0014 62.2(12) 61.5887 61.5529
10972 44.0050 64.9(13) 61.5863 61.5500
10973 44.0086 60.4(13) 61.5840 61.5470
10974 44.0122 62.5(13) 61.5817 61.5441
10975 44.0158 62.7(12) 61.5794 61.5412
10976 44.0194 63.2(12) 61.5771 61.5383
10977 44.0230 63.9(12) 61.5749 61.5354
10978 44.0266 62.3(12) 61.5727 61.5325
10979 44.0302 61.5(12) 61.5705 61.5295
10980 44.0338 61.7(12) 61.5684 61.5266
10981 44.0374 62.2(12) 61.5662 61.5237
10982 44.0410 63.9(12) 61.5641 61.5208
10983 44.0446 63.3(12) 61.5620 61.5179
10984 44.0482 63.6(12) 61.5599 61.5149
10985 44.0518 63.5(12) 61.5578 61.5120
10986 44.0554 62.4(12) 61.5557 61.5091
10987 44.0590 61.7(13) 61.5536 61.5062
10988 44.0626 61.2(12) 61.5515 61.5033
10989 44.0662 62.9(12) 61.5493 61.5004
10990 44.0698 62.6(12) 61.5472 61.4974
10991 44.0734 62.8(12) 61.5450 61.4945
10992 44.0770 63.9(12) 61.5429 61.4916
10993 44.0806 63.5(12) 61.5406 61.4887
10994 44.0842 63.0(12) 61.5384 61.4858
10995 44.0878 59.8(12) 61.5361 61.4828
10996 44.0914 61.0(12) 61.5337 61.4799
10997 44.0950 61.6(12) 61.5313 61.4770
10998 44.0986 59.3(13) 61.5289 61.4741
10999 44.1022 62.5(12) 61.5263 61.4712
11000 44.1058 62.9(12) 61.5237 61.4683
11001 44.1094 63.1(12) 61.5211 61.4653
11002 44.1130 62.7(12) 61.5183 61.4624
11003 44.1166 62.0(12) 61.5155 61.4595
11004 44.1202 62.8(12) 61.5126 61.4566
11005 44.1238 63.0(12) 61.5096 61.4537
11006 44.1274 62.3(12) 61.5066 61.4508
11007 44.1310 61.4(12) 61.5035 61.4478
11008 44.1346 62.8(12) 61.5003 61.4449
11009 44.1382 62.0(12) 61.4971 61.4420
11010 44.1418 62.3(12) 61.4938 61.4391
11011 44.1454 61.1(12) 61.4905 61.4362
11012 44.1490 61.5(12) 61.4871 61.4332
11013 44.1526 63.6(12) 61.4837 61.4303
11014 44.1562 63.3(12) 61.4803 61.4274
11015 44.1598 61.6(12) 61.4768 61.4245
11016 44.1634 61.8(12) 61.4733 61.4216
11017 44.1670 61.6(12) 61.4700 61.4187
11018 44.1706 61.4(12) 61.4665 61.4157
11019 44.1742 63.5(12) 61.4630 61.4128
11020 44.1778 62.7(12) 61.4595 61.4099
11021 44.1814 61.8(12) 61.4560 61.4070
11022 44.1850 61.7(12) 61.4525 61.4041
11023 44.1886 60.8(12) 61.4490 61.4011
11024 44.1922 62.7(12) 61.4455 61.3982
11025 44.1958 62.0(12) 61.4421 61.3953
11026 44.1994 60.8(12) 61.4386 61.3924
11027 44.2030 60.4(12) 61.4352 61.3895
11028 44.2066 61.3(12) 61.4319 61.3866
11029 44.2102 62.2(12) 61.4285 61.3836
11030 44.2138 62.9(12) 61.4252 61.3807
11031 44.2174 62.7(13) 61.4219 61.3778
11032 44.2210 60.4(12) 61.4186 61.3749
11033 44.2246 61.0(12) 61.4154 61.3720
11034 44.2282 60.6(12) 61.4122 61.3690
11035 44.2318 60.8(12) 61.4091 61.3661
11036 44.2354 62.6(12) 61.4059 61.3632
11037 44.2390 64.2(12) 61.4028 61.3603
11038 44.2426 63.1(12) 61.3998 61.3574
11039 44.2462 60.9(12) 61.3968 61.3545
11040 44.2498 62.8(12) 61.3938 61.3515
11041 44.2534 63.6(12) 61.3908 61.3486
11042 44.2570 62.8(12) 61.3879 61.3457
11043 44.2606 62.6(12) 61.3850 61.3428
11044 44.2642 64.3(12) 61.3822 61.3399
11045 44.2678 63.5(12) 61.3794 61.3370
11046 44.2714 63.7(12) 61.3766 61.3340
11047 44.2750 62.8(12) 61.3739 61.3311
11048 44.2786 61.5(12) 61.3712 61.3282
11049 44.2822 61.7(12) 61.3685 61.3253
11050 44.2858 61.2(12) 61.3658 61.3224
11051 44.2894 61.2(12) 61.3632 61.3194
11052 44.2930 59.7(12) 61.3606 61.3165
11053 44.2966 59.7(12) 61.3581 61.3136
11054 44.3002 60.7(12) 61.3556 61.3107
11055 44.3038 60.7(12) 61.3531 61.3078
11056 44.3074 61.3(12) 61.3506 61.3049
11057 44.3110 63.8(12) 61.3482 61.3019
11058 44.3146 62.3(12) 61.3458 61.2990
11059 44.3182 62.8(12) 61.3434 61.2961
11060 44.3218 62.4(12) 61.3411 61.2932
11061 44.3254 61.6(12) 61.3388 61.2903
11062 44.3290 61.3(12) 61.3366 61.2873
11063 44.3326 61.8(12) 61.3344 61.2844
11064 44.3362 62.0(12) 61.3322 61.2815
11065 44.3398 63.5(12) 61.3301 61.2786
11066 44.3434 62.1(12) 61.3281 61.2757
11067 44.3470 63.3(12) 61.3260 61.2728
11068 44.3506 61.9(13) 61.3241 61.2698
11069 44.3542 62.2(13) 61.3222 61.2669
11070 44.3578 61.7(14) 61.3203 61.2640
11071 44.3614 64.4(13) 61.3186 61.2611
11072 44.3650 62.2(13) 61.3169 61.2582
11073 44.3686 61.4(13) 61.3152 61.2552
11074 44.3722 59.9(13) 61.3137 61.2523
11075 44.3758 60.7(13) 61.3123 61.2494
11076 44.3794 63.6(13) 61.3110 61.2465
11077 44.3830 62.8(13) 61.3097 61.2436
11078 44.3866 62.5(13) 61.3087 61.2407
11079 44.3902 61.9(13) 61.3077 61.2377
11080 44.3938 62.2(13) 61.3069 61.2348
11081 44.3974 63.0(14) 61.3063 61.2319
11082 44.4010 62.7(15) 61.3058 61.2290
11083 44.4046 62.8(14) 61.3055 61.2261
11084 44.4082 61.5(15) 61.3054 61.2232
11085 44.4118 64.8(13) 61.3056 61.2202
11086 44.4154 63.1(13) 61.3060 61.2173
11087 44.4190 62.9(17) 61.3066 61.2144
11088 44.4226 64.7(17) 61.3075 61.2115
11089 44.4262 64.0(17) 61.3087 61.2086
11090 44.4298 62.4(17) 61.3103 61.2056
11091 44.4334 64.8(17) 61.3122 61.2027
11092 44.4370 62.6(17) 61.3144 61.1998
11093 44.4406 60.7(16) 61.3171 61.1969
11094 44.4442 62(2) 61.3202 61.1940
11095 44.4478 61.1(18) 61.3237 61.1911
11096 44.4514 61.2(17) 61.3276 61.1881
11097 44.4550 62.7(17) 61.3321 61.1852
11098 44.4586 62.8(17) 61.3371 61.1823
11099 44.4622 62.5(17) 61.3426 61.1794
11100 44.4658 61.4(17) 61.3487 61.1765
11101 44.4694 60.6(16) 61.3553 61.1735
11102 44.4730 61.9(17) 61.3626 61.1706
11103 44.4766 61.6(17) 61.3705 61.1677
11104 44.4802 61.3(17) 61.3790 61.1648
11105 44.4838 59.8(16) 61.3882 61.1619
11106 44.4874 59.9(16) 61.3981 61.1590
11107 44.4910 62.0(17) 61.4087 61.1560
11108 44.4946 61.2(17) 61.4199 61.1531
11109 44.4982 61.0(17) 61.4319 61.1502
11110 44.5018 61.3(17) 61.4445 61.1473
11111 44.5054 62.8(17) 61.4579 61.1444
11112 44.5090 61.1(17) 61.4719 61.1415
11113 44.5126 62.0(17) 61.4866 61.1385
11114 44.5162 63.4(17) 61.5020 61.1356
11115 44.5198 64.9(17) 61.5180 61.1327
11116 44.5234 61.5(17) 61.5346 61.1298
11117 44.5270 61.8(17) 61.5518 61.1269
11118 44.5306 63.0(17) 61.5696 61.1239
11119 44.5342 62.9(17) 61.5878 61.1210
11120 44.5378 61.7(17) 61.6065 61.1181
11121 44.5414 61.9(17) 61.6257 61.1152
11122 44.5450 62.2(17) 61.6451 61.1123
11123 44.5486 61.5(17) 61.6648 61.1094
11124 44.5522 61.6(17) 61.6847 61.1064
11125 44.5558 61.6(17) 61.7048 61.1035
11126 44.5594 61.0(17) 61.7248 61.1006
11127 44.5630 60.7(17) 61.7448 61.0977
11128 44.5666 64.0(17) 61.7646 61.0948
11129 44.5702 64.7(17) 61.7841 61.0918
11130 44.5738 62.2(17) 61.8032 61.0889
11131 44.5774 60.0(16) 61.8218 61.0860
11132 44.5810 60.0(16) 61.8397 61.0831
11133 44.5846 60.1(16) 61.8568 61.0802
11134 44.5882 62.7(17) 61.8730 61.0773
11135 44.5918 60.4(16) 61.8881 61.0743
11136 44.5954 58.7(16) 61.9021 61.0714
11137 44.5990 61.4(17) 61.9148 61.0685
11138 44.6026 62.3(13) 61.9262 61.0656
11139 44.6062 62.7(13) 61.9361 61.0627
11140 44.6098 60.1(12) 61.9445 61.0597
11141 44.6134 63.0(13) 61.9513 61.0568
11142 44.6170 63.6(13) 61.9566 61.0539
11143 44.6206 62.8(15) 61.9604 61.0510
11144 44.6242 62.3(15) 61.9626 61.0481
11145 44.6278 63.0(15) 61.9634 61.0452
11146 44.6314 62.8(15) 61.9627 61.0422
11147 44.6350 62.4(15) 61.9607 61.0393
11148 44.6386 63.5(15) 61.9575 61.0364
11149 44.6422 63.4(15) 61.9532 61.0335
11150 44.6458 63.0(15) 61.9478 61.0306
11151 44.6494 62.8(15) 61.9415 61.0277
11152 44.6530 62.4(15) 61.9344 61.0247
11153 44.6566 63.8(15) 61.9266 61.0218
11154 44.6602 63.2(15) 61.9181 61.0189
11155 44.6638 61.9(15) 61.9090 61.0160
11156 44.6674 63.5(17) 61.8994 61.0131
11157 44.6710 63.7(18) 61.8893 61.0101
11158 44.6746 62.2(13) 61.8788 61.0072
11159 44.6782 61.7(16) 61.8679 61.0043
11160 44.6818 60.7(14) 61.8566 61.0014
11161 44.6854 61.2(12) 61.8450 60.9985
11162 44.6890 64.3(17) 61.8329 60.9956
11163 44.6926 64.1(17) 61.8204 60.9926
11164 44.6962 61.4(17) 61.8075 60.9897
11165 44.6998 63.0(17) 61.7942 60.9868
11166 44.7034 61.1(17) 61.7803 60.9839
11167 44.7070 62.9(17) 61.7660 60.9810
11168 44.7106 64.6(17) 61.7511 60.9781
11169 44.7142 63.4(17) 61.7357 60.9751
11170 44.7178 63.4(17) 61.7197 60.9722
11171 44.7214 62.7(17) 61.7030 60.9693
11172 44.7250 62.2(17) 61.6858 60.9664
11173 44.7286 61.5(16) 61.6680 60.9635
11174 44.7322 61.4(16) 61.6497 60.9605
11175 44.7358 62.4(17) 61.6308 60.9576
11176 44.7394 61.9(17) 61.6114 60.9547
11177 44.7430 62.4(17) 61.5915 60.9518
11178 44.7466 61.0(16) 61.5713 60.9489
11179 44.7502 60.7(16) 61.5506 60.9459
11180 44.7538 60.5(16) 61.5297 60.9430
11181 44.7574 63.8(17) 61.5087 60.9401
11182 44.7610 61.9(17) 61.4875 60.9372
11183 44.7646 60.8(16) 61.4663 60.9343
11184 44.7682 59.4(16) 61.4451 60.9314
11185 44.7718 60.8(16) 61.4239 60.9284
11186 44.7754 59.9(16) 61.4029 60.9255
11187 44.7790 62.1(17) 61.3821 60.9226
11188 44.7826 63.5(17) 61.3615 60.9197
11189 44.7862 62.3(17) 61.3412 60.9168
11190 44.7898 60.8(16) 61.3212 60.9139
11191 44.7934 61.0(16) 61.3017 60.9109
11192 44.7970 63.5(17) 61.2825 60.9080
11193 44.8006 63.5(17) 61.2637 60.9051
11194 44.8042 61.1(16) 61.2454 60.9022
11195 44.8078 63.4(17) 61.2276 60.8993
11196 44.8114 63.6(17) 61.2103 60.8963
11197 44.8150 64.0(17) 61.1935 60.8934
11198 44.8186 62.8(17) 61.1772 60.8905
11199 44.8222 61.4(17) 61.1614 60.8876
11200 44.8258 62.7(17) 61.1469 60.8847
11201 44.8294 61.3(16) 61.1322 60.8818
11202 44.8330 61.7(17) 61.1181 60.8788
11203 44.8366 63.8(17) 61.1051 60.8766
11204 44.8402 63.2(17) 61.0934 60.8751
11205 44.8438 61.1(16) 61.0823 60.8736
11206 44.8474 61.1(16) 61.0716 60.8720
11207 44.8510 59.8(16) 61.0615 60.8705
11208 44.8546 62.4(17) 61.0519 60.8690
11209 44.8582 62.4(17) 61.0427 60.8675
11210 44.8618 65(2) 61.0340 60.8660
11211 44.8654 61.4(17) 61.0258 60.8644
11212 44.8690 61.4(17) 61.0180 60.8629
11213 44.8726 60.6(13) 61.0107 60.8614
11214 44.8762 60.1(12) 61.0037 60.8599
11215 44.8798 62.9(13) 60.9971 60.8584
11216 44.8834 62.1(13) 60.9910 60.8569
11217 44.8870 61.3(13) 60.9851 60.8553
11218 44.8906 61.2(13) 60.9796 60.8538
11219 44.8942 61.8(13) 60.9745 60.8523
11220 44.8978 61.7(13) 60.9696 60.8508
11221 44.9014 61.0(14) 60.9650 60.8493
11222 44.9050 63.2(13) 60.9607 60.8478
11223 44.9086 64.1(13) 60.9567 60.8462
11224 44.9122 63.2(14) 60.9529 60.8447
11225 44.9158 61.5(13) 60.9494 60.8432
11226 44.9194 62.9(13) 60.9460 60.8417
11227 44.9230 63.3(13) 60.9429 60.8402
11228 44.9266 61.6(13) 60.9400 60.8387
11229 44.9302 61.7(13) 60.9373 60.8371
11230 44.9338 61.9(12) 60.9347 60.8356
11231 44.9374 62.6(12) 60.9323 60.8341
11232 44.9410 63.9(12) 60.9301 60.8326
11233 44.9446 64.1(12) 60.9280 60.8311
11234 44.9482 61.7(12) 60.9261 60.8296
11235 44.9518 62.5(12) 60.9243 60.8280
11236 44.9554 63.7(12) 60.9227 60.8265
11237 44.9590 63.2(12) 60.9212 60.8250
11238 44.9626 62.1(12) 60.9198 60.8235
11239 44.9662 62.8(12) 60.9186 60.8220
11240 44.9698 62.1(12) 60.9176 60.8205
11241 44.9734 62.5(12) 60.9166 60.8189
11242 44.9770 63.2(12) 60.9159 60.8174
11243 44.9806 62.9(12) 60.9153 60.8159
11244 44.9842 61.7(12) 60.9148 60.8144
11245 44.9878 61.8(12) 60.9145 60.8129
11246 44.9914 61.7(12) 60.9144 60.8114
11247 44.9950 62.0(12) 60.9144 60.8098
11248 44.9986 62.9(12) 60.9147 60.8083
11249 45.0022 62.8(12) 60.9167 60.8083
