#------------------------------------------------------------------------------
#$Date: 2017-07-27 05:26:58 +0300 (Thu, 27 Jul 2017) $
#$Revision: 199360 $
#$URL: file:///home/coder/svn-repositories/cod/cif/7/04/38/7043829.cif $
#------------------------------------------------------------------------------
#
# This file is available in the Crystallography Open Database (COD),
# http://www.crystallography.net/
#
# All data on this site have been placed in the public domain by the
# contributors.
#
data_7043829
loop_
_publ_author_name
'JIN, GENG BANG'
'Malliakas, Christos D.'
'Lin, Jian'
_publ_section_title
;
 Thorium Copper Phosphides: More Diverse Metal--Phosphorus and
 Phosphorus--Phosphorus Interactions than U analogues
;
_journal_name_full               'Dalton Trans.'
_journal_paper_doi               10.1039/C7DT02145C
_journal_year                    2017
_chemical_formula_moiety         'Th Cu P2'
_chemical_formula_sum            'Cu P2 Th'
_chemical_formula_weight         357.52
_chemical_name_common            'thorium copper(I) diphosphide'
_space_group_crystal_system      orthorhombic
_space_group_IT_number           71
_space_group_name_Hall           '-I 2 2'
_space_group_name_H-M_alt        'I m m m'
_symmetry_space_group_name_Hall  '-I 2 2'
_symmetry_space_group_name_H-M   'I m m m'
_audit_creation_method           SHELXL-2014/7
_cell_angle_alpha                90
_cell_angle_beta                 90
_cell_angle_gamma                90
_cell_formula_units_Z            4
_cell_length_a                   4.0259(10)
_cell_length_b                   5.5982(13)
_cell_length_c                   13.863(3)
_cell_measurement_reflns_used    2545
_cell_measurement_temperature    100(2)
_cell_measurement_theta_max      32.80
_cell_measurement_theta_min      2.94
_cell_volume                     312.44(13)
_computing_cell_refinement       'Bruker SAINT'
_computing_data_collection       'Bruker APEX2'
_computing_data_reduction        'Bruker SAINT'
_computing_molecular_graphics    'CrystalMaker for Windows ver. 2.5.2 (2011)'
_computing_publication_material  'Bruker SHELXTL'
_computing_structure_refinement  'SHELXL-2014/7 (Sheldrick, 2014)'
_computing_structure_solution    'SHELXS-97 (Sheldrick 2008)'
_diffrn_ambient_temperature      100(2)
_diffrn_measured_fraction_theta_full 1.000
_diffrn_measured_fraction_theta_max 0.989
_diffrn_measurement_device_type  'Bruker APEX-II CCD'
_diffrn_measurement_method       '\f and \w scans'
_diffrn_radiation_type           MoK\a
_diffrn_radiation_wavelength     0.71073
_diffrn_reflns_av_R_equivalents  0.0271
_diffrn_reflns_av_unetI/netI     0.0165
_diffrn_reflns_Laue_measured_fraction_full 1.000
_diffrn_reflns_Laue_measured_fraction_max 0.989
_diffrn_reflns_limit_h_max       5
_diffrn_reflns_limit_h_min       -6
_diffrn_reflns_limit_k_max       8
_diffrn_reflns_limit_k_min       -8
_diffrn_reflns_limit_l_max       20
_diffrn_reflns_limit_l_min       -20
_diffrn_reflns_number            2675
_diffrn_reflns_point_group_measured_fraction_full 1.000
_diffrn_reflns_point_group_measured_fraction_max 0.989
_diffrn_reflns_theta_full        25.242
_diffrn_reflns_theta_max         32.796
_diffrn_reflns_theta_min         2.939
_diffrn_source                   'fine-focus sealed tube'
_exptl_absorpt_coefficient_mu    55.052
_exptl_absorpt_correction_T_max  0.041
_exptl_absorpt_correction_T_min  0.006
_exptl_absorpt_correction_type   multi-scan
_exptl_absorpt_process_details   SADABS
_exptl_crystal_colour            black
_exptl_crystal_density_diffrn    7.601
_exptl_crystal_density_meas      ?
_exptl_crystal_density_method    'not measured'
_exptl_crystal_description       prism
_exptl_crystal_F_000             596
_exptl_crystal_size_max          0.130
_exptl_crystal_size_mid          0.082
_exptl_crystal_size_min          0.058
_refine_diff_density_max         1.516
_refine_diff_density_min         -3.549
_refine_diff_density_rms         0.362
_refine_ls_extinction_coef       0.0013(2)
_refine_ls_extinction_expression Fc^*^=kFc[1+0.001xFc^2^\l^3^/sin(2\q)]^-1/4^
_refine_ls_extinction_method     'SHELXL-2014/7 (Sheldrick 2014'
_refine_ls_goodness_of_fit_ref   1.368
_refine_ls_hydrogen_treatment    undef
_refine_ls_matrix_type           full
_refine_ls_number_parameters     20
_refine_ls_number_reflns         360
_refine_ls_number_restraints     0
_refine_ls_restrained_S_all      1.368
_refine_ls_R_factor_all          0.0164
_refine_ls_R_factor_gt           0.0164
_refine_ls_shift/su_max          0.000
_refine_ls_shift/su_mean         0.000
_refine_ls_structure_factor_coef Fsqd
_refine_ls_weighting_details
'w=1/[\s^2^(Fo^2^)+11.7273P] where P=(Fo^2^+2Fc^2^)/3'
_refine_ls_weighting_scheme      calc
_refine_ls_wR_factor_gt          0.0458
_refine_ls_wR_factor_ref         0.0458
_reflns_Friedel_coverage         0.000
_reflns_number_gt                360
_reflns_number_total             360
_reflns_threshold_expression     'I > 2\s(I)'
_cod_data_source_file            c7dt02145c2.cif
_cod_data_source_block           compound1
_cod_depositor_comments
;
The following automatic conversions were performed:

'_exptl_crystal_density_meas' value 'not measured' was changed to '?'
- the value is perceived as not measured.

Automatic conversion script
Id: cif_fix_values 4973 2017-02-22 13:04:09Z antanas 
;
_cod_original_cell_volume        312.43(13)
_cod_database_code               7043829
_shelx_shelxl_version_number     2014/7
_shelx_space_group_comment
;
The symmetry employed for this shelxl refinement is uniquely defined
by the following loop, which should always be used as a source of
symmetry information in preference to the above space-group names.
They are only intended as comments.
;
_shelx_estimated_absorpt_t_min   0.4725
_shelx_estimated_absorpt_t_max   0.7465
_shelx_res_file
;

    largemu.res created by SHELXL-2014/7


TITL largeMu in Immm
CELL 0.71073   4.02590   5.59820  13.86260  90.0000  90.0000  90.0000
ZERR    4.00   0.00100   0.00130   0.00330   0.0000   0.0000   0.0000
LATT  2
SYMM -X, -Y, Z
SYMM -X, Y, -Z
SYMM X, -Y, -Z
SFAC P CU TH
UNIT 8 4 4
TEMP -173.000

L.S. 10
BOND
ACTA
CONN $TH 40 4.5
CONN $CU 40 4.5
CONN $P  40 3.5
FMAP 2
PLAN 20

WGHT    0.000000   11.727301
EXTI    0.001304
FVAR       0.08339
TH1   3    0.000000    0.000000    0.352598    10.25000    0.00888    0.00512 =
         0.00556    0.00000    0.00000    0.00000
CU1   2    0.000000    0.000000    0.118025    10.25000    0.01040    0.00896 =
         0.00732    0.00000    0.00000    0.00000
P1    1    0.065466    0.304447    0.000000    10.25000    0.01076    0.00570 =
         0.00708    0.00000    0.00000   -0.00203
P2    1    0.500000    0.000000    0.203392    10.25000    0.01038    0.00527 =
         0.00735    0.00000    0.00000    0.00000
HKLF 4

REM  largeMu in Immm
REM R1 =  0.0164 for     360 Fo > 4sig(Fo)  and  0.0164 for all     360 data
REM     20 parameters refined using      0 restraints

END

WGHT      0.0000     11.7277

REM Highest difference peak  1.516,  deepest hole -3.549,  1-sigma level  0.362
Q1    1   0.0814  0.0748  0.3910  11.00000  0.05    1.52
Q2    1   0.0782  0.0782  0.3177  11.00000  0.05    1.40
Q3    1   0.0000  0.0000  0.2949  10.25000  0.05    1.22
Q4    1   0.0000  0.4208  0.0000  10.25000  0.05    1.21
Q5    1   0.1297  0.0000  0.3971  10.50000  0.05    1.14
Q6    1   0.0660  0.1866  0.2930  11.00000  0.05    1.10
Q7    1   0.5000  0.1036  0.0944  10.50000  0.05    1.06
Q8    1   0.0000  0.5000  0.0516  10.25000  0.05    0.97
Q9    1   0.1453  0.0000  0.0639  10.50000  0.05    0.92
Q10   1   0.4091  0.0768  0.2589  11.00000  0.05    0.91
Q11   1   0.0000  0.2028  0.1140  10.50000  0.05    0.82
Q12   1   0.2458  0.0000  0.0000  10.25000  0.05    0.81
Q13   1   0.2500  0.2500  0.2500  10.50000  0.05    0.78
Q14   1   0.0758  0.1980  0.0500  11.00000  0.05    0.73
Q15   1   0.0000  0.0821  0.0900  10.50000  0.05    0.69
Q16   1   0.4294  0.2091  0.2608  11.00000  0.05    0.68
Q17   1   0.0000  0.3688  0.0673  10.50000  0.05    0.67
Q18   1   0.4169  0.0715  0.3227  11.00000  0.05    0.65
Q19   1   0.2426  0.1492  0.0000  10.50000  0.05    0.62
Q20   1   0.0812  0.0601  0.0331  11.00000  0.05    0.60
;
_shelx_res_checksum              94135
_shelx_hkl_file
;
  -2   0   0 1000.00   35.14
  -2   0   0  982.58   35.06
   2   0   0  931.53   35.23
  -4   0   0  343.49   12.62
  -4   0   0  348.49   12.78
  -6   0   0   89.05    3.80
   1  -1   0  681.65   24.25
  -1   1   0  680.98   24.47
   1   1   0  654.68   24.66
   1  -1   0  664.48   24.24
  -1  -1   0  700.29   24.29
  -1  -1   0  664.46   24.38
   1   1   0  701.46   24.12
  -1   1   0  632.14   24.30
   3   1   0  363.74   13.11
  -3  -1   0  352.74   12.97
  -3   1   0  342.88   13.06
  -3  -1   0  368.18   13.06
  -5  -1   0  138.83    5.42
   5  -1   0  149.13    5.51
  -5   1   0  140.38    5.62
   5   1   0  154.53    5.63
  -5  -1   0  131.47    5.55
   0  -2   0  877.30   31.08
   0  -2   0  848.68   31.16
   0   2   0  854.72   30.98
   0   2   0  810.73   30.85
   2   2   0  664.81   23.77
  -2   2   0  622.84   23.98
   2   2   0  659.16   24.01
  -2  -2   0  656.33   23.87
  -2   2   0  690.22   23.84
  -2  -2   0  673.30   23.88
   2  -2   0  671.78   23.91
  -4  -2   0  310.23   11.92
   4  -2   0  333.75   11.90
  -4  -2   0  324.94   11.84
  -1  -3   0  646.81   22.26
   1   3   0  621.24   22.42
   1   3   0  595.28   22.22
  -1  -3   0  612.26   22.59
   1  -3   0  612.06   22.29
  -1   3   0  609.74   22.39
  -1   3   0  618.14   22.39
   3   3   0  269.05   10.82
  -3  -3   0  292.29   10.65
  -3  -3   0  289.30   10.65
  -3   3   0  287.06   10.57
  -3   3   0  305.06   10.81
   3  -3   0  295.66   10.68
   5  -3   0  116.79    4.42
  -5  -3   0  106.81    4.32
   5   3   0  108.50    4.55
  -5   3   0  111.14    4.54
   0   4   0  611.74   23.13
   0  -4   0  648.41   23.51
   0  -4   0  671.46   23.41
   0   4   0  622.30   23.23
  -2   4   0  457.47   17.74
  -2   4   0  507.73   17.92
  -2  -4   0  492.68   17.76
   2   4   0  479.05   17.65
  -2  -4   0  509.99   17.81
   2  -4   0  477.85   17.82
   2   4   0  500.98   17.96
  -4   4   0  243.26    8.91
  -4  -4   0  241.49    9.01
  -4   4   0  243.21    9.16
   4   4   0  243.54    9.23
   4  -4   0  235.08    9.03
  -1   5   0  231.55    8.54
   1  -5   0  238.94    8.74
  -1  -5   0  239.18    8.65
  -1  -5   0  226.96    8.61
   1   5   0  231.11    8.49
   1   5   0  230.37    8.64
   1  -5   0  220.99    8.64
  -3   5   0  173.51    6.66
  -3  -5   0  169.12    6.54
  -3   5   0  167.32    6.46
   3   5   0  174.69    6.71
   3  -5   0  175.51    6.59
   0   6   0  367.04   13.64
   0  -6   0  380.78   13.76
  -2   6   0  303.17   11.36
  -2  -6   0  298.76   11.44
   2   6   0  313.79   11.54
   2  -6   0  315.60   11.64
   2  -6   0  310.90   11.51
  -4  -6   0  155.17    6.08
   4   6   0  148.54    6.26
  -4   6   0  160.41    5.98
   4  -6   0  163.05    6.15
  -1  -7   0  181.83    6.94
  -1   7   0  182.30    6.85
   1   7   0  184.36    6.79
   1  -7   0  181.00    6.94
  -3   7   0  116.93    4.65
   3  -7   0  119.24    4.83
   3   7   0  123.12    4.90
   3  -7   0  123.22    5.02
  -3  -7   0  117.47    4.76
   0   8   0  155.26    5.93
   0  -8   0  158.45    6.05
  -2  -8   0  125.97    5.05
  -1   0  -1   35.18    1.27
   1   0  -1   34.77    1.35
  -1   0   1   33.75    1.25
  -1   0   1   34.40    1.31
  -1   0  -1   33.84    1.30
  -1   0  -1   34.19    1.33
  -1   0  -1   36.46    1.34
  -1   0   1   33.19    1.34
  -3   0  -1   36.87    1.52
   3   0  -1   38.02    1.61
  -3   0  -1   38.95    1.41
  -3   0   1   36.43    1.53
  -3   0   1   37.96    1.63
  -3   0  -1   36.86    1.61
   3   0   1   34.98    1.60
   5   0  -1   25.46    1.37
  -5   0  -1   26.16    1.42
  -5   0   1   28.58    1.43
   0   1   1   75.45    2.88
   0  -1   1   80.49    2.88
   0   1  -1   84.08    2.86
   0   1  -1   70.21    2.88
   0  -1   1   78.54    2.92
   0  -1  -1   88.48    2.87
   0  -1  -1   71.96    2.91
   0   1   1   78.34    2.86
   2  -1   1   50.15    1.99
   2   1  -1   49.45    2.07
   2  -1   1   57.96    1.98
  -2  -1  -1   50.21    1.99
  -2   1   1   53.80    2.05
  -2  -1  -1   48.57    1.96
  -2   1   1   53.78    1.91
   2   1   1   48.95    1.87
   2  -1  -1   48.31    1.98
  -2   1  -1   48.19    1.90
   2  -1  -1   49.41    1.95
  -2  -1   1   49.65    2.01
   2   1   1   49.36    2.06
  -2  -1   1   49.96    1.96
  -2   1  -1   53.19    2.05
   4   1  -1   23.29    1.24
  -4  -1  -1   23.50    1.22
  -4  -1  -1   23.16    1.12
  -4   1   1   26.04    1.26
   4  -1   1   25.66    1.18
  -4   1  -1   25.35    1.27
  -4  -1   1   23.98    1.24
  -4  -1   1   22.77    1.12
   4   1   1   21.90    1.22
   4  -1  -1   24.58    1.17
  -6   1  -1    7.51    0.83
  -1   2   1  126.38    4.44
   1  -2   1  111.70    4.37
   1   2  -1  125.03    4.31
  -1  -2  -1  118.15    4.39
  -1  -2  -1  116.07    4.32
  -1   2   1  112.22    4.36
   1   2  -1  123.49    4.48
  -1   2  -1  112.69    4.43
   1   2   1  113.50    4.33
   1  -2  -1  110.03    4.40
  -1  -2   1  122.78    4.37
   1   2   1  118.61    4.44
  -1   2  -1  121.74    4.35
  -1  -2   1  121.22    4.40
  -3   2   1   48.39    1.96
  -3  -2  -1   51.24    2.04
   3  -2   1   47.59    2.05
   3   2  -1   51.91    2.21
  -3  -2  -1   51.45    2.08
  -3   2   1   49.53    2.14
   3   2   1   52.69    2.22
  -3   2  -1   47.83    2.18
  -3  -2   1   51.26    2.09
  -3  -2   1   53.38    2.05
   3  -2  -1   47.30    2.07
  -3   2  -1   52.97    1.97
  -5  -2  -1   18.30    1.01
   5  -2   1   17.60    1.05
   5   2  -1   20.38    1.18
  -5   2   1   17.20    1.15
  -5   2  -1   17.82    1.17
   5   2   1   18.50    1.16
   5  -2  -1   18.06    1.06
  -5  -2   1   18.66    1.02
   0  -3  -1   16.98    0.84
   0  -3  -1   17.82    0.82
   0   3  -1   15.83    0.78
   0   3  -1   15.97    0.74
   0  -3   1   17.27    0.85
   0   3   1   17.08    0.77
   0   3   1   16.94    0.76
   0  -3   1   15.82    0.79
  -2  -3  -1   20.10    0.96
  -2   3   1   19.52    1.02
   2  -3   1   18.51    0.96
   2   3  -1   21.20    1.09
   2   3  -1   20.26    0.82
  -2   3   1   19.49    0.92
  -2  -3  -1   21.24    0.92
   2   3   1   20.83    0.87
  -2  -3   1   23.30    0.99
   2   3   1   20.80    1.08
   2  -3  -1   19.50    0.99
  -2  -3   1   21.31    0.96
  -2   3  -1   20.49    1.04
  -2   3  -1   19.20    0.91
   4  -3   1   19.96    1.11
  -4   3   1   19.13    1.19
   4   3  -1   23.35    1.28
  -4  -3  -1   22.44    1.10
  -4  -3   1   22.06    1.10
  -4   3  -1   21.55    0.99
   4   3   1   21.80    1.27
   4  -3  -1   20.49    1.13
  -4   3  -1   22.32    1.23
  -1  -4  -1   44.12    1.83
  -1  -4  -1   43.13    1.88
   1  -4   1   48.20    2.00
   1   4  -1   44.12    1.75
   1   4  -1   42.36    1.90
   1  -4   1   44.57    1.89
  -1   4   1   45.73    1.82
   1   4   1   43.95    1.78
   1  -4  -1   44.34    1.92
  -1  -4   1   43.53    1.84
  -1  -4   1   44.21    1.89
   1   4   1   43.72    1.90
  -1   4  -1   45.57    1.81
   3   4  -1   33.62    1.75
  -3   4   1   36.17    1.72
  -3  -4  -1   34.45    1.62
   3  -4   1   38.32    1.67
  -3   4   1   37.88    1.58
   3  -4  -1   39.29    1.70
   3   4   1   36.33    1.79
  -3   4  -1   36.73    1.76
  -3  -4   1   34.45    1.60
  -3   4  -1   37.55    1.58
  -5  -4  -1   19.36    1.12
   5   4  -1   19.26    1.29
  -5   4   1   20.78    1.27
   5  -4   1   21.67    1.18
   5   4   1   18.83    1.27
  -5  -4   1   19.10    1.11
  -5   4  -1   18.68    1.23
   5  -4  -1   21.86    1.19
   0   5  -1   56.10    2.28
   0  -5   1   55.42    2.35
   0  -5  -1   55.63    2.38
   0  -5  -1   59.32    2.40
   0   5  -1   59.94    2.37
   0   5   1   55.92    2.29
   0  -5   1   59.35    2.44
   2  -5   1   40.14    1.91
   2   5  -1   38.27    1.82
  -2   5   1   38.34    1.66
   2  -5   1   39.57    1.76
  -2  -5  -1   38.59    1.75
  -2   5  -1   37.36    1.66
   2  -5  -1   38.77    1.78
  -2  -5   1   38.32    1.71
   2   5   1   38.63    1.82
   2   5   1   38.22    1.57
  -4   5   1   14.81    1.04
   4   5  -1   14.83    1.08
  -4  -5  -1   16.33    0.99
   4  -5   1   15.20    0.98
  -4   5   1   16.40    0.88
  -4   5  -1   15.50    1.06
   4  -5  -1   15.63    1.01
  -4  -5   1   14.86    0.95
   4   5   1   15.69    1.09
  -4   5  -1   15.69    0.88
   1  -6   1   26.39    1.30
   1   6  -1   28.11    1.36
  -1  -6  -1   26.24    1.32
   1   6  -1   26.55    1.18
  -1   6   1   25.70    1.24
   1  -6   1   27.56    1.41
  -1  -6   1   26.22    1.29
   1   6   1   27.41    1.33
   1  -6  -1   25.71    1.33
  -1   6  -1   26.30    1.24
   1  -6  -1   26.75    1.38
   1   6   1   27.85    1.21
  -3  -6  -1   24.12    1.29
   3   6  -1   24.55    1.40
   3  -6   1   24.03    1.47
   3  -6   1   22.84    1.29
  -3   6   1   24.22    1.20
   3   6   1   25.62    1.41
  -3   6  -1   23.32    1.20
  -3  -6   1   26.16    1.29
   3  -6  -1   21.91    1.30
   0   7   1   12.34    0.72
   0  -7   1   12.24    0.78
   0  -7  -1   11.89    0.79
   0   7  -1   12.11    0.71
  -2  -7  -1   12.96    0.89
   2   7  -1   13.60    0.97
   2  -7   1   14.69    1.02
   2  -7   1   13.69    0.88
  -2   7   1   13.77    0.82
  -2  -7   1   12.89    0.86
  -2   7  -1   12.86    0.80
   2   7   1   14.34    1.00
   2  -7  -1   15.16    0.94
  -1  -8  -1   32.16    1.58
  -1   8   1   32.18    1.48
   1  -8  -1   32.33    1.57
  -1   8  -1   30.66    1.47
  -1  -8   1   33.32    1.59
   1   8   1   31.74    1.43
   0   0   2   34.48    1.27
   0   0  -2   35.91    1.28
   0   0  -2   31.52    1.25
   2   0  -2   30.44    1.27
  -2   0   2   29.30    1.21
  -2   0   2   28.56    1.28
  -2   0  -2   29.68    1.20
  -2   0  -2   31.48    1.26
  -2   0  -2   29.98    1.26
  -2   0  -2   29.65    1.13
  -4   0  -2   24.86    1.14
  -4   0   2   26.38    1.28
  -4   0  -2   24.14    1.26
   4   0  -2   23.38    1.21
   4   0   2   24.61    1.24
  -6   0   2   11.53    0.93
  -1   1   2   17.58    0.68
  -1   1   2   16.67    0.71
  -1  -1  -2   15.37    0.68
  -1  -1  -2   15.49    0.72
   1  -1   2   16.50    0.67
  -1  -1  -2   15.96    0.64
   1   1  -2   15.46    0.75
  -1  -1   2   14.00    0.69
   1   1   2   15.85    0.64
  -1   1  -2   16.73    0.73
  -1   1  -2   17.05    0.66
  -1   1  -2   15.64    0.64
   1  -1  -2   17.15    0.72
  -1  -1   2   16.45    0.66
   1  -1  -2   14.41    0.63
  -3   1   2    9.98    0.45
   3   1  -2    8.90    0.64
  -3  -1  -2    8.78    0.54
  -3  -1  -2    9.09    0.59
  -3   1   2   10.38    0.64
   3  -1   2   11.02    0.59
  -3   1  -2    9.92    0.47
   3   1   2    9.22    0.45
  -3  -1   2    8.85    0.55
   3  -1  -2   10.70    0.56
  -3   1  -2   11.26    0.68
  -3  -1   2    9.36    0.61
   3   1   2   10.37    0.67
   3  -1  -2    9.72    0.59
   5   1  -2    2.74    0.50
  -5   1   2    3.70    0.53
   5  -1   2    3.68    0.52
  -5  -1  -2    2.80    0.44
  -5   1  -2    3.26    0.53
  -5  -1   2    3.56    0.46
   5  -1  -2    3.73    0.51
  -5  -1   2    2.79    0.50
   0   2   2  116.56    4.43
   0   2  -2  109.53    4.49
   0   2  -2  128.02    4.44
   0  -2  -2  117.87    4.56
   0  -2   2  125.02    4.47
   0  -2   2  123.14    4.57
   0   2   2  119.11    4.47
   0  -2  -2  131.64    4.46
  -2   2   2   65.30    2.57
   2   2  -2   70.70    2.75
  -2  -2  -2   67.57    2.61
   2  -2   2   64.17    2.60
  -2  -2  -2   72.00    2.59
  -2   2   2   64.42    2.65
  -2  -2   2   71.13    2.60
  -2   2  -2   66.30    2.55
  -2   2  -2   64.90    2.69
  -2  -2   2   67.95    2.64
  -2   2  -2   69.22    2.52
   2   2   2   69.47    2.74
   2  -2  -2   62.70    2.64
   2   2   2   68.90    2.52
  -4  -2  -2   21.98    1.08
   4   2  -2   23.95    1.25
  -4   2   2   20.93    1.18
   4  -2   2   20.72    1.10
   4   2   2   22.83    1.25
   4  -2  -2   20.74    1.12
  -4  -2   2   22.28    1.18
  -4   2  -2   21.86    1.23
  -4  -2   2   22.92    1.08
  -1   3   2    1.48    0.26
   1  -3   2    1.49    0.34
   1  -3   2    1.51    0.23
  -1  -3  -2    2.05    0.24
   1   3  -2    1.09    0.14
  -1  -3  -2    1.33    0.15
  -1   3   2    0.91    0.18
   1   3  -2    1.39    0.25
  -1  -3   2    1.59    0.22
   1   3   2    1.80    0.20
   1  -3  -2    1.28    0.25
  -1   3  -2    1.36    0.19
   1   3   2    1.56    0.28
  -3   3   2    2.89    0.39
   3  -3   2    3.42    0.41
   3   3  -2    3.80    0.48
  -3  -3  -2    3.82    0.39
  -3   3   2    3.51    0.34
  -3  -3   2    3.71    0.39
   3   3   2    3.56    0.45
   3  -3  -2    2.86    0.40
  -3   3  -2    3.87    0.34
  -3   3  -2    3.38    0.45
  -5   3   2    3.66    0.56
   5   3  -2    4.63    0.64
   5  -3   2    4.46    0.58
  -5  -3  -2    4.98    0.55
   5   3   2    4.59    0.62
  -5  -3   2    4.21    0.53
  -5   3  -2    3.94    0.63
   5  -3  -2    4.35    0.58
   0  -4  -2   36.80    1.61
   0  -4  -2   36.98    1.55
   0   4  -2   35.92    1.47
   0   4   2   36.57    1.51
   0   4  -2   34.08    1.53
   0  -4   2   34.40    1.51
   0   4   2   35.15    1.49
   0  -4   2   36.59    1.63
   2  -4   2   32.25    1.41
  -2  -4  -2   31.71    1.44
   2   4  -2   29.95    1.51
  -2   4   2   31.68    1.45
  -2   4   2   31.85    1.37
   2   4   2   30.21    1.30
  -2   4  -2   31.85    1.36
  -2  -4   2   31.38    1.43
   2   4   2   29.11    1.49
  -2  -4   2   30.34    1.37
   2  -4  -2   32.28    1.46
   4  -4   2   20.37    1.09
  -4  -4  -2   18.64    1.06
  -4   4   2   20.52    1.18
   4   4  -2   18.66    1.21
   4   4   2   15.65    1.15
   4  -4  -2   20.95    1.13
  -4  -4   2   18.61    1.05
  -4   4  -2   20.71    0.98
  -4   4  -2   20.49    1.22
   1   5  -2   15.84    0.92
  -1   5   2   15.04    0.80
   1  -5   2   15.22    0.84
  -1  -5  -2   15.50    0.89
   1  -5   2   14.65    0.95
   1   5  -2   15.26    0.74
  -1  -5   2   15.35    0.83
   1  -5  -2   15.31    0.91
  -1  -5   2   16.40    0.92
   1  -5  -2   16.50    0.92
   1   5   2   15.49    0.78
  -1   5  -2   15.62    0.81
   1   5   2   16.45    0.91
  -3  -5  -2    5.35    0.55
   3   5  -2    5.83    0.64
   3  -5   2    5.60    0.55
  -3   5   2    6.59    0.53
  -3   5   2    5.83    0.59
  -3   5  -2    5.39    0.48
   3   5   2    4.52    0.56
  -3  -5   2    5.95    0.53
   3  -5  -2    5.79    0.60
   0  -6   2   17.17    0.92
   0  -6  -2   15.76    0.95
   0  -6   2   19.16    1.04
   0   6   2   16.61    0.87
   0   6  -2   17.14    0.87
   2  -6   2   16.45    0.96
  -2   6   2   15.65    0.87
   2  -6   2   16.99    1.11
   2   6  -2   17.82    1.08
  -2  -6  -2   17.05    1.00
  -2   6  -2   15.35    0.88
  -2  -6   2   16.96    0.94
   2  -6  -2   16.50    1.06
   2   6   2   17.26    1.03
   2  -6  -2   15.78    1.01
  -4   6   2   13.47    0.80
   4   6  -2   10.97    0.99
   4  -6   2    8.95    0.96
  -4   6   2   12.48    0.92
  -4  -6   2   11.85    0.86
   4  -6  -2   11.65    0.89
  -4   6  -2   13.06    0.82
   4   6   2   10.86    0.98
   1  -7   2    1.69    0.35
   1  -7   2    2.11    0.47
   1   7  -2    1.39    0.28
  -1   7   2    1.62    0.31
  -1  -7  -2    1.63    0.38
  -1  -7   2    1.48    0.36
   1   7   2    1.02    0.25
   1  -7  -2    1.77    0.38
  -1   7  -2    1.54    0.32
  -3  -7  -2    2.73    0.49
   3   7  -2    1.83    0.48
   3  -7   2    3.44    0.60
  -3   7   2    1.90    0.35
  -3   7  -2    2.08    0.36
   3  -7  -2    1.75    0.46
   3   7   2    2.18    0.50
  -3  -7   2    2.31    0.45
   0   8  -2   22.90    1.13
   0   8   2   23.62    1.15
   0  -8  -2   23.57    1.26
   1   0  -3  478.74   18.80
  -1   0  -3  538.35   19.05
  -1   0  -3  542.12   18.72
  -1   0   3  523.15   18.69
  -1   0  -3  535.47   18.78
  -1   0   3  505.56   18.80
  -1   0  -3  527.73   18.89
  -3   0  -3  210.92    7.86
  -3   0  -3  213.07    7.75
   3   0   3  227.14    7.92
  -3   0  -3  218.63    7.66
   3   0  -3  188.44    7.82
  -3   0   3  210.39    7.88
  -5   0   3   72.12    2.95
  -5   0  -3   61.13    2.95
   5   0  -3   71.31    2.84
   0   1  -3  176.99    6.26
   0  -1  -3  159.34    6.26
   0  -1   3  174.14    6.38
   0   1   3  169.78    6.18
   0   1  -3  158.68    6.23
   0   1   3  174.74    6.24
   0  -1  -3  182.61    6.39
  -2  -1  -3  133.62    4.94
  -2   1   3  133.94    5.02
  -2  -1  -3  140.49    4.95
  -2   1   3  122.72    4.89
   2   1  -3  137.80    5.08
  -2  -1  -3  137.82    5.04
  -2   1  -3  130.44    4.89
  -2  -1   3  138.23    4.94
  -2  -1   3  132.79    5.00
   2  -1  -3  125.51    4.98
  -2   1  -3  134.04    5.04
   2   1   3  136.24    4.88
  -2   1  -3  137.22    4.96
   4  -1   3   68.58    3.04
  -4  -1  -3   76.31    3.10
  -4  -1  -3   76.55    2.99
  -4   1   3   75.49    3.14
   4   1  -3   79.22    3.16
   4  -1  -3   71.72    3.05
  -4  -1   3   78.83    3.15
   4   1   3   81.03    3.20
  -4   1  -3   78.04    3.21
  -4  -1   3   78.54    3.02
  -6   1  -3   24.56    1.57
  -6  -1   3   27.66    1.62
  -1   2   3  236.95    8.68
  -1  -2  -3  237.79    8.71
  -1  -2  -3  238.11    8.72
   1  -2   3  250.22    8.86
   1   2  -3  223.64    8.77
  -1   2   3  230.83    8.67
   1   2  -3  251.49    8.58
   1  -2   3  227.16    8.64
  -1  -2   3  248.95    8.64
   1  -2  -3  217.64    8.58
  -1   2  -3  252.91    8.64
   1  -2  -3  235.36    8.74
  -1  -2   3  238.09    8.75
   1   2   3  237.71    8.63
  -1   2  -3  246.39    8.64
   3  -2   3  162.73    6.00
  -3  -2  -3  161.44    5.99
  -3   2   3  160.91    6.09
  -3   2   3  158.75    5.91
   3   2  -3  157.75    6.17
  -3  -2  -3  154.92    5.99
   3  -2  -3  160.31    6.05
  -3  -2   3  154.98    6.05
  -3   2  -3  174.47    5.92
  -3  -2   3  158.68    5.98
   3   2   3  153.81    6.14
  -3   2  -3  166.75    6.15
   3   2   3  163.52    5.86
  -5  -2  -3   88.14    3.50
  -5   2   3   85.50    3.66
   5   2  -3   86.09    3.67
   5  -2   3   93.09    3.57
  -5  -2   3   77.76    3.61
  -5  -2   3   86.18    3.50
   5  -2  -3   93.98    3.61
   5   2   3   92.61    3.76
  -5   2  -3   90.28    3.73
   0  -3  -3  224.92    7.95
   0  -3  -3  216.28    8.07
   0  -3   3  217.73    8.08
   0   3  -3  222.44    7.90
   0  -3  -3  224.75    7.93
   0  -3   3  215.93    7.92
   0   3  -3  199.05    7.98
   0   3   3  214.46    7.94
  -2   3   3  146.28    5.57
  -2  -3  -3  149.84    5.56
   2  -3   3  149.09    5.50
   2   3  -3  159.06    5.36
  -2   3   3  151.36    5.50
   2   3  -3  145.09    5.68
  -2  -3   3  146.43    5.48
   2  -3  -3  142.59    5.58
  -2   3  -3  147.02    5.63
  -2  -3   3  145.76    5.57
   2   3   3  140.31    5.43
  -2   3  -3  151.64    5.47
   2   3   3  141.85    5.63
   4  -3   3   64.14    2.63
  -4   3   3   65.25    2.75
  -4  -3  -3   60.96    2.60
   4   3  -3   61.55    2.78
   4  -3  -3   65.79    2.68
  -4  -3   3   59.23    2.68
  -4   3  -3   67.53    2.81
  -4   3  -3   68.62    2.52
   4   3   3   60.67    2.79
  -4  -3   3   62.99    2.60
   1   4  -3  221.85    8.21
   1  -4   3  206.30    8.09
  -1   4   3  225.23    8.11
  -1  -4  -3  213.90    8.18
  -1   4   3  214.40    8.07
   1  -4   3  215.43    8.28
   1   4  -3  220.65    7.98
   1   4   3  222.77    8.05
  -1  -4   3  220.73    8.22
   1   4   3  218.76    8.15
  -1   4  -3  220.32    8.05
  -1  -4   3  234.99    8.09
   1  -4  -3  210.95    8.20
  -3   4   3  136.88    5.12
  -3   4   3  126.67    5.25
  -3  -4  -3  134.48    5.20
   3  -4   3  130.38    5.17
   3   4  -3  141.22    5.38
  -3  -4   3  139.06    5.15
   3  -4  -3  132.36    5.24
  -3   4  -3  136.57    5.11
  -3  -4   3  137.79    5.24
   3   4   3  139.16    5.37
  -3   4  -3  134.22    5.31
  -5   4   3   60.56    2.77
  -5  -4  -3   62.84    2.65
   5   4  -3   64.41    2.85
  -5  -4   3   61.70    2.61
  -5   4  -3   56.83    2.79
   5  -4  -3   65.95    2.72
   5   4   3   59.28    2.83
   0   5  -3   62.97    2.49
   0   5  -3   62.21    2.56
   0  -5  -3   62.78    2.64
   0  -5   3   62.41    2.54
   0  -5   3   65.78    2.70
   0   5   3   63.92    2.52
  -2   5   3   63.60    2.63
  -2  -5  -3   61.84    2.64
   2  -5   3   62.12    2.57
   2   5  -3   60.43    2.69
   2  -5   3   63.06    2.80
  -2   5   3   61.93    2.51
   2   5   3   63.79    2.68
  -2  -5   3   62.77    2.64
   2   5   3   60.81    2.45
  -2  -5   3   62.63    2.53
   2  -5  -3   61.39    2.65
  -2   5  -3   61.67    2.51
  -4   5   3   53.31    2.33
   4   5  -3   51.21    2.40
  -4  -5  -3   46.80    2.22
  -4   5   3   54.29    2.12
   4  -5  -3   50.29    2.26
  -4   5  -3   51.87    2.12
  -4  -5   3   47.71    2.16
   4   5   3   42.34    2.32
  -1  -6  -3  148.75    5.79
   1   6  -3  146.20    5.78
   1  -6   3  146.09    5.67
   1  -6   3  148.46    5.87
  -1   6   3  148.66    5.64
   1   6  -3  144.92    5.56
   1   6   3  146.04    5.61
   1   6   3  153.99    5.88
  -1  -6   3  154.01    5.72
   1  -6  -3  149.12    5.81
  -1  -6   3  159.12    5.85
  -1   6  -3  148.53    5.64
   3   6  -3   93.47    3.98
  -3   6   3   95.73    3.75
  -3   6   3  100.15    3.92
   3  -6   3   96.27    4.13
  -3  -6  -3   90.98    3.87
   3   6   3   90.59    3.96
  -3  -6   3   93.84    3.79
   3  -6  -3  100.73    3.96
  -3   6  -3   94.66    3.76
   0   7   3   77.55    3.15
   0   7  -3   81.99    3.15
   0  -7  -3   80.12    3.31
  -2   7   3   65.72    2.58
   2   7  -3   64.08    2.77
  -2  -7  -3   64.55    2.73
   2  -7   3   61.09    2.82
   2  -7  -3   58.52    2.71
  -2  -7   3   63.34    2.62
  -2   7  -3   58.74    2.57
  -1   8   3   58.77    2.48
  -1  -8  -3   59.36    2.60
  -1   8  -3   58.20    2.47
   1   8   3   61.56    2.45
   1  -8  -3   60.01    2.60
   0   0   4  507.57   18.15
   0   0   4  485.70   18.34
   0   0  -4  500.21   18.45
  -2   0  -4  396.92   13.77
  -2   0  -4  380.54   13.74
  -2   0  -4  390.98   13.62
   2   0  -4  331.77   13.74
  -2   0  -4  386.35   13.67
  -2   0   4  384.83   13.77
  -4   0  -4  192.41    7.16
  -4   0  -4  199.21    7.38
   4   0  -4  196.26    7.26
   4   0   4  189.67    7.31
   4   0  -4  190.26    7.28
  -4   0   4  192.64    7.32
  -1   1   4  811.06   28.07
   1  -1   4  781.81   28.71
  -1   1   4  762.54   27.95
  -1  -1  -4  811.35   28.28
  -1  -1  -4  788.26   28.34
   1   1  -4  717.44   28.24
   1   1  -4  813.24   27.79
  -1  -1   4  793.46   27.96
  -1   1  -4  780.71   28.12
   1  -1  -4  770.48   27.95
   1   1   4  763.72   27.84
  -1  -1   4  740.37   28.22
   1   1   4  728.15   27.92
   1  -1  -4  758.69   28.06
  -1   1  -4  804.14   27.96
  -3  -1  -4  368.73   13.23
  -3  -1  -4  345.40   13.16
   3   1  -4  348.70   13.32
  -3   1   4  370.38   13.30
  -3   1  -4  362.43   13.32
  -3  -1   4  364.84   13.18
   3  -1  -4  357.41   13.18
  -3  -1   4  351.49   13.28
  -3   1  -4  392.30   13.10
  -3   1  -4  372.55   13.22
   3  -1  -4  354.29   13.24
  -5  -1  -4  134.81    5.10
   5  -1   4  142.92    5.17
   5   1  -4  125.19    5.25
  -5   1   4  132.02    5.28
   5  -1  -4  146.95    5.24
  -5   1  -4  131.20    5.33
  -5  -1   4  130.30    5.30
   5   1   4  126.23    5.29
   0   2   4  619.17   23.96
   0  -2   4  686.99   23.87
   0   2   4  680.33   23.86
   0  -2  -4  628.06   24.29
   0  -2  -4  686.79   24.15
   0   2  -4  657.88   23.98
   0  -2   4  646.43   24.29
   2  -2   4  433.18   15.73
   2   2  -4  441.60   15.92
  -2  -2  -4  435.23   15.85
  -2  -2  -4  451.56   15.67
  -2   2   4  415.96   15.80
  -2   2   4  425.95   15.73
  -2  -2  -4  436.95   15.78
  -2   2  -4  453.93   15.73
   2   2   4  432.10   15.68
  -2  -2   4  410.42   15.82
  -2   2  -4  442.96   15.70
  -2   2  -4  443.49   15.90
   2  -2  -4  419.16   15.64
  -2  -2   4  456.18   15.73
   2  -2  -4  426.48   15.81
  -4   2   4  164.47    6.40
   4  -2   4  169.25    6.31
  -4  -2  -4  169.59    6.28
   4   2  -4  173.82    6.48
   4   2   4  164.85    6.50
   4  -2  -4  162.24    6.34
  -4  -2   4  154.70    6.40
  -4   2  -4  168.19    6.16
  -4   2  -4  173.73    6.49
  -4  -2   4  171.66    6.28
  -1   3   4  400.69   15.19
  -1   3   4  432.74   15.23
   1  -3   4  404.07   15.39
  -1  -3  -4  399.72   15.28
   1   3  -4  438.89   15.09
  -1  -3  -4  423.80   15.24
   1   3  -4  407.35   15.34
   1  -3   4  390.86   15.16
   1  -3  -4  403.10   15.29
  -1   3  -4  422.09   15.16
  -1   3  -4  427.16   15.15
  -1  -3   4  437.64   15.15
  -1  -3   4  410.13   15.31
   1   3   4  426.41   15.18
   1  -3  -4  461.48   15.10
  -3   3   4  260.79    9.53
   3  -3   4  257.36    9.57
   3   3  -4  266.55    9.79
  -3  -3  -4  265.30    9.61
  -3   3   4  247.21    9.65
  -3  -3   4  269.12    9.57
   3  -3  -4  247.01    9.63
  -3  -3   4  259.56    9.67
   3   3   4  259.64    9.76
  -3   3  -4  266.78    9.51
  -3   3  -4  259.96    9.77
   5  -3   4  130.25    5.03
  -5  -3  -4  130.93    5.00
   5   3  -4  133.06    5.21
   5  -3  -4  131.85    5.07
  -5   3  -4  118.83    5.20
   5   3   4  127.73    5.22
  -5  -3   4  127.52    4.98
   0   4  -4  310.60   11.88
   0  -4   4  337.48   11.81
   0   4   4  321.24   11.83
   0   4   4  331.90   11.84
   0  -4   4  331.19   12.01
   0  -4  -4  331.94   11.82
   0  -4  -4  316.24   11.97
   0   4  -4  312.57   11.76
   2  -4   4  261.30    9.54
  -2   4   4  255.02    9.31
   2  -4   4  253.13    9.23
  -2   4   4  251.96    9.22
   2   4  -4  243.62    9.42
  -2  -4  -4  249.62    9.34
   2   4   4  244.91    9.36
   2   4   4  241.06    9.17
  -2  -4   4  248.95    9.36
  -2  -4   4  250.34    9.21
   2  -4  -4  252.54    9.36
  -2   4  -4  253.88    9.20
  -4   4   4  130.03    5.17
  -4  -4  -4  127.20    5.03
   4   4  -4  129.80    5.21
  -4   4  -4  132.99    5.20
  -4  -4   4  127.76    4.97
   4   4   4  133.19    5.24
  -4   4  -4  129.60    4.92
  -4  -4   4  113.47    5.14
   4  -4  -4  139.51    5.11
  -1  -5  -4  355.90   13.27
  -1   5   4  365.29   13.12
   1   5  -4  356.90   13.02
   1  -5   4  339.28   13.12
   1   5  -4  356.50   13.29
   1  -5   4  361.54   13.36
   1  -5  -4  360.24   13.30
  -1  -5   4  373.71   13.13
  -1  -5   4  357.55   13.31
  -1   5  -4  340.71   13.08
   1   5   4  359.13   13.21
   1   5   4  357.68   13.10
   1  -5  -4  384.49   13.28
  -3   5   4  202.20    7.33
  -3  -5  -4  194.32    7.45
   3  -5   4  188.23    7.69
   3   5  -4  199.79    7.59
  -3   5   4  196.60    7.46
  -3  -5   4  193.44    7.34
  -3   5  -4  195.84    7.33
   3  -5  -4  196.92    7.49
   3   5   4  194.98    7.56
   0   6   4  174.03    6.35
   0  -6   4  174.81    6.58
   0  -6   4  162.44    6.41
   0   6  -4  164.52    6.30
   0  -6  -4  170.37    6.49
  -2   6   4  138.50    5.34
   2   6  -4  143.31    5.58
   2  -6   4  137.49    5.65
  -2  -6  -4  136.99    5.52
   2  -6  -4  135.91    5.54
   2   6   4  153.33    5.55
  -2  -6   4  140.03    5.36
   2   6   4  140.84    5.28
  -2   6  -4  137.42    5.34
  -4   6   4   84.62    3.29
  -4   6   4   85.53    3.53
  -4   6  -4   72.08    3.32
  -4  -6   4   85.39    3.37
  -1   7   4  142.05    5.25
   1  -7   4  140.41    5.50
  -1  -7  -4  138.59    5.42
   1  -7  -4  138.38    5.42
  -1   7  -4  132.77    5.24
   1   7   4  134.09    5.21
   3   7  -4  107.59    4.38
  -3   7   4  105.38    4.16
   3  -7   4  105.17    4.57
   3   7   4  100.53    4.31
   3  -7  -4  104.31    4.36
   0   8  -4  125.00    4.88
   0   8   4  127.54    4.90
   0  -8  -4  131.11    5.10
  -1   0  -5   20.98    0.96
   1   0   5   23.80    0.98
   1   0  -5   21.57    0.96
  -1   0   5   20.00    0.94
  -1   0  -5   22.97    0.88
   1   0  -5   22.03    0.92
  -1   0   5   22.99    0.87
  -1   0  -5   23.31    0.87
   3   0  -5   18.07    0.91
  -3   0  -5   19.51    0.78
  -3   0  -5   18.29    0.93
  -3   0  -5   18.02    0.93
  -3   0  -5   17.21    0.83
  -3   0   5   17.28    0.95
   3   0  -5   17.42    0.91
  -5   0  -5   12.38    0.75
  -5   0   5   11.94    0.88
   5   0  -5   11.70    0.83
   0   1   5    6.72    0.31
   0   1  -5    6.22    0.30
   0  -1   5    6.13    0.40
   0   1   5    6.17    0.33
   0  -1  -5    6.86    0.37
   0   1  -5    6.24    0.39
   0  -1  -5    7.72    0.42
  -2  -1  -5    5.12    0.42
  -2  -1  -5    5.15    0.35
  -2   1   5    5.89    0.43
  -2   1   5    6.02    0.34
   2   1  -5    5.80    0.47
  -2  -1  -5    5.35    0.36
  -2   1  -5    6.65    0.34
  -2  -1   5    4.78    0.40
   2  -1  -5    6.68    0.44
   2  -1  -5    5.82    0.36
  -2  -1   5    5.29    0.36
  -2   1  -5    6.60    0.34
  -2   1  -5    5.97    0.40
  -2   1  -5    6.23    0.45
  -4  -1  -5    3.00    0.38
  -4   1   5    2.85    0.44
   4   1  -5    2.73    0.47
  -4  -1   5    2.64    0.42
  -4   1  -5    2.69    0.45
  -4  -1   5    2.81    0.41
  -4   1  -5    3.18    0.29
   4  -1  -5    2.34    0.42
   4   1   5    2.56    0.47
   1  -2   5   73.28    3.09
  -1  -2  -5   80.22    2.98
   1   2  -5   75.92    3.06
  -1   2   5   74.85    2.93
  -1  -2  -5   78.40    3.00
   1   2  -5   78.75    2.82
  -1   2   5   75.37    2.93
  -1  -2   5   82.64    2.87
   1  -2  -5   71.75    2.99
  -1   2  -5   78.43    2.88
   1  -2  -5   76.60    2.88
   1   2   5   77.18    2.89
  -1  -2   5   79.29    3.04
  -1   2  -5   76.23    2.94
  -3   2   5   26.82    1.30
   3   2  -5   29.57    1.40
   3  -2   5   24.14    1.19
  -3   2   5   26.49    1.15
  -3  -2  -5   28.49    1.23
  -3   2  -5   26.69    1.36
   3  -2  -5   25.25    1.27
  -3  -2   5   28.17    1.21
  -3  -2   5   27.21    1.30
   3   2   5   28.17    1.13
  -3   2  -5   27.00    1.15
   5   2  -5    5.52    0.66
   5  -2   5    5.06    0.58
  -5   2   5    4.95    0.60
  -5  -2  -5    5.77    0.55
  -5  -2   5    5.10    0.56
   5   2   5    5.74    0.66
  -5   2  -5    4.44    0.61
  -5  -2   5    5.44    0.64
   5  -2  -5    5.32    0.60
   0   3  -5    2.32    0.20
   0   3   5    2.20    0.19
   0  -3  -5    1.94    0.24
   0   3   5    2.92    0.26
   0  -3   5    2.07    0.18
   0   3  -5    2.22    0.27
   0  -3   5    1.81    0.28
   2   3  -5    1.44    0.35
  -2  -3  -5    1.18    0.26
   2  -3   5    1.98    0.37
  -2   3   5    1.12    0.21
  -2   3   5    1.93    0.30
  -2  -3  -5    1.17    0.25
  -2  -3   5    1.67    0.25
   2   3   5    1.59    0.21
   2  -3  -5    1.81    0.35
  -2   3  -5    1.54    0.23
  -2  -3   5    1.58    0.32
  -4  -3  -5    1.26    0.33
   4  -3   5    0.80    0.30
  -4   3   5    1.54    0.39
  -4  -3   5    0.91    0.32
  -4  -3   5    1.22    0.40
   4   3   5    0.50    0.29
  -4   3  -5    0.59    0.20
  -4   3  -5    0.67    0.33
   4  -3  -5    0.43    0.28
   1   4  -5   21.18    0.92
  -1  -4  -5   21.36    1.14
  -1   4   5   23.18    1.03
   1  -4   5   23.34    1.22
  -1   4   5   22.20    1.02
   1  -4   5   21.90    0.99
   1   4  -5   20.92    1.15
   1   4   5   22.09    1.02
   1  -4  -5   22.84    1.18
  -1   4  -5   23.35    1.00
  -1   4  -5   21.98    1.02
  -1  -4   5   21.71    0.98
  -1  -4   5   21.07    1.15
   3   4  -5   15.49    1.04
   3  -4   5   17.02    1.13
  -3  -4  -5   13.98    0.89
  -3   4   5   16.14    0.96
  -3   4   5   16.52    0.83
  -3  -4   5   14.92    0.95
  -3  -4   5   14.89    0.84
   3  -4  -5   16.52    0.97
  -3   4  -5   16.37    0.83
   3   4   5   14.15    0.98
   5   4  -5    6.12    0.81
  -5  -4   5    6.50    0.64
   0   5  -5    6.66    0.52
   0  -5  -5    5.50    0.51
   0   5   5    5.96    0.44
   0  -5   5    6.33    0.57
   0   5  -5    6.05    0.41
   0  -5   5    5.74    0.41
  -2  -5  -5    3.22    0.44
   2   5  -5    2.19    0.45
   2  -5   5    2.30    0.43
  -2   5   5    1.84    0.30
  -2   5   5    2.72    0.42
   2  -5  -5    2.83    0.50
   2   5   5    2.36    0.44
  -2  -5   5    2.32    0.35
  -2   5  -5    2.26    0.33
  -2  -5   5    2.39    0.40
   2   5   5    2.12    0.29
  -4   5   5    0.41    0.38
   4   5  -5    0.42    0.39
   4  -5   5    0.32    0.34
  -4  -5  -5    0.43    0.34
  -4  -5   5    0.51    0.32
  -4   5  -5    0.01    0.24
   4  -5  -5    0.15    0.33
   4   5   5    0.29    0.35
   1   6  -5    8.23    0.68
   1   6  -5    8.51    0.50
  -1  -6  -5    9.36    0.69
  -1   6   5    8.41    0.56
   1  -6   5    7.79    0.70
  -1   6  -5    7.71    0.54
   1   6   5    8.96    0.56
  -1  -6   5    8.47    0.69
   1  -6  -5    7.59    0.66
  -3   6   5    6.38    0.65
  -3   6   5    7.06    0.54
  -3  -6  -5    7.58    0.71
   3  -6   5    7.68    0.80
   3   6  -5    7.66    0.76
   3  -6  -5    7.62    0.73
  -3   6  -5    6.57    0.58
   3   6   5    8.45    0.77
  -3  -6   5    6.62    0.62
   0   7  -5    1.36    0.29
   0  -7   5    2.11    0.48
   0   7   5    2.36    0.35
   0  -7  -5    1.56    0.38
   2  -7   5    1.04    0.39
   2   7  -5    1.29    0.43
  -2   7   5    0.74    0.25
  -2  -7  -5    1.03    0.39
  -2   7  -5    1.09    0.30
   2  -7  -5    0.66    0.30
   1  -8   5   11.38    0.88
   1   8   5   10.20    0.66
   0   0  -6  316.46   11.49
   0   0   6  305.24   11.06
   0   0  -6  260.36   10.85
   0   0   6  316.94   11.22
  -2   0  -6  203.61    7.10
  -2   0   6  182.13    7.09
   2   0  -6  195.01    7.24
  -2   0   6  194.60    7.24
   2   0  -6  187.65    7.18
  -2   0  -6  202.21    7.12
  -2   0  -6  203.60    7.28
  -4   0   6   73.21    3.09
  -4   0  -6   77.80    3.08
   4   0  -6   72.10    3.00
  -4   0  -6   75.57    2.92
   4   0   6   74.73    3.15
   4   0  -6   74.79    3.02
   1  -1   6  141.24    5.39
  -1  -1  -6  149.90    5.34
  -1   1   6  143.13    5.23
   1   1  -6  137.40    5.36
  -1  -1  -6  148.32    5.25
  -1   1   6  142.70    5.27
   1  -1  -6  142.57    5.27
   1   1   6  142.58    5.19
   1   1   6  144.16    5.23
   1  -1  -6  138.01    5.30
  -1  -1   6  137.46    5.33
  -1   1  -6  144.64    5.31
  -1   1  -6  144.45    5.21
   3   1  -6   97.20    3.62
  -3  -1  -6   93.52    3.44
  -3  -1  -6   94.34    3.59
  -3   1   6   89.52    3.56
  -3  -1  -6   78.99    3.45
   3  -1  -6   85.02    3.44
  -3   1  -6   87.07    3.39
   3  -1  -6   85.57    3.51
  -3  -1   6   92.08    3.57
  -3   1  -6   90.51    3.59
  -3  -1   6   94.17    3.46
  -3   1  -6   92.33    3.37
  -3   1  -6   91.11    3.52
   5  -1   6   42.62    1.99
   5   1  -6   47.19    2.07
   5   1  -6   45.22    2.10
  -5  -1  -6   48.63    1.99
  -5   1   6   46.60    2.15
   5   1   6   47.75    2.20
  -5  -1   6   45.70    2.15
   5  -1  -6   45.25    2.08
   0  -2  -6  130.32    5.02
   0  -2  -6  136.49    4.91
   0   2  -6  122.46    4.96
   0   2   6  139.41    4.81
   0   2  -6  136.17    4.83
   0   2   6  130.24    4.87
   0  -2   6  128.81    5.03
   2  -2   6  112.75    4.19
  -2   2   6  112.46    4.23
  -2  -2  -6  113.57    4.26
  -2   2   6  111.35    4.29
  -2  -2  -6  111.52    4.36
   2  -2   6  118.25    4.50
   2   2  -6  108.96    4.40
  -2   2  -6  120.10    4.20
   2  -2  -6  112.30    4.18
   2  -2  -6  109.72    4.31
   2   2   6  109.95    4.19
  -2  -2   6  110.36    4.20
  -2  -2   6  110.48    4.34
  -2   2  -6  116.49    4.26
   4  -2   6   74.39    2.98
  -4   2   6   75.45    3.10
  -4  -2  -6   71.66    2.96
   4   2  -6   74.55    3.16
   4  -2  -6   75.18    3.06
  -4  -2   6   73.37    3.11
  -4   2  -6   72.97    3.16
  -4   2  -6   79.27    2.87
   4   2   6   73.87    3.19
  -4  -2   6   74.02    2.96
   1   3  -6  167.63    6.58
  -1  -3  -6  172.26    6.50
  -1   3   6  172.08    6.43
   1   3  -6  179.76    6.32
  -1  -3  -6  168.61    6.54
  -1   3   6  172.36    6.41
   1  -3   6  166.62    6.63
   1  -3  -6  183.32    6.37
   1   3   6  176.52    6.41
   1  -3  -6  168.53    6.55
  -1   3  -6  180.31    6.47
  -1   3  -6  173.98    6.38
  -1  -3   6  175.77    6.35
  -1  -3   6  172.53    6.58
   3  -3   6   80.41    3.74
  -3   3   6   86.28    3.50
   3   3  -6   88.97    3.66
  -3   3   6   91.09    3.40
  -3  -3  -6   88.41    3.47
   3   3   6   91.60    3.35
  -3   3  -6   93.40    3.39
   3  -3  -6   88.17    3.53
   3   3   6   82.22    3.63
  -3  -3   6   87.81    3.41
  -3  -3   6   90.80    3.59
   5   3  -6   33.44    1.73
  -5  -3  -6   33.50    1.55
  -5   3   6   34.00    1.68
  -5  -3   6   31.54    1.52
   5  -3  -6   34.95    1.64
   5   3   6   29.77    1.72
  -5  -3   6   28.56    1.68
   0  -4  -6  142.37    5.20
   0   4  -6  132.37    5.28
   0   4   6  137.58    5.21
   0   4  -6  139.84    5.13
   0  -4   6  140.23    5.11
   0  -4  -6  139.42    5.37
   0  -4   6  138.10    5.41
  -2   4   6  109.46    4.28
   2  -4   6  105.92    4.48
  -2   4   6  106.32    4.18
  -2  -4  -6  111.48    4.34
   2   4  -6  115.06    4.43
   2  -4  -6  102.99    4.32
  -2   4  -6  107.63    4.16
  -2  -4   6  110.49    4.37
   2   4   6  110.34    4.17
  -2  -4   6  112.80    4.16
   2   4   6  112.13    4.39
  -4   4   6   47.28    2.46
  -4  -4  -6   59.91    2.46
   4  -4   6   55.83    2.76
   4   4  -6   62.19    2.65
  -4   4  -6   51.32    2.30
  -4  -4   6   58.41    2.54
   4  -4  -6   55.21    2.48
   4   4   6   61.94    2.65
  -4  -4   6   55.56    2.35
   1  -5   6   56.20    2.52
   1   5  -6   55.36    2.43
  -1   5   6   55.19    2.28
  -1  -5  -6   57.21    2.46
   1   5  -6   55.98    2.18
  -1  -5   6   54.33    2.47
  -1   5  -6   55.30    2.25
   1   5   6   56.90    2.28
   1  -5  -6   57.23    2.49
   1   5   6   57.12    2.38
   3   5  -6   53.10    2.42
   3  -5   6   52.80    2.52
  -3  -5  -6   48.92    2.27
  -3   5   6   49.63    2.12
  -3   5   6   50.79    2.25
  -3  -5   6   50.91    2.35
   3   5   6   50.24    2.34
   3  -5  -6   52.05    2.32
  -3  -5   6   48.64    2.12
  -3   5  -6   50.34    2.14
   0   6   6   96.39    3.71
   0  -6  -6   95.87    3.87
   0  -6   6   99.08    3.96
   0   6  -6   89.67    3.64
   2   6  -6   76.61    3.28
  -2   6   6   80.74    3.06
  -2  -6  -6   71.23    3.23
   2  -6   6   78.13    3.37
   2  -6  -6   82.23    3.32
   2   6   6   72.97    3.01
  -2  -6   6   72.91    3.26
  -2   6  -6   78.30    3.08
   2   6   6   73.78    3.21
  -4   6   6   43.16    2.18
  -1  -7  -6   66.10    2.87
   1  -7   6   65.93    2.94
  -1   7   6   66.22    2.69
  -1   7  -6   62.33    2.67
  -1  -7   6   69.35    2.93
   1   7   6   67.66    2.69
   1  -7  -6   64.85    2.86
   0   8  -6   31.70    1.43
  -1   0  -7  127.15    4.62
   1   0  -7  124.72    4.73
  -1   0  -7  128.47    4.75
   1   0  -7  123.29    4.67
   1   0   7  125.42    4.71
  -1   0   7  127.49    4.61
  -1   0  -7  131.86    4.60
  -1   0   7  121.22    4.71
  -3   0  -7  102.03    3.69
  -3   0   7  100.30    3.89
  -3   0  -7   98.97    3.85
   3   0  -7   97.32    3.85
  -3   0  -7   98.82    3.89
   3   0  -7   98.74    3.82
  -3   0  -7   97.31    3.72
   5   0  -7   66.40    2.75
  -5   0   7   61.99    2.79
  -5   0  -7   63.51    2.59
   0  -1  -7  399.80   14.20
   0  -1   7  397.55   13.88
   0   1   7  390.18   14.02
   0  -1  -7  341.85   13.85
   0   1  -7  370.74   14.39
   0   1  -7  387.26   13.94
   0   1   7  381.58   13.95
  -2   1   7  299.83   10.35
   2  -1   7  289.23   10.57
  -2  -1  -7  284.06   10.35
   2   1  -7  281.84   10.51
  -2   1   7  296.83   10.45
  -2  -1  -7  283.49   10.49
  -2  -1   7  275.63   10.47
  -2   1  -7  291.94   10.46
   2  -1  -7  297.31   10.45
   2   1   7  242.62   10.31
   2  -1  -7  280.51   10.38
   2   1   7  278.67   10.38
  -2   1  -7  288.71   10.31
  -2   1  -7  294.85   10.29
   4   1  -7  140.24    5.28
  -4   1   7  146.12    5.37
   4   1  -7  132.15    5.33
  -4  -1  -7  130.63    5.16
  -4  -1   7  120.96    5.33
   4  -1  -7  144.14    5.31
  -4   1  -7  149.58    5.10
  -4   1  -7  134.81    5.37
  -1   2   7  230.57    8.12
   1   2  -7  223.27    8.01
  -1   2   7  218.41    8.12
  -1  -2  -7  212.50    8.19
  -1  -2  -7  229.14    8.18
   1  -2   7  214.62    8.30
   1   2  -7  209.30    8.25
   1   2   7  216.58    8.08
  -1  -2   7  228.41    8.03
  -1   2  -7  231.05    8.07
  -1  -2   7  225.35    8.26
   1  -2  -7  214.11    8.22
   1  -2  -7  220.82    8.10
  -1   2  -7  228.72    8.20
   3   2  -7  122.47    4.56
   3  -2   7  116.71    4.31
   3  -2   7  104.11    4.61
  -3  -2  -7  113.47    4.46
  -3  -2  -7  118.48    4.34
  -3   2   7  113.51    4.43
   3  -2  -7  111.29    4.41
  -3   2  -7  100.07    4.36
  -3  -2   7  114.64    4.45
  -3  -2   7  119.47    4.32
  -3   2  -7  116.46    4.25
  -5   2   7   46.10    2.15
  -5  -2  -7   47.45    2.01
   5   2  -7   49.48    2.22
   5   2   7   44.81    2.24
  -5  -2   7   45.34    2.20
   5  -2  -7   45.52    2.11
   0  -3   7  211.94    8.14
   0   3  -7  201.16    8.05
   0   3   7  216.66    7.96
   0  -3  -7  223.55    7.98
   0   3  -7  221.04    7.88
   0  -3  -7  222.82    8.14
   2  -3   7  186.24    7.20
   2   3  -7  186.76    7.13
  -2  -3  -7  191.51    6.99
  -2  -3  -7  186.59    7.02
  -2   3   7  176.03    6.93
  -2   3   7  182.53    6.90
  -2  -3   7  190.27    7.08
  -2  -3   7  189.26    6.85
  -2   3  -7  185.36    6.87
   2  -3  -7  178.51    7.02
   2   3   7  189.25    6.86
  -2   3  -7  192.33    6.92
  -4  -3  -7  123.03    4.69
  -4   3   7  117.36    4.76
   4   3  -7  123.07    4.88
   4  -3  -7  112.75    4.72
   4   3   7  123.71    4.90
  -4   3  -7  122.19    4.57
  -4  -3   7  121.31    4.83
  -4  -3   7  123.71    4.65
  -1  -4  -7  109.47    4.38
   1  -4   7  112.77    4.57
   1   4  -7  115.93    4.21
  -1   4   7  117.19    4.34
  -1   4   7  117.60    4.32
   1   4  -7  112.60    4.51
  -1  -4  -7  109.39    4.49
  -1   4  -7  117.01    4.29
   1   4   7  116.08    4.34
   1  -4  -7  116.23    4.54
  -1  -4   7  108.13    4.52
  -1   4  -7  113.36    4.38
   3   4  -7   83.24    3.53
   3  -4   7   90.94    3.72
  -3   4   7   84.25    3.39
  -3  -4  -7   82.00    3.39
  -3   4   7   84.37    3.27
  -3   4  -7   88.84    3.29
   3  -4  -7   84.18    3.44
  -3  -4   7   81.40    3.26
   3   4   7   77.71    3.49
  -3  -4   7   87.11    3.51
   3   4   7   75.25    3.22
  -5  -4   7   43.62    1.99
   0  -5  -7  244.96    9.19
   0   5   7  237.96    9.01
   0  -5   7  246.27    9.27
   0   5  -7  248.83    9.13
   0   5  -7  241.65    8.94
   2  -5   7  180.70    7.04
  -2   5   7  178.60    6.70
   2   5  -7  187.88    6.98
  -2  -5  -7  169.28    6.90
   2   5   7  184.49    6.90
  -2   5  -7  177.36    6.69
  -2  -5   7  178.16    6.96
   2  -5  -7  174.73    6.93
   2   5   7  180.57    6.70
   4  -5   7   83.87    3.82
  -4  -5  -7   86.77    3.53
  -4   5   7   83.92    3.53
   4   5  -7   89.18    3.68
   4   5   7   82.31    3.65
  -4   5  -7   77.27    3.35
   4  -5  -7   85.44    3.55
   1   6  -7   74.21    3.06
   1  -6   7   72.46    3.16
  -1   6   7   73.41    2.91
  -1  -6  -7   72.04    3.07
  -1  -6   7   73.41    3.14
  -1   6  -7   70.53    2.88
   1  -6  -7   69.97    3.09
   1   6   7   72.11    2.90
   3  -6   7   54.35    2.68
  -3   6   7   58.94    2.33
  -3  -6  -7   53.44    2.52
   3   6  -7   61.15    2.64
   3   6   7   56.06    2.57
  -3   6  -7   53.73    2.35
   3  -6  -7   50.42    2.51
   0   7  -7   92.45    3.74
   0  -7   7   98.17    4.05
   0  -7  -7   96.08    3.97
   0   7   7  100.72    3.81
  -2   7   7   83.16    3.40
   2   7  -7   86.84    3.64
   2  -7   7   88.48    3.75
  -2  -7  -7   84.76    3.66
   2  -7  -7   88.18    3.66
  -2   7  -7   85.79    3.44
   2   7   7   85.37    3.39
   0   0   8  232.80    8.41
   0   0   8  230.49    8.47
   0   0  -8  231.74    8.53
  -2   0  -8  146.74    5.21
  -2   0   8  144.17    5.20
  -2   0   8  140.43    5.35
   2   0  -8  139.01    5.35
  -2   0  -8  142.60    5.39
   2   0   8  139.45    5.38
   2   0  -8  141.74    5.31
  -4   0  -8   47.85    1.97
  -4   0  -8   48.71    2.13
  -4   0   8   48.47    2.17
   4   0  -8   46.46    2.06
   4   0   8   48.85    1.94
   4   0  -8   47.98    2.09
  -1  -1  -8  209.96    7.67
   1   1  -8  211.77    7.54
  -1   1   8  205.88    7.60
   1  -1   8  202.17    7.70
  -1  -1  -8  215.41    7.57
  -1   1   8  205.82    7.54
   1   1  -8  206.65    7.71
  -1  -1   8  201.35    7.50
   1  -1  -8  214.65    7.64
  -1   1  -8  205.23    7.52
  -1   1  -8  210.51    7.68
  -1  -1   8  209.52    7.68
   1   1   8  203.64    7.55
   1   1   8  201.10    7.51
   1  -1  -8  202.67    7.65
  -3  -1  -8  125.74    4.63
   3   1  -8  128.92    4.69
   3   1  -8  125.83    4.81
  -3   1   8  124.07    4.79
  -3  -1  -8  124.52    4.82
   3  -1   8  122.10    4.90
  -3  -1   8  123.46    4.78
  -3   1  -8  126.83    4.77
  -3   1  -8  124.45    4.58
  -3   1  -8  120.13    4.61
   3   1   8  130.82    4.60
   3  -1  -8  118.57    4.72
   3  -1  -8  107.46    4.63
   5   1  -8   58.45    2.47
  -5  -1  -8   57.64    2.35
  -5   1   8   54.69    2.51
   5   1   8   55.58    2.57
   5  -1  -8   55.95    2.47
  -5  -1   8   56.44    2.56
   0  -2  -8   87.44    3.57
   0   2  -8   92.53    3.37
   0   2  -8   84.31    3.54
   0   2   8  101.30    3.38
   0  -2  -8   90.10    3.48
   0  -2   8   91.00    3.59
   0   2   8   89.04    3.42
  -2   2   8   77.22    2.94
  -2  -2  -8   71.40    2.98
  -2  -2  -8   73.35    2.88
   2   2  -8   73.73    3.05
   2  -2   8   74.05    3.11
  -2   2   8   77.53    2.86
  -2   2  -8   77.04    2.95
  -2  -2   8   71.71    2.98
  -2  -2   8   71.64    2.81
   2   2   8   70.94    2.83
   2  -2  -8   74.41    2.84
  -2   2  -8   74.24    2.81
   2  -2  -8   73.51    2.97
   4   2  -8   45.39    2.15
  -4   2   8   47.45    2.11
  -4  -2  -8   45.83    1.97
   4  -2   8   52.82    2.40
  -4   2  -8   49.85    1.90
   4   2   8   38.72    2.16
   4  -2  -8   47.43    2.09
  -4  -2   8   47.36    2.15
   1  -3   8  223.40    8.39
   1   3  -8  216.86    8.35
   1   3  -8  227.04    8.04
  -1   3   8  222.93    8.13
  -1  -3  -8  213.96    8.29
  -1   3   8  221.78    8.17
  -1  -3  -8  220.63    8.24
   1  -3  -8  230.04    8.13
  -1   3  -8  222.38    8.24
  -1   3  -8  225.88    8.11
  -1  -3   8  211.24    8.33
   1   3   8  219.78    8.13
   1  -3  -8  223.82    8.34
  -3   3   8  114.82    4.25
   3   3  -8  111.12    4.51
  -3  -3  -8  106.58    4.41
  -3   3   8  108.43    4.35
   3  -3   8  109.62    4.62
  -3  -3  -8  109.37    4.32
  -3  -3   8  115.17    4.47
   3  -3  -8  111.40    4.41
  -3   3  -8  115.09    4.24
   3   3   8  114.51    4.22
  -3  -3   8  111.77    4.25
  -5   3   8   39.29    1.89
   5   3  -8   38.62    1.92
   5  -3   8   39.50    2.14
  -5  -3  -8   38.73    1.74
  -5  -3   8   30.95    1.85
   5   3   8   37.08    1.96
   0   4  -8   92.71    3.53
   0  -4  -8   95.71    3.63
   0   4   8   95.86    3.64
   0  -4   8   91.63    3.83
   0   4  -8   89.89    3.73
   0  -4  -8   96.46    3.80
  -2   4   8   68.04    2.81
  -2  -4  -8   70.34    2.88
  -2   4   8   68.75    2.76
   2   4  -8   72.92    3.01
   2  -4   8   65.28    3.03
  -2  -4  -8   72.83    2.95
   2   4   8   73.81    2.77
  -2   4  -8   66.49    2.74
   2  -4  -8   66.85    2.94
  -2  -4   8   72.75    3.00
  -4   4   8   33.24    1.68
  -4  -4  -8   32.82    1.65
   4   4  -8   38.12    1.85
  -4  -4   8   35.76    1.79
   4  -4  -8   33.19    1.70
   4   4   8   36.01    1.82
  -4   4  -8   31.65    1.52
  -1   5   8   74.15    3.02
   1   5  -8   77.06    3.22
   1  -5   8   74.49    3.27
   1   5  -8   74.91    2.90
  -1  -5  -8   82.71    3.25
   1  -5  -8   76.98    3.24
  -1   5  -8   75.49    2.98
  -1  -5   8   74.01    3.24
   1   5   8   76.34    3.03
  -3  -5  -8   60.50    2.68
  -3   5   8   62.33    2.50
   3  -5   8   61.63    2.90
  -3   5   8   60.95    2.63
   3   5  -8   62.44    2.79
  -3   5  -8   60.64    2.52
   3  -5  -8   59.97    2.71
   3   5   8   65.07    2.76
  -3  -5   8   57.14    2.74
   0   6  -8   57.98    2.36
   0  -6   8   59.32    2.68
   0   6   8   59.35    2.44
   0  -6  -8   60.44    2.61
  -2   6   8   49.42    1.99
   2   6  -8   46.23    2.21
  -2  -6  -8   43.54    2.19
   2  -6   8   46.54    2.29
   2   6   8   43.90    1.96
   2   6   8   46.10    2.16
  -2  -6   8   48.89    2.26
  -2   6  -8   46.19    1.99
   2  -6  -8   48.16    2.24
  -1  -7  -8   74.52    3.16
  -1   7   8   72.36    2.94
   1  -7   8   69.96    3.21
   1  -7  -8   71.67    3.14
   1   7   8   75.28    2.95
  -1  -7   8   77.42    3.23
  -1   7  -8   70.11    2.92
   1   0   9  210.92    7.70
  -1   0  -9  211.99    7.77
   1   0  -9  208.32    7.67
   1   0  -9  210.56    7.76
  -1   0   9  211.49    7.59
   1   0   9  209.29    7.63
  -1   0   9  199.95    7.69
  -3   0  -9   94.03    3.49
   3   0  -9   92.33    3.62
  -3   0   9   95.62    3.69
  -3   0  -9   96.06    3.72
   3   0   9   89.12    3.70
   3   0  -9   95.51    3.65
   3   0   9   84.31    3.50
  -5   0   9   30.03    1.59
   5   0  -9   31.31    1.56
   0  -1  -9  183.00    7.26
   0   1  -9  195.61    7.13
   0   1   9  205.15    7.17
   0   1  -9  195.62    7.33
   0  -1   9  199.58    7.31
   0   1   9  195.36    7.17
   0  -1  -9  199.78    7.29
  -2  -1  -9  141.31    5.71
   2   1  -9  154.79    5.59
   2  -1   9  151.34    5.77
   2   1  -9  154.64    5.74
  -2   1   9  153.14    5.66
  -2   1   9  151.29    5.56
  -2  -1  -9  153.06    5.55
   2   1   9  155.45    5.55
  -2   1  -9  147.53    5.69
   2  -1  -9  147.04    5.66
   2  -1  -9  147.99    5.62
  -2  -1   9  146.29    5.70
  -2   1  -9  148.53    5.52
   4   1  -9   84.88    3.31
   4   1  -9   83.03    3.37
   4  -1   9   79.57    3.51
  -4  -1  -9   81.08    3.20
  -4  -1  -9   81.36    3.39
  -4   1   9   79.60    3.36
  -4   1  -9   84.32    3.14
   4   1   9   86.31    3.17
   4  -1  -9   79.27    3.33
  -4  -1   9   80.60    3.39
  -1  -2  -9   95.50    3.77
   1   2  -9   94.52    3.56
   1   2  -9   91.68    3.83
  -1   2   9   97.68    3.67
   1  -2   9   95.68    3.85
  -1  -2  -9   94.01    3.72
  -1   2   9  105.19    3.70
  -1   2  -9  100.90    3.80
   1  -2  -9   97.42    3.70
   1   2   9   92.22    3.64
  -1   2  -9   98.06    3.62
  -1  -2   9   96.41    3.82
   1  -2  -9   99.46    3.82
   3  -2   9   72.39    3.02
  -3   2   9   69.51    2.80
  -3  -2  -9   64.35    2.69
  -3  -2  -9   65.16    2.84
   3   2  -9   67.91    2.90
  -3  -2   9   66.54    2.84
  -3   2  -9   66.04    2.79
  -3   2  -9   70.26    2.64
   3  -2  -9   70.17    2.81
  -5   2   9   39.42    1.84
  -5  -2  -9   37.18    1.66
   5   2  -9   36.93    1.76
   5  -2   9   33.26    1.98
   5   2  -9   36.87    1.83
   5   2   9   36.93    1.91
   5  -2  -9   38.76    1.80
  -5  -2   9   34.25    1.87
   0   3  -9  203.61    8.26
   0  -3   9  220.24    8.35
   0  -3  -9  232.07    8.34
   0  -3  -9  229.31    8.19
   0   3  -9  224.22    8.06
   0   3   9  216.30    8.14
   2   3  -9  154.07    6.09
  -2  -3  -9  156.89    5.96
  -2   3   9  155.33    5.91
  -2   3   9  161.49    5.88
   2  -3   9  158.00    6.17
  -2  -3  -9  153.65    6.02
   2  -3  -9  153.67    6.03
   2   3   9  159.03    5.85
  -2  -3   9  159.14    6.07
  -2   3  -9  157.65    5.96
  -2   3  -9  159.77    5.84
   4  -3   9   56.82    2.90
  -4   3   9   64.75    2.70
   4   3  -9   63.64    2.79
  -4  -3  -9   60.78    2.60
  -4   3  -9   67.88    2.53
   4   3   9   57.07    2.80
   4  -3  -9   66.86    2.74
  -4  -3   9   64.59    2.78
  -4  -3   9   62.20    2.57
   1   4  -9   97.31    3.56
   1  -4   9   92.64    3.92
  -1  -4  -9   94.06    3.86
  -1  -4  -9   97.31    3.77
   1   4  -9   97.34    3.89
  -1   4   9   94.71    3.69
  -1   4  -9   92.38    3.78
  -1  -4   9   91.95    3.89
   1  -4  -9   97.73    3.91
   1   4   9   97.54    3.69
  -1   4  -9   93.71    3.62
  -3   4   9   60.24    2.38
   3  -4   9   53.31    2.71
  -3  -4  -9   60.78    2.53
  -3   4   9   57.27    2.48
   3   4  -9   61.93    2.66
   3   4   9   59.03    2.37
   3  -4  -9   55.64    2.55
  -3   4  -9   56.38    2.38
  -3  -4   9   61.25    2.66
   0  -5  -9   75.07    3.13
   0   5  -9   71.14    2.86
   0   5  -9   74.66    3.09
   0  -5   9   76.76    3.21
   0   5   9   72.65    2.95
   2  -5   9   64.20    2.94
  -2  -5  -9   59.27    2.82
   2   5  -9   66.33    2.88
  -2   5   9   68.68    2.65
   2   5   9   67.72    2.66
   2   5   9   65.36    2.86
   2  -5  -9   63.58    2.86
  -2  -5   9   65.14    2.90
  -2   5  -9   65.53    2.63
  -4   5   9   47.32    2.15
  -4   5  -9   41.73    2.05
  -4  -5   9   46.06    2.24
   1   6  -9   63.92    2.78
  -1   6   9   64.07    2.60
  -1  -6  -9   64.56    2.79
   1  -6   9   64.89    2.88
   1   6   9   61.46    2.59
  -1   6  -9   61.86    2.56
   1  -6  -9   63.76    2.81
  -1  -6   9   63.36    2.85
  -3  -6  -9   35.17    1.91
  -3   6   9   42.51    1.73
   3   6  -9   39.41    2.00
   3  -6   9   40.59    2.12
   3  -6  -9   37.85    1.97
   3   6   9   37.51    1.94
  -3   6  -9   38.64    1.76
  -3  -6   9   38.47    2.00
   0  -7  -9   76.02    3.21
   0  -7   9   77.08    3.28
   0   7  -9   70.22    2.93
   0   7   9   74.51    3.01
   2   7  -9   58.84    2.69
   2   7   9   57.05    2.45
  -2  -7   9   62.22    2.75
   0   0  10  108.76    4.03
   0   0  10  101.85    3.94
   0   0 -10  107.81    4.11
   2   0  10   89.62    3.54
  -2   0  10   95.39    3.65
   2   0  10   87.01    3.62
   2   0 -10   96.88    3.67
   2   0 -10   98.41    3.62
  -2   0 -10   93.42    3.70
  -4   0 -10   74.04    3.08
  -4   0  10   71.28    3.09
   4   0 -10   72.95    2.99
   4   0 -10   74.54    3.02
   1  -1  10  299.60   10.82
  -1  -1 -10  298.23   10.65
  -1   1  10  298.04   10.70
  -1   1  10  292.76   10.64
   1   1 -10  280.09   10.81
  -1  -1 -10  288.62   10.79
  -1  -1  10  286.31   10.60
   1   1  10  291.45   10.65
  -1   1 -10  290.15   10.62
  -1  -1  10  291.87   10.78
  -1   1 -10  298.99   10.82
   1  -1 -10  298.75   10.76
   1  -1 -10  307.85   10.79
   1   1  10  278.37   10.61
   3  -1  10  172.79    6.90
  -3  -1 -10  173.74    6.62
  -3   1  10  184.06    6.82
   3   1 -10  175.86    6.82
  -3  -1 -10  175.17    6.85
   3   1 -10  176.74    6.72
  -3  -1  10  172.41    6.80
  -3   1 -10  182.31    6.84
   3   1  10  186.81    6.64
   3  -1 -10  182.91    6.70
  -3   1 -10  185.25    6.60
   3  -1 -10  183.15    6.78
  -5   1  10   83.42    3.40
   5   1 -10   78.87    3.32
   5  -1 -10   83.53    3.36
   5   1  10   73.94    3.45
  -5  -1  10   79.69    3.43
   0  -2 -10  183.26    6.90
   0   2  10  180.71    6.73
   0   2 -10  178.31    6.91
   0  -2 -10  187.99    6.84
   0   2 -10  181.33    6.67
   0  -2  10  185.58    6.92
  -2   2  10  143.05    5.17
   2  -2  10  139.52    5.41
   2   2 -10  141.15    5.37
  -2  -2 -10  139.36    5.32
  -2   2  10  140.79    5.24
  -2  -2 -10  141.51    5.18
  -2  -2  10  137.33    5.31
   2  -2 -10  135.36    5.29
   2   2  10  131.91    5.14
   2  -2 -10  130.72    5.16
  -2   2 -10  139.20    5.29
  -2   2 -10  131.26    5.10
   4   2 -10   68.70    2.83
   4  -2  10   60.12    2.93
   4   2 -10   65.87    2.68
  -4  -2 -10   64.55    2.62
  -4  -2 -10   66.10    2.82
  -4   2  10   63.04    2.75
   4  -2 -10   63.07    2.74
  -4  -2  10   67.05    2.84
  -4   2 -10   63.38    2.55
   1  -3  10  176.14    6.85
   1   3 -10  181.33    6.49
   1   3 -10  176.70    6.83
  -1  -3 -10  176.87    6.75
  -1  -3 -10  178.54    6.72
  -1   3  10  172.93    6.63
  -1  -3  10  176.91    6.82
  -1   3 -10  175.14    6.55
   1  -3 -10  181.81    6.84
  -1   3 -10  177.94    6.76
   1  -3 -10  184.12    6.63
   1   3  10  176.89    6.60
  -3   3  10  136.84    5.35
  -3  -3 -10  135.58    5.42
   3   3 -10  139.25    5.50
   3  -3  10  141.56    5.63
  -3  -3 -10  138.93    5.31
   3   3  10  144.12    5.23
  -3  -3  10  141.06    5.49
   3  -3 -10  136.18    5.41
  -3   3 -10  136.27    5.21
   0   4  10  102.62    3.95
   0  -4  10  101.28    4.16
   0  -4 -10  103.47    3.96
   0   4 -10  101.68    4.09
   0  -4 -10  101.34    4.11
   0   4 -10  100.75    3.84
  -2   4  10   90.60    3.48
  -2  -4 -10   86.65    3.63
   2   4 -10   91.84    3.75
  -2  -4 -10   82.47    3.57
   2  -4  10   90.44    3.78
  -2   4 -10   90.28    3.45
   2   4  10   87.51    3.46
   2  -4 -10   91.43    3.69
  -2  -4  10   87.87    3.70
  -4   4  10   58.47    2.49
   4  -4  10   52.51    2.73
  -4  -4 -10   52.26    2.43
   4   4 -10   54.49    2.59
   4   4  10   55.87    2.63
  -4   4 -10   58.61    2.34
   4  -4 -10   58.48    2.53
  -4  -4  10   56.91    2.61
   1   5 -10  208.95    7.65
  -1  -5 -10  196.09    7.61
  -1   5  10  198.16    7.41
  -1  -5 -10  192.72    7.45
   1  -5  10  196.85    7.69
   1   5  10  198.96    7.43
  -1   5 -10  185.49    7.34
  -1  -5  10  201.19    7.69
   1  -5 -10  205.07    7.65
  -3   5  10  122.46    4.45
  -3  -5 -10  118.08    4.67
   3  -5  10  115.62    4.86
   3   5 -10  118.24    4.75
  -3  -5  10  106.90    4.73
   3  -5 -10  117.41    4.70
   3   5  10  114.66    4.73
   3   5  10  110.95    4.50
  -3   5 -10  113.06    4.47
   0  -6 -10   67.09    2.85
   0   6 -10   61.72    2.56
   0   6  10   66.60    2.67
   0  -6  10   64.06    2.90
  -2   6  10   56.83    2.43
   2   6 -10   62.44    2.72
   2  -6  10   55.86    2.74
  -2  -6 -10   59.72    2.71
   2   6  10   59.54    2.63
   2  -6 -10   60.34    2.71
   2   6  10   58.63    2.45
  -2   6 -10   58.71    2.45
  -2  -6  10   58.94    2.72
  -1  -7 -10   87.23    3.73
   1  -7  10   88.47    3.76
  -1   7  10   87.23    3.50
  -1  -7  10   92.31    3.76
  -1   7 -10   80.47    3.40
   1   7  10   85.76    3.45
   1  -7 -10   84.25    3.69
   1   0  11  140.39    5.24
   1   0  11  136.65    5.18
   1   0 -11  142.62    5.25
  -1   0  11  138.24    5.26
  -1   0  11  138.34    5.15
  -1   0 -11  141.54    5.36
   1   0 -11  140.10    5.33
   3   0  11   75.75    2.93
  -3   0 -11   75.16    3.14
   3   0 -11   73.42    3.04
   3   0 -11   77.04    3.04
  -3   0  11   74.95    3.09
   5   0 -11   27.11    1.45
   0  -1  11   93.80    3.72
   0   1  11   93.08    3.59
   0   1 -11   90.62    3.76
   0  -1 -11   97.75    3.73
   0  -1 -11   89.98    3.66
   0   1  11  106.97    3.61
  -2  -1 -11   80.03    3.23
   2   1 -11   83.11    3.24
  -2   1  11   79.02    3.14
   2  -1  11   78.36    3.21
  -2   1  11   80.69    3.03
  -2   1 -11   76.49    3.00
   2   1  11   80.91    3.04
   2  -1 -11   77.31    3.12
  -2  -1  11   75.80    3.17
   2  -1 -11   77.23    3.16
  -2   1 -11   79.71    3.21
  -4   1  11   51.65    2.33
   4   1 -11   54.62    2.35
   4   1 -11   54.79    2.29
  -4  -1 -11   52.47    2.38
   4  -1 -11   48.60    2.29
  -4  -1  11   53.15    2.37
   4   1  11   53.35    2.14
  -1  -2 -11   64.02    2.71
  -1   2  11   69.74    2.61
  -1  -2 -11   66.72    2.65
  -1   2  11   67.87    2.60
   1   2 -11   61.24    2.77
   1  -2  11   65.47    2.79
  -1   2 -11   64.57    2.54
  -1  -2  11   65.74    2.77
  -1   2 -11   67.35    2.77
   1  -2 -11   73.20    2.82
   1   2  11   64.49    2.58
   1  -2 -11   66.62    2.66
  -3   2  11   55.57    2.36
  -3  -2 -11   53.48    2.43
   3  -2  11   58.44    2.54
   3   2 -11   54.91    2.46
  -3  -2 -11   54.32    2.25
  -3   2 -11   54.82    2.40
  -3  -2  11   54.77    2.42
   3  -2 -11   57.84    2.42
   3   2  11   53.63    2.23
  -3   2 -11   56.20    2.21
   5   2 -11   29.72    1.59
   0   3 -11  121.06    4.62
   0   3 -11  117.46    4.89
   0  -3 -11  128.16    4.90
   0   3  11  127.54    4.72
   0  -3  11  125.75    4.93
   0  -3 -11  128.12    4.79
   2   3 -11   96.73    3.90
  -2   3  11   96.10    3.65
  -2   3  11   93.28    3.67
   2  -3  11   96.34    3.93
  -2  -3 -11   95.16    3.72
  -2  -3 -11   89.62    3.78
  -2   3 -11   88.94    3.77
  -2  -3  11   95.60    3.86
   2  -3 -11   97.19    3.85
  -2   3 -11   92.96    3.60
   2   3  11   94.82    3.62
  -4   3  11   43.35    2.01
   4  -3  11   45.83    2.28
  -4  -3 -11   41.29    1.91
   4   3 -11   45.18    2.14
  -4   3 -11   43.35    1.84
  -4  -3  11   42.80    2.11
   4  -3 -11   43.97    2.06
   1  -4  11   74.00    3.27
  -1   4  11   76.04    3.04
  -1  -4 -11   76.24    3.12
  -1  -4 -11   77.00    3.20
   1   4 -11   79.08    3.27
  -1  -4  11   72.86    3.25
  -1   4 -11   75.32    2.97
   1  -4 -11   82.00    3.30
   1   4  11   77.32    3.04
  -1   4 -11   75.32    3.17
  -3   4  11   48.88    2.23
  -3  -4 -11   53.06    2.27
  -3  -4 -11   51.06    2.31
   3   4 -11   57.43    2.48
   3  -4  11   48.80    2.46
   3  -4 -11   49.42    2.33
   3   4  11   50.03    2.13
  -3  -4  11   54.49    2.44
  -3   4 -11   47.59    2.12
   0  -5  11   41.70    2.08
   0  -5 -11   44.19    2.05
   0   5 -11   42.65    1.78
   0   5 -11   44.04    2.03
   0   5  11   43.55    1.88
  -2  -5 -11   39.43    1.98
   2  -5  11   40.05    2.06
  -2  -5 -11   40.64    1.90
   2   5 -11   43.05    2.06
  -2   5  11   41.82    1.79
   2  -5 -11   42.83    2.05
  -2  -5  11   41.10    2.04
  -2   5 -11   40.69    1.78
   2   5  11   40.81    1.81
  -1   6  11   58.16    2.42
  -1  -6 -11   56.98    2.62
   1  -6  11   57.14    2.70
   1   6 -11   59.01    2.62
  -1  -6  11   57.77    2.69
  -1   6 -11   57.57    2.39
   1  -6 -11   59.87    2.64
   1   6  11   57.25    2.43
   0  -7  11   53.35    2.58
   0   0 -12    4.75    0.43
   0   0  12    4.38    0.32
   0   0  12    4.54    0.36
   2   0  12    5.52    0.40
   2   0 -12    6.21    0.51
  -2   0 -12    5.00    0.49
  -2   0  12    5.49    0.48
  -4   0 -12    7.36    0.69
   4   0 -12    6.26    0.66
  -4   0  12    5.98    0.62
   1  -1  12    1.51    0.27
  -1  -1 -12    1.36    0.30
   1   1 -12    1.61    0.34
  -1   1  12    2.05    0.25
  -1   1  12    1.33    0.24
   1   1  12    1.21    0.21
  -1   1 -12    1.42    0.30
   1  -1 -12    2.40    0.40
  -1  -1  12    1.31    0.20
  -1  -1  12    1.45    0.31
   1  -1 -12    1.57    0.27
   3   1 -12    2.82    0.43
  -3  -1 -12    3.12    0.46
  -3   1  12    2.41    0.38
  -3  -1  12    2.35    0.40
  -3   1 -12    2.32    0.40
   3  -1 -12    2.52    0.44
   3   1  12    3.09    0.34
   3  -1 -12    2.24    0.35
   0   2  12   29.67    1.28
   0  -2 -12   29.74    1.40
   0   2 -12   29.53    1.47
   0   2 -12   29.74    1.22
   0  -2  12   29.96    1.44
   0  -2 -12   30.06    1.38
   2  -2  12   19.95    1.12
  -2   2  12   19.88    0.95
  -2  -2 -12   19.95    0.95
  -2  -2 -12   19.54    1.09
   2   2 -12   20.86    1.15
  -2   2  12   19.72    1.01
   2  -2 -12   19.08    0.97
   2   2  12   18.80    0.93
   2  -2 -12   18.29    1.07
  -2   2 -12   18.59    1.07
  -2   2 -12   18.71    0.90
  -2  -2  12   19.91    1.08
  -4   2  12    5.28    0.59
  -4  -2 -12    6.80    0.67
   4   2 -12    6.32    0.66
   4  -2 -12    4.78    0.64
  -4   2 -12    5.90    0.48
   4   2  12    6.07    0.50
  -4  -2  12    5.74    0.65
  -1  -3 -12    2.88    0.39
   1   3 -12    2.48    0.45
   1  -3  12    3.08    0.44
   1   3 -12    2.82    0.26
  -1   3  12    3.21    0.34
  -1  -3 -12    3.05    0.38
  -1  -3  12    2.92    0.40
   1  -3 -12    3.28    0.46
  -1   3 -12    2.81    0.40
  -1   3 -12    3.17    0.30
   1   3  12    2.63    0.32
   3  -3  12    1.47    0.44
  -3  -3 -12    0.78    0.34
  -3   3  12    1.97    0.43
  -3  -3 -12    1.54    0.35
   3   3 -12    1.42    0.40
  -3   3 -12    1.70    0.30
  -3  -3  12    1.46    0.42
   3  -3 -12    1.83    0.45
   3   3  12    1.45    0.29
   0   4  12    8.44    0.57
   0  -4  12    8.10    0.70
   0   4 -12    8.05    0.49
   0   4 -12    7.61    0.69
   0  -4 -12    8.08    0.67
   0  -4 -12    8.54    0.60
  -2  -4 -12    7.22    0.65
  -2   4  12    8.92    0.58
   2  -4  12    8.61    0.76
   2   4 -12    7.09    0.75
  -2  -4 -12    7.25    0.65
  -2  -4  12    7.29    0.69
   2  -4 -12    9.12    0.75
   2   4  12    7.32    0.55
  -2   4 -12    8.10    0.55
  -4   4  12    5.24    0.59
  -4  -4 -12    4.42    0.58
   4  -4  12    5.00    0.70
  -1  -5 -12    1.91    0.44
  -1   5  12    1.52    0.31
  -1  -5 -12    1.93    0.40
   1  -5  12    1.53    0.44
   1   5 -12    1.62    0.46
  -1  -5  12    1.44    0.41
   1  -5 -12    1.27    0.39
  -1   5 -12    1.97    0.34
   1   5  12    1.23    0.30
   3   5 -12    0.73    0.39
   3  -5  12    0.26    0.36
  -3  -5 -12    0.20    0.33
   3   5  12    0.13    0.35
   3  -5 -12    0.36    0.26
  -3   5 -12    0.43    0.28
   3   5  12    0.36    0.25
  -3  -5  12    0.33    0.32
   0  -6 -12    3.31    0.50
   0   6 -12    3.62    0.40
   0  -6  12    3.07    0.49
   0   6  12    4.25    0.44
   2  -6  12    2.78    0.53
   2   6 -12    3.77    0.61
  -2   6  12    3.57    0.42
  -2  -6 -12    3.26    0.56
   2   6  12    3.76    0.44
  -2  -6  12    3.26    0.55
  -2   6 -12    3.18    0.45
   2   6  12    3.88    0.57
   1   0  13  176.62    6.66
  -1   0  13  176.76    6.70
   1   0  13  179.07    6.62
  -1   0  13  181.97    6.58
  -1   0 -13  179.11    6.82
   1   0 -13  179.51    6.79
   3   0 -13  143.02    5.29
  -3   0 -13  136.86    5.39
   3   0  13  130.70    5.14
  -3   0  13  135.10    5.30
   0   1 -13  332.81   12.85
   0  -1  13  350.18   12.78
   0   1  13  344.35   12.64
   0   1  13  364.68   12.66
   0  -1  13  343.59   12.61
   0  -1 -13  348.23   12.81
   2   1 -13  271.03   10.09
   2  -1  13  271.68   10.05
  -2   1  13  270.57    9.97
  -2  -1 -13  253.46   10.07
   2  -1 -13  284.63   10.03
  -2   1 -13  269.11   10.10
   2  -1 -13  277.60    9.99
   2   1  13  266.63    9.87
  -2  -1  13  259.85   10.02
  -4  -1 -13  133.85    5.52
  -4   1  13  138.60    5.46
   4   1 -13  134.82    5.44
   4  -1 -13  142.30    5.43
   4   1  13  143.62    5.26
  -4  -1  13  140.21    5.50
   1  -2  13  252.31    9.33
  -1  -2 -13  243.73    9.27
  -1   2  13  250.29    9.11
   1   2 -13  240.78    9.35
  -1   2 -13  241.30    9.05
  -1  -2  13  244.69    9.03
  -1   2 -13  243.24    9.33
   1   2  13  244.87    9.10
   1  -2 -13  260.39    9.35
  -1  -2  13  253.44    9.31
   1  -2 -13  251.23    9.21
   3  -2  13  143.06    5.79
  -3   2  13  148.07    5.65
  -3  -2 -13  142.12    5.75
   3   2 -13  155.75    5.81
   3   2  13  154.93    5.54
  -3   2 -13  135.69    5.72
  -3  -2  13  147.61    5.74
   3  -2 -13  149.31    5.71
  -3   2 -13  141.80    5.47
   0   3  13  211.04    7.81
   0  -3  13  209.94    8.03
   0  -3 -13  219.10    7.98
   0   3 -13  206.78    7.71
   0   3 -13  204.89    8.04
   0  -3 -13  210.34    7.89
   2   3 -13  195.38    7.34
  -2   3  13  186.24    7.04
  -2  -3 -13  190.61    7.12
   2  -3  13  185.33    7.31
  -2  -3 -13  185.13    7.22
  -2   3 -13  180.48    6.98
  -2  -3  13  190.49    7.27
   2   3  13  188.05    7.03
  -2   3 -13  189.61    7.25
   2  -3 -13  195.67    7.29
   4  -3  13  108.24    4.87
   4   3 -13  121.91    4.84
  -4   3  13  120.86    4.70
  -4  -3  13  117.29    4.86
   4  -3 -13  121.46    4.76
  -4   3 -13  118.34    4.52
   1  -4  13  150.16    5.99
  -1  -4 -13  146.31    5.87
  -1   4  13  155.18    5.75
   1   4 -13  150.42    5.97
  -1  -4 -13  149.14    5.83
  -1   4 -13  143.16    5.63
   1   4  13  150.19    5.73
  -1   4 -13  149.51    5.93
   1  -4 -13  165.25    6.00
  -1  -4  13  151.04    5.99
  -3  -4 -13  102.15    4.38
  -3  -4 -13  105.74    4.31
   3  -4  13  115.20    4.60
   3   4 -13  113.02    4.54
  -3  -4  13  111.90    4.53
   3   4  13  100.22    4.20
   3  -4 -13  113.30    4.47
  -3   4 -13  107.37    4.19
   0  -5  13  221.02    8.63
   0   5 -13  225.06    8.57
   0  -5 -13  233.15    8.57
   0   5 -13  213.25    8.22
   0   5  13  225.75    8.37
  -2  -5 -13  171.57    6.75
  -2  -5 -13  166.94    6.65
   2  -5  13  165.72    6.85
   2   5 -13  185.72    6.88
  -2   5  13  171.28    6.52
   2   5  13  176.80    6.57
  -2  -5  13  173.89    6.84
   2  -5 -13  182.30    6.84
  -2   5 -13  162.06    6.49
  -1   6  13   98.46    3.83
   1   6 -13  105.60    4.10
  -1  -6 -13  100.53    4.06
   1  -6  13   90.58    4.09
  -1  -6  13   95.29    4.12
   1   6  13   96.56    3.84
   1  -6 -13   99.31    4.05
  -1   6 -13   86.62    3.73
   0   0  14  178.63    6.66
   0   0 -14  183.85    6.82
   0   0  14  172.44    6.58
   2   0  14  134.61    5.02
  -2   0  14  131.88    5.11
   2   0 -14  134.73    5.18
  -2   0 -14  130.96    5.23
   4   0  14   65.77    2.53
  -4   0 -14   57.24    2.76
  -4   0  14   63.46    2.75
  -1   1  14   74.04    2.94
   1  -1  14   73.45    3.03
  -1   1  14   74.34    2.89
   1  -1  14   76.23    2.92
   1   1 -14   74.47    3.13
  -1  -1 -14   74.92    3.10
   1   1  14   75.09    2.91
  -1   1 -14   73.91    3.13
  -1  -1  14   75.79    3.04
  -1  -1  14   74.19    2.85
   1  -1 -14   75.77    3.06
  -3  -1 -14   59.21    2.59
  -3   1  14   54.26    2.46
   3  -1  14   49.48    2.32
   3   1 -14   63.03    2.56
  -3  -1  14   58.05    2.50
   3   1  14   59.46    2.34
  -3   1 -14   59.55    2.59
   0  -2 -14   97.31    3.78
   0  -2  14   93.98    3.81
   0   2  14   93.65    3.62
   0   2 -14   92.63    3.87
  -2  -2 -14   85.93    3.68
   2  -2  14   92.31    3.73
  -2   2  14   95.30    3.59
  -2   2  14   91.37    3.51
   2   2 -14   87.72    3.73
  -2   2 -14   89.10    3.45
   2  -2 -14   89.53    3.55
   2   2  14   88.30    3.49
   2  -2 -14   94.54    3.71
  -2   2 -14   89.20    3.72
  -2  -2  14   86.10    3.66
  -4   2  14   65.52    2.83
  -4  -2 -14   62.77    2.90
   4   2 -14   64.01    2.89
  -4  -2  14   65.12    2.91
   4   2  14   68.26    2.68
   4  -2 -14   69.08    2.89
  -1  -3 -14   94.73    3.93
   1   3 -14   93.10    4.04
  -1   3  14   99.46    3.81
   1  -3  14   98.41    4.03
  -1  -3  14   99.00    4.03
   1   3  14   94.37    3.77
   1  -3 -14   97.61    3.84
  -1   3 -14   97.15    4.03
  -1   3 -14   97.28    3.73
   1  -3 -14  106.06    4.05
   3  -3  14   61.22    2.76
   3   3 -14   61.51    2.75
  -3  -3 -14   57.46    2.67
   3   3  14   61.25    2.47
   3  -3 -14   62.30    2.70
  -3   3 -14   59.06    2.44
  -3  -3  14   59.21    2.71
   0   4 -14  107.42    4.12
   0  -4 -14  111.60    4.41
   0   4  14  107.74    4.24
   0   4 -14  108.35    4.48
   0  -4  14  110.06    4.48
   0  -4 -14  108.72    4.30
   2  -4  14   87.10    3.82
  -2  -4 -14   89.02    3.71
  -2  -4 -14   87.13    3.65
   2   4 -14   96.56    3.86
  -2   4  14   90.18    3.54
   2   4  14   90.56    3.55
  -2  -4  14   91.97    3.81
  -2   4 -14   83.64    3.48
   2  -4 -14   90.73    3.81
  -1   5  14   40.74    1.82
   1   5 -14   42.28    2.07
   1  -5  14   40.56    2.07
  -1  -5 -14   40.97    2.00
  -1  -5 -14   41.46    1.92
  -1   5 -14   40.45    1.75
  -1  -5  14   41.57    2.09
   1   5  14   41.29    1.85
   1  -5 -14   42.61    2.04
   0  -6 -14   90.11    3.81
   1   0  15    7.27    0.49
  -1   0 -15    8.03    0.63
   1   0 -15    7.35    0.60
  -1   0  15    7.13    0.45
  -1   0  15    7.08    0.52
  -3   0 -15    9.65    0.81
  -3   0  15   10.91    0.78
   3   0  15   10.40    0.65
   3   0 -15   10.02    0.74
   0   1 -15    2.57    0.40
   0  -1  15    2.99    0.36
   0  -1  15    2.92    0.30
   0   1  15    3.00    0.31
   0  -1 -15    3.09    0.40
   2  -1  15    3.33    0.37
  -2  -1 -15    3.33    0.46
   2   1 -15    2.86    0.45
   2  -1 -15    3.31    0.40
  -2   1 -15    3.17    0.47
   2   1  15    2.68    0.35
  -2  -1  15    2.94    0.41
   4   1 -15    1.31    0.37
  -4   1  15    1.84    0.45
  -4  -1 -15    1.31    0.41
   4   1  15    1.54    0.32
   1   2 -15   27.24    1.49
  -1   2  15   28.92    1.27
  -1  -2 -15   29.52    1.44
   1  -2  15   27.54    1.43
   1   2  15   29.01    1.27
  -1   2 -15   27.59    1.48
  -1  -2  15   28.00    1.42
   1  -2 -15   28.03    1.37
   3   2 -15   15.79    1.04
  -3   2  15   13.63    0.89
  -3  -2 -15   14.34    1.01
  -3  -2  15   15.70    1.00
   3   2  15   15.42    0.84
  -3   2 -15   14.77    1.03
   0   3 -15    0.72    0.31
   0  -3 -15    1.79    0.36
   0   3  15    0.54    0.22
   0  -3  15    0.93    0.32
   0   3 -15    1.13    0.23
   2   3 -15    0.47    0.34
   2  -3  15    1.34    0.39
  -2  -3 -15    1.25    0.37
  -2   3  15    0.67    0.23
   2  -3 -15    0.60    0.32
   2   3  15    0.59    0.23
  -2   3 -15    0.63    0.23
  -2   3 -15    1.72    0.42
   1   4 -15   14.84    1.03
  -1   4  15   12.88    0.78
   1  -4  15   12.56    0.92
  -1  -4 -15   11.39    0.84
  -1  -4  15   11.91    0.91
   1  -4 -15   13.24    0.93
  -1   4 -15   12.47    0.92
   1   4  15   12.44    0.76
  -1   4 -15   12.43    0.70
   3  -4  15   10.44    0.90
   3  -4 -15   11.57    0.91
   3   4  15    9.66    0.69
   0   5  15    5.55    0.51
   0   5 -15    5.79    0.46
   0  -5 -15    5.76    0.62
   0   5 -15    5.95    0.65
   0  -5  15    5.71    0.63
  -2   5  15    3.37    0.41
  -2  -5 -15    3.12    0.49
   2  -5 -15    2.19    0.48
   0   0  16   13.93    0.73
   0   0 -16   14.35    0.91
   2   0 -16   17.85    1.02
  -2   0  16   16.70    0.95
   2   0  16   15.97    0.86
  -2   0 -16   16.20    1.05
   1   1 -16   31.38    1.61
  -1   1  16   32.85    1.38
   1  -1  16   32.33    1.51
  -1  -1 -16   32.11    1.59
   1  -1  16   33.27    1.41
  -1  -1  16   30.21    1.34
   1   1  16   31.23    1.40
  -1   1 -16   32.23    1.64
   1  -1 -16   31.71    1.54
  -1  -1  16   31.56    1.51
  -3  -1 -16   21.08    1.29
   3  -1  16   22.81    1.11
  -3   1  16   22.73    1.21
   3   1 -16   21.41    1.25
   3   1  16   22.19    1.09
  -3   1 -16   22.17    1.32
  -3  -1  16   20.55    1.20
   0  -2  16   43.02    1.77
   0  -2 -16   43.82    1.96
   0   2 -16   42.28    2.05
   0  -2  16   42.21    1.97
   0   2  16   41.47    1.78
   2   2 -16   33.50    1.68
  -2  -2 -16   32.51    1.62
   2  -2  16   29.39    1.56
   2  -2 -16   27.94    1.51
   2   2  16   32.06    1.41
  -2  -2  16   32.09    1.59
  -2   2 -16   29.99    1.63
   1   3 -16   14.25    1.02
  -1   3  16   15.27    0.83
  -1  -3 -16   14.27    0.93
   1  -3  16   14.87    0.98
  -1  -3  16   15.35    0.98
  -1   3 -16   13.63    0.76
  -1   3 -16   13.68    0.98
   1   3  16   15.24    0.82
   1  -3 -16   14.46    0.86
   3   3  16   17.04    0.94
   0   4 -16   21.53    1.30
   0  -4  16   20.69    1.26
   0   4  16   20.92    1.09
   0   4 -16   20.48    0.99
   0  -4 -16   21.30    1.16
  -2  -4 -16   19.85    1.18
  -2   4  16   19.75    1.03
   2  -4  16   20.29    1.26
   2   4 -16   19.61    1.28
  -2   4 -16   18.68    0.99
   2   4  16   18.75    1.04
  -2  -4  16   20.70    1.25
   1   5 -16   33.12    1.77
  -1  -5 -16   32.23    1.63
   1  -5  16   29.36    1.82
  -1   5  16   31.42    1.54
  -1   5 -16   28.34    1.39
   1  -5 -16   34.04    1.69
  -1   0  17  292.18   10.82
   1   0  17  290.73   10.86
  -1   0  17  294.59   10.95
  -1   0 -17  301.89   11.15
   1   0 -17  301.51   11.12
   3   0 -17  176.16    6.99
   3   0  17  184.01    6.83
  -3   0 -17  182.22    7.16
  -3   0  17  185.58    6.98
   0  -1  17  158.49    6.02
   0  -1  17  153.34    5.86
   0  -1 -17  158.06    6.12
   0   1 -17  158.67    6.18
   0   1  17  157.01    5.88
   2   1 -17  135.47    5.44
  -2  -1 -17  139.51    5.47
   2  -1  17  135.58    5.20
   2   1  17  141.89    5.19
   2  -1 -17  132.14    5.31
  -2   1 -17  132.10    5.45
  -2  -1  17  137.83    5.33
  -1  -2 -17  197.57    7.76
   1   2 -17  197.86    7.84
   1  -2  17  211.32    7.56
   1  -2  17  204.86    7.74
  -1   2  17  207.66    7.56
   1   2  17  201.07    7.54
  -1  -2  17  203.45    7.73
   1  -2 -17  201.88    7.69
  -1   2 -17  198.18    7.85
   3   2 -17  152.84    6.03
  -3  -2  17  151.69    6.08
  -3   2 -17  143.19    6.03
   3   2  17  155.52    5.75
   0  -3  17  189.78    6.79
   0   3  17  180.19    6.82
   0  -3 -17  178.40    6.95
   0  -3  17  180.66    7.05
   0   3 -17  177.63    7.14
   2   3 -17  147.77    5.70
  -2  -3 -17  143.62    5.58
   2  -3  17  141.72    5.59
  -2   3 -17  136.84    5.28
  -2   3 -17  131.99    5.60
   2   3  17  139.96    5.33
  -2  -3  17  136.01    5.56
  -1  -4 -17  193.48    7.41
   1   4 -17  201.02    7.62
  -1   4  17  195.00    7.27
   1  -4  17  190.47    7.52
  -1   4 -17  190.54    7.54
  -1  -4  17  193.23    7.52
   1   4  17  194.30    7.26
  -1   4 -17  181.53    7.15
   0   5 -17   95.53    4.23
   0   0 -18   13.10    0.91
   0   0  18   13.90    0.75
  -2   0  18   14.97    0.91
   2   0  18   15.62    0.85
  -2   0 -18   14.88    1.03
   2   0 -18   15.11    0.98
   1   1 -18   15.15    1.03
   1  -1  18   15.33    0.84
  -1   1  18   15.96    0.82
  -1  -1 -18   15.32    1.00
   1  -1 -18   16.44    0.98
  -1  -1  18   16.51    0.94
   1   1  18   15.66    0.85
  -1   1 -18   15.48    1.05
  -3   1  18   13.49    0.94
   0   2 -18   35.92    1.86
   0  -2  18   35.55    1.74
   0  -2  18   37.08    1.57
   0   2  18   35.52    1.58
   0  -2 -18   35.58    1.74
   2  -2  18   27.39    1.32
   2   2 -18   27.65    1.55
  -2  -2 -18   27.57    1.52
  -2  -2  18   28.01    1.46
   2   2  18   27.44    1.30
  -2   2 -18   26.64    1.55
   1  -3  18    7.40    0.56
   1  -3  18    5.94    0.60
  -1   3  18    6.22    0.52
   1   3 -18    6.53    0.72
  -1  -3 -18    6.24    0.62
  -1  -3  18    6.55    0.64
  -1   3 -18    6.01    0.67
   1   3  18    6.14    0.52
   0   4 -18   19.68    1.28
   0  -4  18   18.60    1.21
  -1   0 -19    7.28    0.69
   1   0 -19    7.51    0.67
   1   0  19    8.20    0.57
   0  -1 -19    7.71    0.68
   0   1 -19    7.86    0.72
   0   1  19    8.12    0.56
   0  -1  19    7.73    0.54
  -2  -1 -19    6.09    0.75
   2   1 -19    6.40    0.67
   2   1  19    7.13    0.59
   2  -1 -19    7.09    0.62
  -2   1 -19    6.90    0.71
  -2  -1  19    6.52    0.62
  -1  -2 -19   21.67    1.28
   1   2 -19   22.99    1.37
   1  -2  19   23.17    1.12
  -1   2  19   22.17    1.10
  -1   2 -19   22.29    1.38
   1   2  19   22.36    1.11
   1  -2 -19   21.24    1.20
  -1  -2  19   22.22    1.24
   0  -3  19    2.47    0.53
   0   3  19    2.86    0.42
   0   3 -19    2.23    0.55
   0  -3 -19    2.68    0.50
   0   0  20  107.11    4.07
   0   0 -20  103.05    4.35
   1  -1  20   41.40    1.80
   1   1  20   42.02    1.88
   1  -1 -20   39.97    1.96
   0   2  20   59.86    2.46
   0  -2 -20   59.20    2.63
   0  -2  20   59.16    2.42
   0   0   0    0.00    0.00
;
_shelx_hkl_checksum              65815
loop_
_space_group_symop_operation_xyz
'x, y, z'
'-x, -y, z'
'-x, y, -z'
'x, -y, -z'
'x+1/2, y+1/2, z+1/2'
'-x+1/2, -y+1/2, z+1/2'
'-x+1/2, y+1/2, -z+1/2'
'x+1/2, -y+1/2, -z+1/2'
'-x, -y, -z'
'x, y, -z'
'x, -y, z'
'-x, y, z'
'-x+1/2, -y+1/2, -z+1/2'
'x+1/2, y+1/2, -z+1/2'
'x+1/2, -y+1/2, z+1/2'
'-x+1/2, y+1/2, z+1/2'
loop_
_atom_site_label
_atom_site_type_symbol
_atom_site_fract_x
_atom_site_fract_y
_atom_site_fract_z
_atom_site_U_iso_or_equiv
_atom_site_adp_type
_atom_site_occupancy
_atom_site_site_symmetry_order
_atom_site_calc_flag
_atom_site_refinement_flags_posn
_atom_site_refinement_flags_adp
_atom_site_refinement_flags_occupancy
Th1 Th 0.0000 0.0000 0.35260(2) 0.00652(13) Uani 1 4 d S T P
Cu1 Cu 0.0000 0.0000 0.11803(9) 0.0089(2) Uani 1 4 d S T P
P1 P 0.0655(8) 0.3044(6) 0.0000 0.0078(9) Uani 0.5 2 d S T P
P2 P 0.5000 0.0000 0.20339(18) 0.0077(4) Uani 1 4 d S T P
loop_
_atom_site_aniso_label
_atom_site_aniso_U_11
_atom_site_aniso_U_22
_atom_site_aniso_U_33
_atom_site_aniso_U_23
_atom_site_aniso_U_13
_atom_site_aniso_U_12
Th1 0.00888(19) 0.00512(17) 0.00556(18) 0.000 0.000 0.000
Cu1 0.0104(6) 0.0090(5) 0.0073(5) 0.000 0.000 0.000
P1 0.011(3) 0.0057(11) 0.0071(11) 0.000 0.000 -0.0020(10)
P2 0.0104(11) 0.0053(9) 0.0074(10) 0.000 0.000 0.000
loop_
_atom_type_symbol
_atom_type_description
_atom_type_scat_dispersion_real
_atom_type_scat_dispersion_imag
_atom_type_scat_source
P P 0.1023 0.0942 'International Tables Vol C Tables 4.2.6.8 and 6.1.1.4'
Cu Cu 0.3201 1.2651 'International Tables Vol C Tables 4.2.6.8 and 6.1.1.4'
Th Th -7.2400 8.8979 'International Tables Vol C Tables 4.2.6.8 and 6.1.1.4'
loop_
_geom_angle_atom_site_label_1
_geom_angle_atom_site_label_2
_geom_angle_atom_site_label_3
_geom_angle
_geom_angle_site_symmetry_1
_geom_angle_site_symmetry_3
P2 Th1 P2 88.44(7) 1_455 .
P2 Th1 P1 157.57(7) 1_455 13
P2 Th1 P1 94.83(6) . 13
P2 Th1 P1 157.57(7) 1_455 7_545
P2 Th1 P1 94.83(6) . 7_545
P1 Th1 P1 44.29(13) 13 7_545
P2 Th1 P1 94.83(6) 1_455 15_455
P2 Th1 P1 157.57(7) . 15_455
P1 Th1 P1 74.08(11) 13 15_455
P1 Th1 P1 90.57(9) 7_545 15_455
P2 Th1 P1 94.83(6) 1_455 5_445
P2 Th1 P1 157.57(7) . 5_445
P1 Th1 P1 90.57(9) 13 5_445
P1 Th1 P1 74.08(11) 7_545 5_445
P1 Th1 P1 44.29(13) 15_455 5_445
P2 Th1 P2 78.96(3) 1_455 13_545
P2 Th1 P2 78.96(3) . 13_545
P1 Th1 P2 123.45(7) 13 13_545
P1 Th1 P2 79.91(7) 7_545 13_545
P1 Th1 P2 123.45(7) 15_455 13_545
P1 Th1 P2 79.91(7) 5_445 13_545
P2 Th1 P2 78.96(3) 1_455 13
P2 Th1 P2 78.96(3) . 13
P1 Th1 P2 79.91(7) 13 13
P1 Th1 P2 123.45(7) 7_545 13
P1 Th1 P2 79.91(7) 15_455 13
P1 Th1 P2 123.45(7) 5_445 13
P2 Th1 P2 149.00(10) 13_545 13
P2 Th1 P1 159.95(6) 1_455 15
P2 Th1 P1 87.82(5) . 15
P1 Th1 P1 7.44(9) 13 15
P1 Th1 P1 42.48(12) 7_545 15
P1 Th1 P1 81.52(5) 15_455 15
P1 Th1 P1 96.12(5) 5_445 15
P2 Th1 P1 119.52(7) 13_545 15
P2 Th1 P1 80.99(7) 13 15
P2 Th1 P1 159.95(6) 1_455 5_545
P2 Th1 P1 87.82(5) . 5_545
P1 Th1 P1 42.48(12) 13 5_545
P1 Th1 P1 7.44(9) 7_545 5_545
P1 Th1 P1 96.12(5) 15_455 5_545
P1 Th1 P1 81.52(4) 5_445 5_545
P2 Th1 P1 80.99(7) 13_545 5_545
P2 Th1 P1 119.52(7) 13 5_545
P1 Th1 P1 39.38(12) 15 5_545
P2 Th1 P1 87.82(5) 1_455 7_445
P2 Th1 P1 159.95(6) . 7_445
P1 Th1 P1 96.12(5) 13 7_445
P1 Th1 P1 81.52(4) 7_545 7_445
P1 Th1 P1 42.48(12) 15_455 7_445
P1 Th1 P1 7.44(9) 5_445 7_445
P2 Th1 P1 80.99(7) 13_545 7_445
P2 Th1 P1 119.52(7) 13 7_445
P1 Th1 P1 102.06(8) 15 7_445
P1 Th1 P1 88.96(9) 5_545 7_445
P2 Th1 P1 87.82(5) 1_455 13_455
P2 Th1 P1 159.95(6) . 13_455
P1 Th1 P1 81.52(4) 13 13_455
P1 Th1 P1 96.12(5) 7_545 13_455
P1 Th1 P1 7.44(9) 15_455 13_455
P1 Th1 P1 42.48(12) 5_445 13_455
P2 Th1 P1 119.52(7) 13_545 13_455
P2 Th1 P1 80.99(7) 13 13_455
P1 Th1 P1 88.96(9) 15 13_455
P1 Th1 P1 102.06(8) 5_545 13_455
P1 Th1 P1 39.38(12) 7_445 13_455
P2 Th1 Cu1 44.22(4) 1_455 .
P2 Th1 Cu1 44.22(4) . .
P1 Th1 Cu1 134.72(5) 13 .
P1 Th1 Cu1 134.72(5) 7_545 .
P1 Th1 Cu1 134.72(5) 15_455 .
P1 Th1 Cu1 134.72(5) 5_445 .
P2 Th1 Cu1 74.50(5) 13_545 .
P2 Th1 Cu1 74.50(5) 13 .
P1 Th1 Cu1 128.97(4) 15 .
P1 Th1 Cu1 128.97(4) 5_545 .
P1 Th1 Cu1 128.97(4) 7_445 .
P1 Th1 Cu1 128.97(4) 13_455 .
P2 Th1 Cu1 119.24(2) 1_455 13
P2 Th1 Cu1 71.32(3) . 13
P1 Th1 Cu1 42.63(6) 13 13
P1 Th1 Cu1 82.65(7) 7_545 13
P1 Th1 Cu1 87.87(7) 15_455 13
P1 Th1 Cu1 124.80(6) 5_445 13
P2 Th1 Cu1 143.929(14) 13_545 13
P2 Th1 Cu1 41.79(3) 13 13
P1 Th1 Cu1 41.26(5) 15 13
P1 Th1 Cu1 77.97(6) 5_545 13
P1 Th1 Cu1 127.17(5) 7_445 13
P1 Th1 Cu1 93.49(6) 13_455 13
Cu1 Th1 Cu1 96.74(2) . 13
P2 Th1 Cu1 71.32(3) 1_455 13_445
P2 Th1 Cu1 119.24(2) . 13_445
P1 Th1 Cu1 124.80(6) 13 13_445
P1 Th1 Cu1 87.87(7) 7_545 13_445
P1 Th1 Cu1 82.65(7) 15_455 13_445
P1 Th1 Cu1 42.63(6) 5_445 13_445
P2 Th1 Cu1 41.79(3) 13_545 13_445
P2 Th1 Cu1 143.929(14) 13 13_445
P1 Th1 Cu1 127.17(5) 15 13_445
P1 Th1 Cu1 93.49(6) 5_545 13_445
P1 Th1 Cu1 41.26(5) 7_445 13_445
P1 Th1 Cu1 77.97(6) 13_455 13_445
Cu1 Th1 Cu1 96.74(2) . 13_445
Cu1 Th1 Cu1 166.53(4) 13 13_445
P2 Th1 Cu1 71.32(3) 1_455 13_455
P2 Th1 Cu1 119.24(2) . 13_455
P1 Th1 Cu1 87.87(7) 13 13_455
P1 Th1 Cu1 124.80(6) 7_545 13_455
P1 Th1 Cu1 42.63(6) 15_455 13_455
P1 Th1 Cu1 82.65(7) 5_445 13_455
P2 Th1 Cu1 143.929(14) 13_545 13_455
P2 Th1 Cu1 41.79(3) 13 13_455
P1 Th1 Cu1 93.49(6) 15 13_455
P1 Th1 Cu1 127.17(5) 5_545 13_455
P1 Th1 Cu1 77.97(6) 7_445 13_455
P1 Th1 Cu1 41.26(5) 13_455 13_455
Cu1 Th1 Cu1 96.74(2) . 13_455
Cu1 Th1 Cu1 70.875(18) 13 13_455
Cu1 Th1 Cu1 107.464(19) 13_445 13_455
P2 Th1 Cu1 119.24(2) 1_455 13_545
P2 Th1 Cu1 71.32(3) . 13_545
P1 Th1 Cu1 82.65(7) 13 13_545
P1 Th1 Cu1 42.63(6) 7_545 13_545
P1 Th1 Cu1 124.80(6) 15_455 13_545
P1 Th1 Cu1 87.87(7) 5_445 13_545
P2 Th1 Cu1 41.79(3) 13_545 13_545
P2 Th1 Cu1 143.929(14) 13 13_545
P1 Th1 Cu1 77.97(6) 15 13_545
P1 Th1 Cu1 41.26(5) 5_545 13_545
P1 Th1 Cu1 93.49(6) 7_445 13_545
P1 Th1 Cu1 127.17(5) 13_455 13_545
Cu1 Th1 Cu1 96.74(2) . 13_545
Cu1 Th1 Cu1 107.464(19) 13 13_545
Cu1 Th1 Cu1 70.875(18) 13_445 13_545
Cu1 Th1 Cu1 166.53(4) 13_455 13_545
P2 Th1 Th1 134.22(4) 1_455 1_655
P2 Th1 Th1 45.78(4) . 1_655
P1 Th1 Th1 52.96(5) 13 1_655
P1 Th1 Th1 52.96(6) 7_545 1_655
P1 Th1 Th1 127.04(6) 15_455 1_655
P1 Th1 Th1 127.04(6) 5_445 1_655
P2 Th1 Th1 90.0 13_545 1_655
P2 Th1 Th1 90.0 13 1_655
P1 Th1 Th1 45.52(5) 15 1_655
P1 Th1 Th1 45.52(5) 5_545 1_655
P1 Th1 Th1 134.48(5) 7_445 1_655
P1 Th1 Th1 134.48(5) 13_455 1_655
Cu1 Th1 Th1 90.0 . 1_655
Cu1 Th1 Th1 54.562(9) 13 1_655
Cu1 Th1 Th1 125.438(9) 13_445 1_655
Cu1 Th1 Th1 125.438(9) 13_455 1_655
Cu1 Th1 Th1 54.562(9) 13_545 1_655
P2 Th1 Th1 45.78(4) 1_455 1_455
P2 Th1 Th1 134.22(4) . 1_455
P1 Th1 Th1 127.04(5) 13 1_455
P1 Th1 Th1 127.04(6) 7_545 1_455
P1 Th1 Th1 52.96(6) 15_455 1_455
P1 Th1 Th1 52.96(6) 5_445 1_455
P2 Th1 Th1 90.0 13_545 1_455
P2 Th1 Th1 90.0 13 1_455
P1 Th1 Th1 134.48(5) 15 1_455
P1 Th1 Th1 134.48(5) 5_545 1_455
P1 Th1 Th1 45.52(5) 7_445 1_455
P1 Th1 Th1 45.52(5) 13_455 1_455
Cu1 Th1 Th1 90.0 . 1_455
Cu1 Th1 Th1 125.438(9) 13 1_455
Cu1 Th1 Th1 54.562(9) 13_445 1_455
Cu1 Th1 Th1 54.562(9) 13_455 1_455
Cu1 Th1 Th1 125.438(9) 13_545 1_455
Th1 Th1 Th1 180.0 1_655 1_455
P2 Th1 Th1 135.78(4) 1_455 9_556
P2 Th1 Th1 135.78(4) . 9_556
P1 Th1 Th1 45.28(5) 13 9_556
P1 Th1 Th1 45.28(5) 7_545 9_556
P1 Th1 Th1 45.28(5) 15_455 9_556
P1 Th1 Th1 45.28(5) 5_445 9_556
P2 Th1 Th1 105.50(5) 13_545 9_556
P2 Th1 Th1 105.50(5) 13 9_556
P1 Th1 Th1 51.03(4) 15 9_556
P1 Th1 Th1 51.03(4) 5_545 9_556
P1 Th1 Th1 51.03(4) 7_445 9_556
P1 Th1 Th1 51.03(4) 13_455 9_556
Cu1 Th1 Th1 180.0 . 9_556
Cu1 Th1 Th1 83.26(2) 13 9_556
Cu1 Th1 Th1 83.26(2) 13_445 9_556
Cu1 Th1 Th1 83.26(2) 13_455 9_556
Cu1 Th1 Th1 83.26(2) 13_545 9_556
Th1 Th1 Th1 90.0 1_655 9_556
Th1 Th1 Th1 90.0 1_455 9_556
P2 Th1 Th1 39.631(11) 1_455 13_445
P2 Th1 Th1 81.84(3) . 13_445
P1 Th1 Th1 162.77(7) 13 13_445
P1 Th1 Th1 118.88(7) 7_545 13_445
P1 Th1 Th1 114.37(6) 15_455 13_445
P1 Th1 Th1 86.59(5) 5_445 13_445
P2 Th1 Th1 39.33(3) 13_545 13_445
P2 Th1 Th1 115.68(5) 13 13_445
P1 Th1 Th1 157.94(6) 15 13_445
P1 Th1 Th1 120.32(6) 5_545 13_445
P1 Th1 Th1 82.74(4) 7_445 13_445
P1 Th1 Th1 107.20(5) 13_455 13_445
Cu1 Th1 Th1 50.476(11) . 13_445
Cu1 Th1 Th1 147.21(2) 13 13_445
Cu1 Th1 Th1 46.26(2) 13_445 13_445
Cu1 Th1 Th1 108.57(2) 13_455 13_445
Cu1 Th1 Th1 80.26(2) 13_545 13_445
Th1 Th1 Th1 116.767(8) 1_655 13_445
Th1 Th1 Th1 63.234(8) 1_455 13_445
Th1 Th1 Th1 129.524(10) 9_556 13_445
P2 Th1 Th1 81.84(3) 1_455 13_545
P2 Th1 Th1 39.631(11) . 13_545
P1 Th1 Th1 114.37(6) 13 13_545
P1 Th1 Th1 86.59(5) 7_545 13_545
P1 Th1 Th1 162.77(7) 15_455 13_545
P1 Th1 Th1 118.88(7) 5_445 13_545
P2 Th1 Th1 39.33(3) 13_545 13_545
P2 Th1 Th1 115.68(5) 13 13_545
P1 Th1 Th1 107.20(5) 15 13_545
P1 Th1 Th1 82.74(4) 5_545 13_545
P1 Th1 Th1 120.32(6) 7_445 13_545
P1 Th1 Th1 157.94(6) 13_455 13_545
Cu1 Th1 Th1 50.476(11) . 13_545
Cu1 Th1 Th1 108.568(19) 13 13_545
Cu1 Th1 Th1 80.26(2) 13_445 13_545
Cu1 Th1 Th1 147.21(2) 13_455 13_545
Cu1 Th1 Th1 46.26(2) 13_545 13_545
Th1 Th1 Th1 63.234(7) 1_655 13_545
Th1 Th1 Th1 116.766(7) 1_455 13_545
Th1 Th1 Th1 129.524(10) 9_556 13_545
Th1 Th1 Th1 53.532(15) 13_445 13_545
P2 Th1 Th1 81.84(3) 1_455 13
P2 Th1 Th1 39.631(11) . 13
P1 Th1 Th1 86.59(5) 13 13
P1 Th1 Th1 114.37(6) 7_545 13
P1 Th1 Th1 118.88(6) 15_455 13
P1 Th1 Th1 162.77(7) 5_445 13
P2 Th1 Th1 115.68(5) 13_545 13
P2 Th1 Th1 39.33(3) 13 13
P1 Th1 Th1 82.74(4) 15 13
P1 Th1 Th1 107.20(5) 5_545 13
P1 Th1 Th1 157.94(6) 7_445 13
P1 Th1 Th1 120.32(6) 13_455 13
Cu1 Th1 Th1 50.476(10) . 13
Cu1 Th1 Th1 46.26(2) 13 13
Cu1 Th1 Th1 147.21(2) 13_445 13
Cu1 Th1 Th1 80.26(2) 13_455 13
Cu1 Th1 Th1 108.568(19) 13_545 13
Th1 Th1 Th1 63.234(8) 1_655 13
Th1 Th1 Th1 116.767(7) 1_455 13
Th1 Th1 Th1 129.524(10) 9_556 13
Th1 Th1 Th1 100.95(2) 13_445 13
Th1 Th1 Th1 77.546(19) 13_545 13
P2 Th1 Th1 39.631(11) 1_455 13_455
P2 Th1 Th1 81.84(3) . 13_455
P1 Th1 Th1 118.88(6) 13 13_455
P1 Th1 Th1 162.77(7) 7_545 13_455
P1 Th1 Th1 86.59(5) 15_455 13_455
P1 Th1 Th1 114.37(6) 5_445 13_455
P2 Th1 Th1 115.68(5) 13_545 13_455
P2 Th1 Th1 39.33(3) 13 13_455
P1 Th1 Th1 120.32(6) 15 13_455
P1 Th1 Th1 157.94(6) 5_545 13_455
P1 Th1 Th1 107.20(5) 7_445 13_455
P1 Th1 Th1 82.74(4) 13_455 13_455
Cu1 Th1 Th1 50.476(10) . 13_455
Cu1 Th1 Th1 80.26(2) 13 13_455
Cu1 Th1 Th1 108.57(2) 13_445 13_455
Cu1 Th1 Th1 46.26(2) 13_455 13_455
Cu1 Th1 Th1 147.21(2) 13_545 13_455
Th1 Th1 Th1 116.767(7) 1_655 13_455
Th1 Th1 Th1 63.234(8) 1_455 13_455
Th1 Th1 Th1 129.524(10) 9_556 13_455
Th1 Th1 Th1 77.546(19) 13_445 13_455
Th1 Th1 Th1 100.95(2) 13_545 13_455
Th1 Th1 Th1 53.532(15) 13 13_455
P2 Th1 P2 47.34(5) 1_455 13_445
P2 Th1 P2 116.971(15) . 13_445
P1 Th1 P2 144.20(5) 13 13_445
P1 Th1 P2 112.70(7) 7_545 13_445
P1 Th1 P2 80.45(7) 15_455 13_445
P1 Th1 P2 53.77(5) 5_445 13_445
P2 Th1 P2 54.189(11) 13_545 13_445
P2 Th1 P2 120.10(3) 13 13_445
P1 Th1 P2 148.93(5) 15 13_445
P1 Th1 P2 118.46(6) 5_545 13_445
P1 Th1 P2 48.71(5) 7_445 13_445
P1 Th1 P2 73.75(6) 13_455 13_445
Cu1 Th1 P2 81.01(3) . 13_445
Cu1 Th1 P2 160.586(4) 13 13_445
Cu1 Th1 P2 24.98(2) 13_445 13_445
Cu1 Th1 P2 90.157(19) 13_455 13_445
Cu1 Th1 P2 91.945(19) 13_545 13_445
Th1 Th1 P2 144.189(11) 1_655 13_445
Th1 Th1 P2 35.811(11) 1_455 13_445
Th1 Th1 P2 98.99(3) 9_556 13_445
Th1 Th1 P2 35.13(3) 13_445 13_445
Th1 Th1 P2 84.99(2) 13_545 13_445
Th1 Th1 P2 128.23(3) 13 13_445
Th1 Th1 P2 83.59(2) 13_455 13_445
P2 Th1 P2 116.972(15) 1_455 13_655
P2 Th1 P2 47.34(5) . 13_655
P1 Th1 P2 53.77(5) 13 13_655
P1 Th1 P2 80.45(7) 7_545 13_655
P1 Th1 P2 112.70(7) 15_455 13_655
P1 Th1 P2 144.20(5) 5_445 13_655
P2 Th1 P2 120.10(3) 13_545 13_655
P2 Th1 P2 54.189(11) 13 13_655
P1 Th1 P2 48.71(5) 15 13_655
P1 Th1 P2 73.75(6) 5_545 13_655
P1 Th1 P2 148.93(5) 7_445 13_655
P1 Th1 P2 118.46(6) 13_455 13_655
Cu1 Th1 P2 81.01(3) . 13_655
Cu1 Th1 P2 24.98(2) 13 13_655
Cu1 Th1 P2 160.586(4) 13_445 13_655
Cu1 Th1 P2 91.945(19) 13_455 13_655
Cu1 Th1 P2 90.157(19) 13_545 13_655
Th1 Th1 P2 35.811(11) 1_655 13_655
Th1 Th1 P2 144.189(11) 1_455 13_655
Th1 Th1 P2 98.99(3) 9_556 13_655
Th1 Th1 P2 128.23(3) 13_445 13_655
Th1 Th1 P2 83.59(2) 13_545 13_655
Th1 Th1 P2 35.13(3) 13 13_655
Th1 Th1 P2 84.99(2) 13_455 13_655
P2 Th1 P2 162.01(6) 13_445 13_655
P2 Th1 P2 47.34(5) 1_455 13_455
P2 Th1 P2 116.971(14) . 13_455
P1 Th1 P2 112.70(7) 13 13_455
P1 Th1 P2 144.20(5) 7_545 13_455
P1 Th1 P2 53.77(5) 15_455 13_455
P1 Th1 P2 80.45(7) 5_445 13_455
P2 Th1 P2 120.10(3) 13_545 13_455
P2 Th1 P2 54.189(11) 13 13_455
P1 Th1 P2 118.46(6) 15 13_455
P1 Th1 P2 148.93(5) 5_545 13_455
P1 Th1 P2 73.75(6) 7_445 13_455
P1 Th1 P2 48.71(5) 13_455 13_455
Cu1 Th1 P2 81.01(3) . 13_455
Cu1 Th1 P2 91.945(19) 13 13_455
Cu1 Th1 P2 90.157(19) 13_445 13_455
Cu1 Th1 P2 24.98(2) 13_455 13_455
Cu1 Th1 P2 160.586(4) 13_545 13_455
Th1 Th1 P2 144.189(11) 1_655 13_455
Th1 Th1 P2 35.811(11) 1_455 13_455
Th1 Th1 P2 98.99(3) 9_556 13_455
Th1 Th1 P2 83.59(2) 13_445 13_455
Th1 Th1 P2 128.23(3) 13_545 13_455
Th1 Th1 P2 84.99(2) 13 13_455
Th1 Th1 P2 35.13(3) 13_455 13_455
P2 Th1 P2 68.643(19) 13_445 13_455
P2 Th1 P2 108.38(2) 13_655 13_455
P2 Th1 P2 116.971(14) 1_455 13_645
P2 Th1 P2 47.34(5) . 13_645
P1 Th1 P2 80.45(7) 13 13_645
P1 Th1 P2 53.77(5) 7_545 13_645
P1 Th1 P2 144.20(5) 15_455 13_645
P1 Th1 P2 112.70(7) 5_445 13_645
P2 Th1 P2 54.189(11) 13_545 13_645
P2 Th1 P2 120.10(3) 13 13_645
P1 Th1 P2 73.75(6) 15 13_645
P1 Th1 P2 48.71(5) 5_545 13_645
P1 Th1 P2 118.46(6) 7_445 13_645
P1 Th1 P2 148.93(5) 13_455 13_645
Cu1 Th1 P2 81.01(3) . 13_645
Cu1 Th1 P2 90.157(19) 13 13_645
Cu1 Th1 P2 91.945(19) 13_445 13_645
Cu1 Th1 P2 160.586(4) 13_455 13_645
Cu1 Th1 P2 24.98(2) 13_545 13_645
Th1 Th1 P2 35.811(11) 1_655 13_645
Th1 Th1 P2 144.189(11) 1_455 13_645
Th1 Th1 P2 98.99(3) 9_556 13_645
Th1 Th1 P2 84.99(2) 13_445 13_645
Th1 Th1 P2 35.13(3) 13_545 13_645
Th1 Th1 P2 83.59(2) 13 13_645
Th1 Th1 P2 128.23(3) 13_455 13_645
P2 Th1 P2 108.38(2) 13_445 13_645
P2 Th1 P2 68.643(19) 13_655 13_645
P2 Th1 P2 162.01(6) 13_455 13_645
P2 Th1 Cu1 143.261(16) 1_455 5
P2 Th1 Cu1 104.15(3) . 5
P1 Th1 Cu1 15.60(6) 13 5
P1 Th1 Cu1 57.00(6) 7_545 5
P1 Th1 Cu1 61.17(6) 15_455 5
P1 Th1 Cu1 86.35(5) 5_445 5
P2 Th1 Cu1 136.88(4) 13_545 5
P2 Th1 Cu1 70.13(5) 13 5
P1 Th1 Cu1 22.23(5) 15 5
P1 Th1 Cu1 56.52(5) 5_545 5
P1 Th1 Cu1 90.45(5) 7_445 5
P1 Th1 Cu1 68.51(5) 13_455 5
Cu1 Th1 Cu1 136.863(13) . 5
Cu1 Th1 Cu1 40.13(3) 13 5
Cu1 Th1 Cu1 126.401(17) 13_445 5
Cu1 Th1 Cu1 72.44(2) 13_455 5
Cu1 Th1 Cu1 97.499(19) 13_545 5
Th1 Th1 Cu1 66.471(8) 1_655 5
Th1 Th1 Cu1 113.528(8) 1_455 5
Th1 Th1 Cu1 43.137(13) 9_556 5
Th1 Th1 Cu1 172.662(13) 13_445 5
Th1 Th1 Cu1 129.216(14) 13_545 5
Th1 Th1 Cu1 86.39(2) 13 5
Th1 Th1 Cu1 107.250(18) 13_455 5
P2 Th1 Cu1 138.66(3) 13_445 5
P2 Th1 Cu1 58.49(3) 13_655 5
P2 Th1 Cu1 97.17(2) 13_455 5
P2 Th1 Cu1 95.93(3) 13_645 5
P2 Th1 Cu1 104.15(3) 1_455 5_455
P2 Th1 Cu1 143.261(15) . 5_455
P1 Th1 Cu1 61.17(6) 13 5_455
P1 Th1 Cu1 86.35(5) 7_545 5_455
P1 Th1 Cu1 15.60(7) 15_455 5_455
P1 Th1 Cu1 57.00(6) 5_445 5_455
P2 Th1 Cu1 136.88(4) 13_545 5_455
P2 Th1 Cu1 70.13(5) 13 5_455
P1 Th1 Cu1 68.51(5) 15 5_455
P1 Th1 Cu1 90.45(4) 5_545 5_455
P1 Th1 Cu1 56.52(6) 7_445 5_455
P1 Th1 Cu1 22.23(5) 13_455 5_455
Cu1 Th1 Cu1 136.863(13) . 5_455
Cu1 Th1 Cu1 72.44(2) 13 5_455
Cu1 Th1 Cu1 97.499(19) 13_445 5_455
Cu1 Th1 Cu1 40.13(3) 13_455 5_455
Cu1 Th1 Cu1 126.401(17) 13_545 5_455
Th1 Th1 Cu1 113.528(8) 1_655 5_455
Th1 Th1 Cu1 66.471(8) 1_455 5_455
Th1 Th1 Cu1 43.137(13) 9_556 5_455
Th1 Th1 Cu1 129.216(14) 13_445 5_455
Th1 Th1 Cu1 172.662(13) 13_545 5_455
Th1 Th1 Cu1 107.250(18) 13 5_455
Th1 Th1 Cu1 86.39(2) 13_455 5_455
P2 Th1 Cu1 95.93(2) 13_445 5_455
P2 Th1 Cu1 97.17(2) 13_655 5_455
P2 Th1 Cu1 58.49(3) 13_455 5_455
P2 Th1 Cu1 138.66(3) 13_645 5_455
Cu1 Th1 Cu1 47.057(16) 5 5_455
P2 Th1 Cu1 143.261(15) 1_455 5_545
P2 Th1 Cu1 104.15(3) . 5_545
P1 Th1 Cu1 57.00(6) 13 5_545
P1 Th1 Cu1 15.60(7) 7_545 5_545
P1 Th1 Cu1 86.35(5) 15_455 5_545
P1 Th1 Cu1 61.17(6) 5_445 5_545
P2 Th1 Cu1 70.13(5) 13_545 5_545
P2 Th1 Cu1 136.88(4) 13 5_545
P1 Th1 Cu1 56.52(6) 15 5_545
P1 Th1 Cu1 22.23(5) 5_545 5_545
P1 Th1 Cu1 68.51(5) 7_445 5_545
P1 Th1 Cu1 90.45(4) 13_455 5_545
Cu1 Th1 Cu1 136.863(13) . 5_545
Cu1 Th1 Cu1 97.499(19) 13 5_545
Cu1 Th1 Cu1 72.44(2) 13_445 5_545
Cu1 Th1 Cu1 126.401(17) 13_455 5_545
Cu1 Th1 Cu1 40.13(3) 13_545 5_545
Th1 Th1 Cu1 66.471(8) 1_655 5_545
Th1 Th1 Cu1 113.528(8) 1_455 5_545
Th1 Th1 Cu1 43.137(13) 9_556 5_545
Th1 Th1 Cu1 107.250(17) 13_445 5_545
Th1 Th1 Cu1 86.39(2) 13_545 5_545
Th1 Th1 Cu1 129.216(14) 13 5_545
Th1 Th1 Cu1 172.662(13) 13_455 5_545
P2 Th1 Cu1 97.17(2) 13_445 5_545
P2 Th1 Cu1 95.93(3) 13_655 5_545
P2 Th1 Cu1 138.66(3) 13_455 5_545
P2 Th1 Cu1 58.49(3) 13_645 5_545
Cu1 Th1 Cu1 67.44(2) 5 5_545
Cu1 Th1 Cu1 86.27(3) 5_455 5_545
P2 Th1 Cu1 104.15(3) 1_455 5_445
P2 Th1 Cu1 143.261(15) . 5_445
P1 Th1 Cu1 86.35(5) 13 5_445
P1 Th1 Cu1 61.17(6) 7_545 5_445
P1 Th1 Cu1 57.00(6) 15_455 5_445
P1 Th1 Cu1 15.60(6) 5_445 5_445
P2 Th1 Cu1 70.13(5) 13_545 5_445
P2 Th1 Cu1 136.88(4) 13 5_445
P1 Th1 Cu1 90.45(4) 15 5_445
P1 Th1 Cu1 68.51(5) 5_545 5_445
P1 Th1 Cu1 22.23(5) 7_445 5_445
P1 Th1 Cu1 56.52(6) 13_455 5_445
Cu1 Th1 Cu1 136.863(13) . 5_445
Cu1 Th1 Cu1 126.401(17) 13 5_445
Cu1 Th1 Cu1 40.13(3) 13_445 5_445
Cu1 Th1 Cu1 97.499(19) 13_455 5_445
Cu1 Th1 Cu1 72.44(2) 13_545 5_445
Th1 Th1 Cu1 113.528(8) 1_655 5_445
Th1 Th1 Cu1 66.471(8) 1_455 5_445
Th1 Th1 Cu1 43.137(13) 9_556 5_445
Th1 Th1 Cu1 86.39(2) 13_445 5_445
Th1 Th1 Cu1 107.250(18) 13_545 5_445
Th1 Th1 Cu1 172.662(13) 13 5_445
Th1 Th1 Cu1 129.216(14) 13_455 5_445
P2 Th1 Cu1 58.49(3) 13_445 5_445
P2 Th1 Cu1 138.66(3) 13_655 5_445
P2 Th1 Cu1 95.93(3) 13_455 5_445
P2 Th1 Cu1 97.17(2) 13_645 5_445
Cu1 Th1 Cu1 86.27(3) 5 5_445
Cu1 Th1 Cu1 67.44(2) 5_455 5_445
Cu1 Th1 Cu1 47.057(16) 5_545 5_445
P2 Th1 Cu1 6.85(4) 1_455 1_455
P2 Th1 Cu1 95.29(4) . 1_455
P1 Th1 Cu1 155.60(7) 13 1_455
P1 Th1 Cu1 155.60(7) 7_545 1_455
P1 Th1 Cu1 88.48(5) 15_455 1_455
P1 Th1 Cu1 88.48(5) 5_445 1_455
P2 Th1 Cu1 80.33(3) 13_545 1_455
P2 Th1 Cu1 80.33(3) 13 1_455
P1 Th1 Cu1 160.09(6) 15 1_455
P1 Th1 Cu1 160.09(6) 5_545 1_455
P1 Th1 Cu1 81.38(4) 7_445 1_455
P1 Th1 Cu1 81.38(4) 13_455 1_455
Cu1 Th1 Cu1 51.072(15) . 1_455
Cu1 Th1 Cu1 121.652(14) 13 1_455
Cu1 Th1 Cu1 67.83(2) 13_445 1_455
Cu1 Th1 Cu1 67.83(2) 13_455 1_455
Cu1 Th1 Cu1 121.652(14) 13_545 1_455
Th1 Th1 Cu1 141.072(15) 1_655 1_455
Th1 Th1 Cu1 38.928(15) 1_455 1_455
Th1 Th1 Cu1 128.928(15) 9_556 1_455
Th1 Th1 Cu1 41.390(9) 13_445 1_455
Th1 Th1 Cu1 87.160(18) 13_545 1_455
Th1 Th1 Cu1 87.161(18) 13 1_455
Th1 Th1 Cu1 41.390(9) 13_455 1_455
P2 Th1 Cu1 43.19(2) 13_445 1_455
P2 Th1 Cu1 122.18(3) 13_655 1_455
P2 Th1 Cu1 43.19(2) 13_455 1_455
P2 Th1 Cu1 122.18(3) 13_645 1_455
Cu1 Th1 Cu1 140.270(7) 5 1_455
Cu1 Th1 Cu1 98.509(15) 5_455 1_455
Cu1 Th1 Cu1 140.270(8) 5_545 1_455
Cu1 Th1 Cu1 98.509(15) 5_445 1_455
P2 Th1 Cu1 95.29(4) 1_455 1_655
P2 Th1 Cu1 6.85(4) . 1_655
P1 Th1 Cu1 88.48(5) 13 1_655
P1 Th1 Cu1 88.48(5) 7_545 1_655
P1 Th1 Cu1 155.60(7) 15_455 1_655
P1 Th1 Cu1 155.60(7) 5_445 1_655
P2 Th1 Cu1 80.33(3) 13_545 1_655
P2 Th1 Cu1 80.33(3) 13 1_655
P1 Th1 Cu1 81.38(4) 15 1_655
P1 Th1 Cu1 81.38(4) 5_545 1_655
P1 Th1 Cu1 160.09(6) 7_445 1_655
P1 Th1 Cu1 160.09(6) 13_455 1_655
Cu1 Th1 Cu1 51.072(15) . 1_655
Cu1 Th1 Cu1 67.83(2) 13 1_655
Cu1 Th1 Cu1 121.652(14) 13_445 1_655
Cu1 Th1 Cu1 121.652(14) 13_455 1_655
Cu1 Th1 Cu1 67.83(2) 13_545 1_655
Th1 Th1 Cu1 38.928(15) 1_655 1_655
Th1 Th1 Cu1 141.072(15) 1_455 1_655
Th1 Th1 Cu1 128.928(15) 9_556 1_655
Th1 Th1 Cu1 87.161(18) 13_445 1_655
Th1 Th1 Cu1 41.390(9) 13_545 1_655
Th1 Th1 Cu1 41.390(9) 13 1_655
Th1 Th1 Cu1 87.161(18) 13_455 1_655
P2 Th1 Cu1 122.18(3) 13_445 1_655
P2 Th1 Cu1 43.19(2) 13_655 1_655
P2 Th1 Cu1 122.18(3) 13_455 1_655
P2 Th1 Cu1 43.19(2) 13_645 1_655
Cu1 Th1 Cu1 98.509(15) 5 1_655
Cu1 Th1 Cu1 140.270(8) 5_455 1_655
Cu1 Th1 Cu1 98.509(15) 5_545 1_655
Cu1 Th1 Cu1 140.270(8) 5_445 1_655
Cu1 Th1 Cu1 102.14(3) 1_455 1_655
P2 Th1 P1 44.66(5) 1_455 9
P2 Th1 P1 50.18(5) . 9
P1 Th1 P1 144.89(8) 13 9
P1 Th1 P1 124.76(5) 7_545 9
P1 Th1 P1 139.186(18) 15_455 9
P1 Th1 P1 120.59(2) 5_445 9
P2 Th1 P1 55.33(6) 13_545 9
P2 Th1 P1 93.72(6) 13 9
P1 Th1 P1 137.689(10) 15 9
P1 Th1 P1 121.193(18) 5_545 9
P1 Th1 P1 116.53(6) 7_445 9
P1 Th1 P1 131.93(8) 13_455 9
Cu1 Th1 P1 19.43(4) . 9
Cu1 Th1 P1 113.90(4) 13 9
Cu1 Th1 P1 79.40(4) 13_445 9
Cu1 Th1 P1 110.26(4) 13_455 9
Cu1 Th1 P1 82.82(4) 13_545 9
Th1 Th1 P1 92.92(4) 1_655 9
Th1 Th1 P1 87.09(4) 1_455 9
Th1 Th1 P1 160.57(4) 9_556 9
Th1 Th1 P1 34.01(4) 13_445 9
Th1 Th1 P1 38.45(4) 13_545 9
Th1 Th1 P1 68.20(4) 13 9
Th1 Th1 P1 65.35(4) 13_455 9
P2 Th1 P1 68.03(4) 13_445 9
P2 Th1 P1 94.54(5) 13_655 9
P2 Th1 P1 89.81(5) 13_455 9
P2 Th1 P1 73.05(5) 13_645 9
Cu1 Th1 P1 153.00(4) 5 9
Cu1 Th1 P1 148.25(4) 5_455 9
Cu1 Th1 P1 121.73(4) 5_545 9
Cu1 Th1 P1 119.03(4) 5_445 9
Cu1 Th1 P1 50.79(4) 1_455 9
Cu1 Th1 P1 56.43(4) 1_655 9
P2 Th1 P1 50.18(5) 1_455 11
P2 Th1 P1 44.66(5) . 11
P1 Th1 P1 139.186(18) 13 11
P1 Th1 P1 120.59(2) 7_545 11
P1 Th1 P1 144.89(8) 15_455 11
P1 Th1 P1 124.76(5) 5_445 11
P2 Th1 P1 55.33(6) 13_545 11
P2 Th1 P1 93.72(6) 13 11
P1 Th1 P1 131.93(8) 15 11
P1 Th1 P1 116.53(5) 5_545 11
P1 Th1 P1 121.193(18) 7_445 11
P1 Th1 P1 137.689(10) 13_455 11
Cu1 Th1 P1 19.43(4) . 11
Cu1 Th1 P1 110.26(4) 13 11
Cu1 Th1 P1 82.82(4) 13_445 11
Cu1 Th1 P1 113.90(4) 13_455 11
Cu1 Th1 P1 79.40(4) 13_545 11
Th1 Th1 P1 87.09(4) 1_655 11
Th1 Th1 P1 92.92(4) 1_455 11
Th1 Th1 P1 160.57(4) 9_556 11
Th1 Th1 P1 38.45(4) 13_445 11
Th1 Th1 P1 34.01(4) 13_545 11
Th1 Th1 P1 65.35(4) 13 11
Th1 Th1 P1 68.20(4) 13_455 11
P2 Th1 P1 73.05(5) 13_445 11
P2 Th1 P1 89.81(5) 13_655 11
P2 Th1 P1 94.54(5) 13_455 11
P2 Th1 P1 68.03(4) 13_645 11
Cu1 Th1 P1 148.25(4) 5 11
Cu1 Th1 P1 153.00(4) 5_455 11
Cu1 Th1 P1 119.03(4) 5_545 11
Cu1 Th1 P1 121.73(4) 5_445 11
Cu1 Th1 P1 56.43(4) 1_455 11
Cu1 Th1 P1 50.79(4) 1_655 11
P1 Th1 P1 5.83(7) 9 11
P2 Th1 P1 44.66(5) 1_455 3
P2 Th1 P1 50.18(5) . 3
P1 Th1 P1 124.76(5) 13 3
P1 Th1 P1 144.89(8) 7_545 3
P1 Th1 P1 120.59(2) 15_455 3
P1 Th1 P1 139.186(18) 5_445 3
P2 Th1 P1 93.72(6) 13_545 3
P2 Th1 P1 55.33(6) 13 3
P1 Th1 P1 121.193(18) 15 3
P1 Th1 P1 137.689(10) 5_545 3
P1 Th1 P1 131.93(8) 7_445 3
P1 Th1 P1 116.53(5) 13_455 3
Cu1 Th1 P1 19.43(4) . 3
Cu1 Th1 P1 82.82(4) 13 3
Cu1 Th1 P1 110.26(4) 13_445 3
Cu1 Th1 P1 79.40(4) 13_455 3
Cu1 Th1 P1 113.90(4) 13_545 3
Th1 Th1 P1 92.92(4) 1_655 3
Th1 Th1 P1 87.09(4) 1_455 3
Th1 Th1 P1 160.57(4) 9_556 3
Th1 Th1 P1 65.35(4) 13_445 3
Th1 Th1 P1 68.20(4) 13_545 3
Th1 Th1 P1 38.45(4) 13 3
Th1 Th1 P1 34.01(4) 13_455 3
P2 Th1 P1 89.81(5) 13_445 3
P2 Th1 P1 73.05(5) 13_655 3
P2 Th1 P1 68.03(4) 13_455 3
P2 Th1 P1 94.54(5) 13_645 3
Cu1 Th1 P1 121.73(4) 5 3
Cu1 Th1 P1 119.03(4) 5_455 3
Cu1 Th1 P1 153.00(4) 5_545 3
Cu1 Th1 P1 148.25(4) 5_445 3
Cu1 Th1 P1 50.79(4) 1_455 3
Cu1 Th1 P1 56.43(4) 1_655 3
P1 Th1 P1 38.39(7) 9 3
P1 Th1 P1 38.87(7) 11 3
P2 Th1 P1 50.18(5) 1_455 .
P2 Th1 P1 44.66(5) . .
P1 Th1 P1 120.59(2) 13 .
P1 Th1 P1 139.186(18) 7_545 .
P1 Th1 P1 124.76(5) 15_455 .
P1 Th1 P1 144.89(8) 5_445 .
P2 Th1 P1 93.72(6) 13_545 .
P2 Th1 P1 55.33(6) 13 .
P1 Th1 P1 116.53(5) 15 .
P1 Th1 P1 131.93(8) 5_545 .
P1 Th1 P1 137.689(11) 7_445 .
P1 Th1 P1 121.192(18) 13_455 .
Cu1 Th1 P1 19.43(4) . .
Cu1 Th1 P1 79.40(4) 13 .
Cu1 Th1 P1 113.90(4) 13_445 .
Cu1 Th1 P1 82.82(4) 13_455 .
Cu1 Th1 P1 110.26(4) 13_545 .
Th1 Th1 P1 87.09(4) 1_655 .
Th1 Th1 P1 92.92(4) 1_455 .
Th1 Th1 P1 160.57(4) 9_556 .
Th1 Th1 P1 68.20(4) 13_445 .
Th1 Th1 P1 65.35(4) 13_545 .
Th1 Th1 P1 34.01(4) 13 .
Th1 Th1 P1 38.45(4) 13_455 .
P2 Th1 P1 94.54(5) 13_445 .
P2 Th1 P1 68.03(4) 13_655 .
P2 Th1 P1 73.05(5) 13_455 .
P2 Th1 P1 89.81(5) 13_645 .
Cu1 Th1 P1 119.03(4) 5 .
Cu1 Th1 P1 121.73(4) 5_455 .
Cu1 Th1 P1 148.25(4) 5_545 .
Cu1 Th1 P1 153.00(4) 5_445 .
Cu1 Th1 P1 56.43(4) 1_455 .
Cu1 Th1 P1 50.79(4) 1_655 .
P1 Th1 P1 38.87(7) 9 .
P1 Th1 P1 38.39(7) 11 .
P1 Th1 P1 5.83(7) 3 .
P2 Th1 P1 120.78(3) 1_455 7
P2 Th1 P1 92.67(3) . 7
P1 Th1 P1 37.00(8) 13 7
P1 Th1 P1 81.30(6) 7_545 7
P1 Th1 P1 66.62(9) 15_455 7
P1 Th1 P1 104.50(6) 5_445 7
P2 Th1 P1 158.65(4) 13_545 7
P2 Th1 P1 43.68(5) 13 7
P1 Th1 P1 39.83(8) 15 7
P1 Th1 P1 79.08(4) 5_545 7
P1 Th1 P1 106.14(5) 7_445 7
P1 Th1 P1 72.51(5) 13_455 7
Cu1 Th1 P1 112.926(17) . 7
Cu1 Th1 P1 21.37(3) 13 7
Cu1 Th1 P1 147.12(3) 13_445 7
Cu1 Th1 P1 57.01(4) 13_455 7
Cu1 Th1 P1 116.94(4) 13_545 7
Th1 Th1 P1 70.52(3) 1_655 7
Th1 Th1 P1 109.48(3) 1_455 7
Th1 Th1 P1 67.074(16) 9_556 7
Th1 Th1 P1 159.35(2) 13_445 7
Th1 Th1 P1 129.45(3) 13_545 7
Th1 Th1 P1 63.90(2) 13 7
Th1 Th1 P1 81.98(3) 13_455 7
P2 Th1 P1 144.63(4) 13_445 7
P2 Th1 P1 46.08(4) 13_655 7
P2 Th1 P1 81.22(4) 13_455 7
P2 Th1 P1 105.93(4) 13_645 7
Cu1 Th1 P1 26.63(2) 5 7
Cu1 Th1 P1 51.12(3) 5_455 7
Cu1 Th1 P1 93.39(3) 5_545 7
Cu1 Th1 P1 108.99(2) 5_445 7
Cu1 Th1 P1 120.28(3) 1_455 7
Cu1 Th1 P1 89.16(3) 1_655 7
P1 Th1 P1 131.80(3) 9 7
P1 Th1 P1 129.25(2) 11 7
P1 Th1 P1 95.85(5) 3 7
P1 Th1 P1 93.90(5) . 7
P2 Th1 P1 92.67(3) 1_455 5_455
P2 Th1 P1 120.78(3) . 5_455
P1 Th1 P1 66.62(9) 13 5_455
P1 Th1 P1 104.50(6) 7_545 5_455
P1 Th1 P1 37.00(8) 15_455 5_455
P1 Th1 P1 81.30(6) 5_445 5_455
P2 Th1 P1 158.65(4) 13_545 5_455
P2 Th1 P1 43.68(5) 13 5_455
P1 Th1 P1 72.51(5) 15 5_455
P1 Th1 P1 106.14(5) 5_545 5_455
P1 Th1 P1 79.08(4) 7_445 5_455
P1 Th1 P1 39.83(8) 13_455 5_455
Cu1 Th1 P1 112.926(17) . 5_455
Cu1 Th1 P1 57.01(4) 13 5_455
Cu1 Th1 P1 116.94(4) 13_445 5_455
Cu1 Th1 P1 21.37(3) 13_455 5_455
Cu1 Th1 P1 147.12(3) 13_545 5_455
Th1 Th1 P1 109.48(4) 1_655 5_455
Th1 Th1 P1 70.52(3) 1_455 5_455
Th1 Th1 P1 67.074(16) 9_556 5_455
Th1 Th1 P1 129.45(3) 13_445 5_455
Th1 Th1 P1 159.35(2) 13_545 5_455
Th1 Th1 P1 81.98(3) 13 5_455
Th1 Th1 P1 63.90(2) 13_455 5_455
P2 Th1 P1 105.93(4) 13_445 5_455
P2 Th1 P1 81.22(4) 13_655 5_455
P2 Th1 P1 46.08(4) 13_455 5_455
P2 Th1 P1 144.63(4) 13_645 5_455
Cu1 Th1 P1 51.12(3) 5 5_455
Cu1 Th1 P1 26.63(2) 5_455 5_455
Cu1 Th1 P1 108.99(2) 5_545 5_455
Cu1 Th1 P1 93.39(3) 5_445 5_455
Cu1 Th1 P1 89.16(3) 1_455 5_455
Cu1 Th1 P1 120.28(3) 1_655 5_455
P1 Th1 P1 129.25(2) 9 5_455
P1 Th1 P1 131.80(3) 11 5_455
P1 Th1 P1 93.90(5) 3 5_455
P1 Th1 P1 95.85(5) . 5_455
P1 Th1 P1 38.96(7) 7 5_455
P2 Cu1 P2 119.10(12) . 1_455
P2 Cu1 P1 116.38(8) . 9
P2 Cu1 P1 104.67(8) 1_455 9
P2 Cu1 P1 104.67(8) . 11
P2 Cu1 P1 116.38(8) 1_455 11
P1 Cu1 P1 12.73(15) 9 11
P2 Cu1 P1 116.38(8) . 3
P2 Cu1 P1 104.67(8) 1_455 3
P1 Cu1 P1 91.61(12) 9 3
P1 Cu1 P1 93.02(12) 11 3
P2 Cu1 P1 104.67(8) . .
P2 Cu1 P1 116.38(8) 1_455 .
P1 Cu1 P1 93.02(12) 9 .
P1 Cu1 P1 91.61(12) 11 .
P1 Cu1 P1 12.73(15) 3 .
P2 Cu1 Th1 59.55(6) . .
P2 Cu1 Th1 59.55(6) 1_455 .
P1 Cu1 Th1 133.49(6) 9 .
P1 Cu1 Th1 133.49(6) 11 .
P1 Cu1 Th1 133.49(6) 3 .
P1 Cu1 Th1 133.49(6) . .
P2 Cu1 Cu1 120.45(6) . 9
P2 Cu1 Cu1 120.45(6) 1_455 9
P1 Cu1 Cu1 46.51(6) 9 9
P1 Cu1 Cu1 46.51(6) 11 9
P1 Cu1 Cu1 46.51(6) 3 9
P1 Cu1 Cu1 46.51(6) . 9
Th1 Cu1 Cu1 180.0 . 9
P2 Cu1 Th1 55.994(16) . 13
P2 Cu1 Th1 116.13(4) 1_455 13
P1 Cu1 Th1 136.31(7) 9 13
P1 Cu1 Th1 126.48(8) 11 13
P1 Cu1 Th1 64.34(7) 3 13
P1 Cu1 Th1 55.83(6) . 13
Th1 Cu1 Th1 83.26(2) . 13
Cu1 Cu1 Th1 96.74(2) 9 13
P2 Cu1 Th1 116.13(4) . 13_445
P2 Cu1 Th1 55.994(16) 1_455 13_445
P1 Cu1 Th1 55.83(6) 9 13_445
P1 Cu1 Th1 64.34(7) 11 13_445
P1 Cu1 Th1 126.48(8) 3 13_445
P1 Cu1 Th1 136.31(7) . 13_445
Th1 Cu1 Th1 83.26(2) . 13_445
Cu1 Cu1 Th1 96.74(2) 9 13_445
Th1 Cu1 Th1 166.53(4) 13 13_445
P2 Cu1 Th1 116.13(4) . 13_455
P2 Cu1 Th1 55.994(16) 1_455 13_455
P1 Cu1 Th1 126.48(8) 9 13_455
P1 Cu1 Th1 136.31(7) 11 13_455
P1 Cu1 Th1 55.83(6) 3 13_455
P1 Cu1 Th1 64.34(7) . 13_455
Th1 Cu1 Th1 83.26(2) . 13_455
Cu1 Cu1 Th1 96.74(2) 9 13_455
Th1 Cu1 Th1 70.875(18) 13 13_455
Th1 Cu1 Th1 107.464(19) 13_445 13_455
P2 Cu1 Th1 55.994(16) . 13_545
P2 Cu1 Th1 116.13(4) 1_455 13_545
P1 Cu1 Th1 64.34(7) 9 13_545
P1 Cu1 Th1 55.83(6) 11 13_545
P1 Cu1 Th1 136.31(7) 3 13_545
P1 Cu1 Th1 126.48(8) . 13_545
Th1 Cu1 Th1 83.26(2) . 13_545
Cu1 Cu1 Th1 96.74(2) 9 13_545
Th1 Cu1 Th1 107.464(19) 13 13_545
Th1 Cu1 Th1 70.875(18) 13_445 13_545
Th1 Cu1 Th1 166.53(4) 13_455 13_545
P2 Cu1 P2 70.38(3) . 13
P2 Cu1 P2 70.38(3) 1_455 13
P1 Cu1 P2 173.22(8) 9 13
P1 Cu1 P2 173.22(8) 11 13
P1 Cu1 P2 85.35(7) 3 13
P1 Cu1 P2 85.35(7) . 13
Th1 Cu1 P2 48.51(3) . 13
Cu1 Cu1 P2 131.49(3) 9 13
Th1 Cu1 P2 47.03(2) 13 13
Th1 Cu1 P2 121.75(4) 13_445 13
Th1 Cu1 P2 47.03(2) 13_455 13
Th1 Cu1 P2 121.75(4) 13_545 13
P2 Cu1 P2 70.38(3) . 13_545
P2 Cu1 P2 70.38(3) 1_455 13_545
P1 Cu1 P2 85.35(7) 9 13_545
P1 Cu1 P2 85.35(7) 11 13_545
P1 Cu1 P2 173.22(8) 3 13_545
P1 Cu1 P2 173.22(8) . 13_545
Th1 Cu1 P2 48.51(3) . 13_545
Cu1 Cu1 P2 131.49(3) 9 13_545
Th1 Cu1 P2 121.75(4) 13 13_545
Th1 Cu1 P2 47.03(2) 13_445 13_545
Th1 Cu1 P2 121.75(4) 13_455 13_545
Th1 Cu1 P2 47.03(2) 13_545 13_545
P2 Cu1 P2 97.02(7) 13 13_545
P2 Cu1 Cu1 30.45(6) . 1_655
P2 Cu1 Cu1 149.55(6) 1_455 1_655
P1 Cu1 Cu1 96.37(8) 9 1_655
P1 Cu1 Cu1 83.63(8) 11 1_655
P1 Cu1 Cu1 96.37(8) 3 1_655
P1 Cu1 Cu1 83.63(8) . 1_655
Th1 Cu1 Cu1 90.0 . 1_655
Cu1 Cu1 Cu1 90.0 9 1_655
Th1 Cu1 Cu1 54.562(9) 13 1_655
Th1 Cu1 Cu1 125.438(9) 13_445 1_655
Th1 Cu1 Cu1 125.438(9) 13_455 1_655
Th1 Cu1 Cu1 54.562(9) 13_545 1_655
P2 Cu1 Cu1 90.0 13 1_655
P2 Cu1 Cu1 90.0 13_545 1_655
P2 Cu1 Cu1 149.55(6) . 1_455
P2 Cu1 Cu1 30.45(6) 1_455 1_455
P1 Cu1 Cu1 83.63(8) 9 1_455
P1 Cu1 Cu1 96.37(8) 11 1_455
P1 Cu1 Cu1 83.63(8) 3 1_455
P1 Cu1 Cu1 96.37(8) . 1_455
Th1 Cu1 Cu1 90.0 . 1_455
Cu1 Cu1 Cu1 90.0 9 1_455
Th1 Cu1 Cu1 125.438(9) 13 1_455
Th1 Cu1 Cu1 54.562(9) 13_445 1_455
Th1 Cu1 Cu1 54.562(9) 13_455 1_455
Th1 Cu1 Cu1 125.438(9) 13_545 1_455
P2 Cu1 Cu1 90.0 13 1_455
P2 Cu1 Cu1 90.0 13_545 1_455
Cu1 Cu1 Cu1 180.0 1_655 1_455
P2 Cu1 P1 104.46(4) . 3_545
P2 Cu1 P1 98.18(4) 1_455 3_545
P1 Cu1 P1 21.14(8) 9 3_545
P1 Cu1 P1 23.24(9) 11 3_545
P1 Cu1 P1 112.75(6) 3 3_545
P1 Cu1 P1 113.61(6) . 3_545
Th1 Cu1 P1 112.74(2) . 3_545
Cu1 Cu1 P1 67.26(2) 9 3_545
Th1 Cu1 P1 145.42(4) 13 3_545
Th1 Cu1 P1 42.89(4) 13_445 3_545
Th1 Cu1 P1 138.69(5) 13_455 3_545
Th1 Cu1 P1 48.67(4) 13_545 3_545
P2 Cu1 P1 160.97(5) 13 3_545
P2 Cu1 P1 64.34(4) 13_545 3_545
Cu1 Cu1 P1 93.57(4) 1_655 3_545
Cu1 Cu1 P1 86.43(4) 1_455 3_545
P2 Cu1 P1 98.18(4) . 1_545
P2 Cu1 P1 104.46(4) 1_455 1_545
P1 Cu1 P1 23.24(9) 9 1_545
P1 Cu1 P1 21.14(8) 11 1_545
P1 Cu1 P1 113.61(6) 3 1_545
P1 Cu1 P1 112.75(6) . 1_545
Th1 Cu1 P1 112.74(2) . 1_545
Cu1 Cu1 P1 67.26(2) 9 1_545
Th1 Cu1 P1 138.69(4) 13 1_545
Th1 Cu1 P1 48.67(4) 13_445 1_545
Th1 Cu1 P1 145.42(4) 13_455 1_545
Th1 Cu1 P1 42.89(4) 13_545 1_545
P2 Cu1 P1 160.97(5) 13 1_545
P2 Cu1 P1 64.34(4) 13_545 1_545
Cu1 Cu1 P1 86.43(4) 1_655 1_545
Cu1 Cu1 P1 93.57(4) 1_455 1_545
P1 Cu1 P1 7.14(9) 3_545 1_545
P2 Cu1 P1 98.18(4) . 11_565
P2 Cu1 P1 104.46(4) 1_455 11_565
P1 Cu1 P1 113.61(6) 9 11_565
P1 Cu1 P1 112.75(6) 11 11_565
P1 Cu1 P1 23.24(9) 3 11_565
P1 Cu1 P1 21.14(8) . 11_565
Th1 Cu1 P1 112.74(2) . 11_565
Cu1 Cu1 P1 67.26(2) 9 11_565
Th1 Cu1 P1 42.89(4) 13 11_565
Th1 Cu1 P1 145.42(4) 13_445 11_565
Th1 Cu1 P1 48.67(4) 13_455 11_565
Th1 Cu1 P1 138.69(5) 13_545 11_565
P2 Cu1 P1 64.34(4) 13 11_565
P2 Cu1 P1 160.97(5) 13_545 11_565
Cu1 Cu1 P1 86.43(4) 1_655 11_565
Cu1 Cu1 P1 93.57(4) 1_455 11_565
P1 Cu1 P1 134.51(5) 3_545 11_565
P1 Cu1 P1 133.89(5) 1_545 11_565
P2 Cu1 P1 104.46(4) . 9_565
P2 Cu1 P1 98.18(4) 1_455 9_565
P1 Cu1 P1 112.75(6) 9 9_565
P1 Cu1 P1 113.61(6) 11 9_565
P1 Cu1 P1 21.14(8) 3 9_565
P1 Cu1 P1 23.24(9) . 9_565
Th1 Cu1 P1 112.74(2) . 9_565
Cu1 Cu1 P1 67.26(2) 9 9_565
Th1 Cu1 P1 48.67(4) 13 9_565
Th1 Cu1 P1 138.69(4) 13_445 9_565
Th1 Cu1 P1 42.89(4) 13_455 9_565
Th1 Cu1 P1 145.42(4) 13_545 9_565
P2 Cu1 P1 64.34(4) 13 9_565
P2 Cu1 P1 160.97(5) 13_545 9_565
Cu1 Cu1 P1 93.57(4) 1_655 9_565
Cu1 Cu1 P1 86.43(4) 1_455 9_565
P1 Cu1 P1 133.89(5) 3_545 9_565
P1 Cu1 P1 134.51(5) 1_545 9_565
P1 Cu1 P1 7.14(9) 11_565 9_565
P2 Cu1 P1 156.45(4) . 11_455
P2 Cu1 P1 57.08(6) 1_455 11_455
P1 Cu1 P1 51.51(10) 9 11_455
P1 Cu1 P1 64.24(7) 11 11_455
P1 Cu1 P1 85.85(10) 3 11_455
P1 Cu1 P1 96.63(9) . 11_455
Th1 Cu1 P1 111.61(2) . 11_455
Cu1 Cu1 P1 68.39(2) 9 11_455
Th1 Cu1 P1 147.52(4) 13 11_455
Th1 Cu1 P1 40.79(4) 13_445 11_455
Th1 Cu1 P1 82.04(5) 13_455 11_455
Th1 Cu1 P1 103.00(5) 13_545 11_455
P2 Cu1 P1 122.10(4) 13 11_455
P2 Cu1 P1 87.51(4) 13_545 11_455
Cu1 Cu1 P1 147.87(4) 1_655 11_455
Cu1 Cu1 P1 32.13(4) 1_455 11_455
P1 Cu1 P1 56.76(8) 3_545 11_455
P1 Cu1 P1 63.73(5) 1_545 11_455
P1 Cu1 P1 105.27(6) 11_565 11_455
P1 Cu1 P1 99.08(4) 9_565 11_455
P2 Cu1 P1 57.08(6) . 3_655
P2 Cu1 P1 156.45(4) 1_455 3_655
P1 Cu1 P1 96.63(9) 9 3_655
P1 Cu1 P1 85.85(10) 11 3_655
P1 Cu1 P1 64.24(7) 3 3_655
P1 Cu1 P1 51.51(10) . 3_655
Th1 Cu1 P1 111.61(2) . 3_655
Cu1 Cu1 P1 68.39(2) 9 3_655
Th1 Cu1 P1 40.79(4) 13 3_655
Th1 Cu1 P1 147.52(4) 13_445 3_655
Th1 Cu1 P1 103.00(5) 13_455 3_655
Th1 Cu1 P1 82.04(5) 13_545 3_655
P2 Cu1 P1 87.51(4) 13 3_655
P2 Cu1 P1 122.10(4) 13_545 3_655
Cu1 Cu1 P1 32.13(4) 1_655 3_655
Cu1 Cu1 P1 147.87(4) 1_455 3_655
P1 Cu1 P1 105.27(6) 3_545 3_655
P1 Cu1 P1 99.08(4) 1_545 3_655
P1 Cu1 P1 56.76(8) 11_565 3_655
P1 Cu1 P1 63.73(5) 9_565 3_655
P1 Cu1 P1 136.78(4) 11_455 3_655
P2 Cu1 P1 156.45(4) . 1_455
P2 Cu1 P1 57.08(6) 1_455 1_455
P1 Cu1 P1 85.85(10) 9 1_455
P1 Cu1 P1 96.63(9) 11 1_455
P1 Cu1 P1 51.51(10) 3 1_455
P1 Cu1 P1 64.24(7) . 1_455
Th1 Cu1 P1 111.61(2) . 1_455
Cu1 Cu1 P1 68.39(2) 9 1_455
Th1 Cu1 P1 103.00(5) 13 1_455
Th1 Cu1 P1 82.04(5) 13_445 1_455
Th1 Cu1 P1 40.79(4) 13_455 1_455
Th1 Cu1 P1 147.52(4) 13_545 1_455
P2 Cu1 P1 87.51(4) 13 1_455
P2 Cu1 P1 122.10(4) 13_545 1_455
Cu1 Cu1 P1 147.87(4) 1_655 1_455
Cu1 Cu1 P1 32.13(4) 1_455 1_455
P1 Cu1 P1 99.08(4) 3_545 1_455
P1 Cu1 P1 105.27(6) 1_545 1_455
P1 Cu1 P1 63.73(5) 11_565 1_455
P1 Cu1 P1 56.76(8) 9_565 1_455
P1 Cu1 P1 45.12(9) 11_455 1_455
P1 Cu1 P1 115.75(7) 3_655 1_455
P2 Cu1 P1 57.08(6) . 9_655
P2 Cu1 P1 156.45(4) 1_455 9_655
P1 Cu1 P1 64.24(7) 9 9_655
P1 Cu1 P1 51.51(10) 11 9_655
P1 Cu1 P1 96.63(9) 3 9_655
P1 Cu1 P1 85.85(10) . 9_655
Th1 Cu1 P1 111.61(2) . 9_655
Cu1 Cu1 P1 68.39(2) 9 9_655
Th1 Cu1 P1 82.04(5) 13 9_655
Th1 Cu1 P1 103.00(5) 13_445 9_655
Th1 Cu1 P1 147.52(4) 13_455 9_655
Th1 Cu1 P1 40.79(4) 13_545 9_655
P2 Cu1 P1 122.10(4) 13 9_655
P2 Cu1 P1 87.51(4) 13_545 9_655
Cu1 Cu1 P1 32.13(4) 1_655 9_655
Cu1 Cu1 P1 147.87(4) 1_455 9_655
P1 Cu1 P1 63.73(5) 3_545 9_655
P1 Cu1 P1 56.76(8) 1_545 9_655
P1 Cu1 P1 99.08(4) 11_565 9_655
P1 Cu1 P1 105.27(6) 9_565 9_655
P1 Cu1 P1 115.75(7) 11_455 9_655
P1 Cu1 P1 45.12(9) 3_655 9_655
P1 Cu1 P1 136.78(4) 1_455 9_655
P2 Cu1 P2 144.76(5) . 9
P2 Cu1 P2 96.14(7) 1_455 9
P1 Cu1 P2 47.71(7) 9 9
P1 Cu1 P2 54.44(6) 11 9
P1 Cu1 P2 47.71(7) 3 9
P1 Cu1 P2 54.44(6) . 9
Th1 Cu1 P2 155.688(16) . 9
Cu1 Cu1 P2 24.312(16) 9 9
Th1 Cu1 P2 110.22(2) 13 9
Th1 Cu1 P2 82.43(2) 13_445 9
Th1 Cu1 P2 82.425(19) 13_455 9
Th1 Cu1 P2 110.22(2) 13_545 9
P2 Cu1 P2 127.14(3) 13 9
P2 Cu1 P2 127.14(2) 13_545 9
Cu1 Cu1 P2 114.312(15) 1_655 9
Cu1 Cu1 P2 65.688(16) 1_455 9
P1 Cu1 P2 67.79(3) 3_545 9
P1 Cu1 P2 70.93(3) 1_545 9
P1 Cu1 P2 70.93(3) 11_565 9
P1 Cu1 P2 67.79(3) 9_565 9
P1 Cu1 P2 46.82(2) 11_455 9
P1 Cu1 P2 90.75(3) 3_655 9
P1 Cu1 P2 46.82(2) 1_455 9
P1 Cu1 P2 90.75(3) 9_655 9
P2 Cu1 P2 96.14(7) . 9_655
P2 Cu1 P2 144.76(5) 1_455 9_655
P1 Cu1 P2 54.44(6) 9 9_655
P1 Cu1 P2 47.71(7) 11 9_655
P1 Cu1 P2 54.44(6) 3 9_655
P1 Cu1 P2 47.71(7) . 9_655
Th1 Cu1 P2 155.688(16) . 9_655
Cu1 Cu1 P2 24.312(16) 9 9_655
Th1 Cu1 P2 82.425(19) 13 9_655
Th1 Cu1 P2 110.22(2) 13_445 9_655
Th1 Cu1 P2 110.22(2) 13_455 9_655
Th1 Cu1 P2 82.425(19) 13_545 9_655
P2 Cu1 P2 127.14(2) 13 9_655
P2 Cu1 P2 127.14(2) 13_545 9_655
Cu1 Cu1 P2 65.688(16) 1_655 9_655
Cu1 Cu1 P2 114.312(16) 1_455 9_655
P1 Cu1 P2 70.93(3) 3_545 9_655
P1 Cu1 P2 67.79(3) 1_545 9_655
P1 Cu1 P2 67.79(3) 11_565 9_655
P1 Cu1 P2 70.93(3) 9_565 9_655
P1 Cu1 P2 90.75(3) 11_455 9_655
P1 Cu1 P2 46.82(2) 3_655 9_655
P1 Cu1 P2 90.75(3) 1_455 9_655
P1 Cu1 P2 46.82(2) 9_655 9_655
P2 Cu1 P2 48.62(3) 9 9_655
P2 Cu1 P1 157.58(4) . 9_455
P2 Cu1 P1 54.14(6) 1_455 9_455
P1 Cu1 P1 54.79(6) 9 9_455
P1 Cu1 P1 67.52(10) 11 9_455
P1 Cu1 P1 85.55(10) 3 9_455
P1 Cu1 P1 96.70(8) . 9_455
Th1 Cu1 P1 109.518(19) . 9_455
Cu1 Cu1 P1 70.482(19) 9 9_455
Th1 Cu1 P1 145.86(4) 13 9_455
Th1 Cu1 P1 41.47(3) 13_445 9_455
Th1 Cu1 P1 79.16(4) 13_455 9_455
Th1 Cu1 P1 105.45(4) 13_545 9_455
P2 Cu1 P1 118.82(3) 13 9_455
P2 Cu1 P1 87.74(3) 13_545 9_455
Cu1 Cu1 P1 151.16(3) 1_655 9_455
Cu1 Cu1 P1 28.85(3) 1_455 9_455
P1 Cu1 P1 59.74(5) 3_545 9_455
P1 Cu1 P1 66.74(7) 1_545 9_455
P1 Cu1 P1 104.22(5) 11_565 9_455
P1 Cu1 P1 97.85(5) 9_565 9_455
P1 Cu1 P1 3.28(4) 11_455 9_455
P1 Cu1 P1 138.79(3) 3_655 9_455
P1 Cu1 P1 43.00(8) 1_455 9_455
P1 Cu1 P1 119.03(6) 9_655 9_455
P2 Cu1 P1 48.31(2) 9 9_455
P2 Cu1 P1 93.22(3) 9_655 9_455
P2 Cu1 P1 54.14(6) . 1_655
P2 Cu1 P1 157.58(5) 1_455 1_655
P1 Cu1 P1 96.70(9) 9 1_655
P1 Cu1 P1 85.55(10) 11 1_655
P1 Cu1 P1 67.52(10) 3 1_655
P1 Cu1 P1 54.79(6) . 1_655
Th1 Cu1 P1 109.518(19) . 1_655
Cu1 Cu1 P1 70.482(19) 9 1_655
Th1 Cu1 P1 41.47(3) 13 1_655
Th1 Cu1 P1 145.86(4) 13_445 1_655
Th1 Cu1 P1 105.45(4) 13_455 1_655
Th1 Cu1 P1 79.16(4) 13_545 1_655
P2 Cu1 P1 87.74(3) 13 1_655
P2 Cu1 P1 118.82(3) 13_545 1_655
Cu1 Cu1 P1 28.85(3) 1_655 1_655
Cu1 Cu1 P1 151.16(3) 1_455 1_655
P1 Cu1 P1 104.22(5) 3_545 1_655
P1 Cu1 P1 97.85(5) 1_545 1_655
P1 Cu1 P1 59.74(5) 11_565 1_655
P1 Cu1 P1 66.74(7) 9_565 1_655
P1 Cu1 P1 138.79(3) 11_455 1_655
P1 Cu1 P1 3.28(4) 3_655 1_655
P1 Cu1 P1 119.03(6) 1_455 1_655
P1 Cu1 P1 43.00(8) 9_655 1_655
P2 Cu1 P1 93.22(3) 9 1_655
P2 Cu1 P1 48.31(2) 9_655 1_655
P1 Cu1 P1 140.96(4) 9_455 1_655
P2 Cu1 P1 157.58(4) . 3_455
P2 Cu1 P1 54.14(6) 1_455 3_455
P1 Cu1 P1 85.55(10) 9 3_455
P1 Cu1 P1 96.70(8) 11 3_455
P1 Cu1 P1 54.79(6) 3 3_455
P1 Cu1 P1 67.52(10) . 3_455
Th1 Cu1 P1 109.518(19) . 3_455
Cu1 Cu1 P1 70.482(19) 9 3_455
Th1 Cu1 P1 105.45(4) 13 3_455
Th1 Cu1 P1 79.16(4) 13_445 3_455
Th1 Cu1 P1 41.47(3) 13_455 3_455
Th1 Cu1 P1 145.86(4) 13_545 3_455
P2 Cu1 P1 87.74(3) 13 3_455
P2 Cu1 P1 118.82(3) 13_545 3_455
Cu1 Cu1 P1 151.16(3) 1_655 3_455
Cu1 Cu1 P1 28.85(3) 1_455 3_455
P1 Cu1 P1 97.85(5) 3_545 3_455
P1 Cu1 P1 104.22(5) 1_545 3_455
P1 Cu1 P1 66.74(7) 11_565 3_455
P1 Cu1 P1 59.74(5) 9_565 3_455
P1 Cu1 P1 43.00(8) 11_455 3_455
P1 Cu1 P1 119.03(6) 3_655 3_455
P1 Cu1 P1 3.28(4) 1_455 3_455
P1 Cu1 P1 138.79(3) 9_655 3_455
P2 Cu1 P1 48.31(2) 9 3_455
P2 Cu1 P1 93.22(3) 9_655 3_455
P1 Cu1 P1 40.73(8) 9_455 3_455
P1 Cu1 P1 122.31(7) 1_655 3_455
P2 Cu1 P1 54.14(6) . 11_655
P2 Cu1 P1 157.58(4) 1_455 11_655
P1 Cu1 P1 67.52(10) 9 11_655
P1 Cu1 P1 54.79(6) 11 11_655
P1 Cu1 P1 96.70(8) 3 11_655
P1 Cu1 P1 85.55(10) . 11_655
Th1 Cu1 P1 109.518(19) . 11_655
Cu1 Cu1 P1 70.482(19) 9 11_655
Th1 Cu1 P1 79.16(4) 13 11_655
Th1 Cu1 P1 105.45(4) 13_445 11_655
Th1 Cu1 P1 145.86(4) 13_455 11_655
Th1 Cu1 P1 41.47(3) 13_545 11_655
P2 Cu1 P1 118.82(3) 13 11_655
P2 Cu1 P1 87.74(3) 13_545 11_655
Cu1 Cu1 P1 28.85(3) 1_655 11_655
Cu1 Cu1 P1 151.16(3) 1_455 11_655
P1 Cu1 P1 66.74(7) 3_545 11_655
P1 Cu1 P1 59.74(5) 1_545 11_655
P1 Cu1 P1 97.85(5) 11_565 11_655
P1 Cu1 P1 104.22(4) 9_565 11_655
P1 Cu1 P1 119.03(6) 11_455 11_655
P1 Cu1 P1 43.00(8) 3_655 11_655
P1 Cu1 P1 138.79(3) 1_455 11_655
P1 Cu1 P1 3.28(4) 9_655 11_655
P2 Cu1 P1 93.22(3) 9 11_655
P2 Cu1 P1 48.31(2) 9_655 11_655
P1 Cu1 P1 122.31(7) 9_455 11_655
P1 Cu1 P1 40.73(8) 1_655 11_655
P1 Cu1 P1 140.96(4) 3_455 11_655
P2 Cu1 Cu1 44.44(4) . 13
P2 Cu1 Cu1 88.64(6) 1_455 13
P1 Cu1 Cu1 160.82(8) 9 13
P1 Cu1 Cu1 148.84(7) 11 13
P1 Cu1 Cu1 98.40(7) 3 13
P1 Cu1 Cu1 93.29(6) . 13
Th1 Cu1 Cu1 43.30(2) . 13
Cu1 Cu1 Cu1 136.70(2) 9 13
Th1 Cu1 Cu1 39.967(8) 13 13
Th1 Cu1 Cu1 126.56(4) 13_445 13
Th1 Cu1 Cu1 72.416(18) 13_455 13
Th1 Cu1 Cu1 97.55(3) 13_545 13
P2 Cu1 Cu1 25.944(15) 13 13
P2 Cu1 Cu1 86.27(4) 13_545 13
Cu1 Cu1 Cu1 66.397(11) 1_655 13
Cu1 Cu1 Cu1 113.602(11) 1_455 13
P1 Cu1 Cu1 144.95(4) 3_545 13
P1 Cu1 Cu1 140.24(4) 1_545 13
P1 Cu1 Cu1 75.18(3) 11_565 13
P1 Cu1 Cu1 78.11(3) 9_565 13
P1 Cu1 Cu1 145.16(4) 11_455 13
P1 Cu1 Cu1 73.46(3) 3_655 13
P1 Cu1 Cu1 113.17(4) 1_455 13
P1 Cu1 Cu1 98.20(3) 9_655 13
P2 Cu1 Cu1 145.905(18) 9 13
P2 Cu1 Cu1 119.90(2) 9_655 13
P1 Cu1 Cu1 141.97(3) 9_455 13
P1 Cu1 Cu1 72.46(2) 1_655 13
P1 Cu1 Cu1 113.58(3) 3_455 13
P1 Cu1 Cu1 94.95(3) 11_655 13
P2 Cu1 Cu1 88.64(6) . 13_455
P2 Cu1 Cu1 44.44(4) 1_455 13_455
P1 Cu1 Cu1 148.84(7) 9 13_455
P1 Cu1 Cu1 160.82(8) 11 13_455
P1 Cu1 Cu1 93.29(6) 3 13_455
P1 Cu1 Cu1 98.40(7) . 13_455
Th1 Cu1 Cu1 43.30(2) . 13_455
Cu1 Cu1 Cu1 136.70(2) 9 13_455
Th1 Cu1 Cu1 72.416(18) 13 13_455
Th1 Cu1 Cu1 97.55(3) 13_445 13_455
Th1 Cu1 Cu1 39.967(9) 13_455 13_455
Th1 Cu1 Cu1 126.56(4) 13_545 13_455
P2 Cu1 Cu1 25.944(15) 13 13_455
P2 Cu1 Cu1 86.27(4) 13_545 13_455
Cu1 Cu1 Cu1 113.602(11) 1_655 13_455
Cu1 Cu1 Cu1 66.397(11) 1_455 13_455
P1 Cu1 Cu1 140.24(4) 3_545 13_455
P1 Cu1 Cu1 144.95(4) 1_545 13_455
P1 Cu1 Cu1 78.11(3) 11_565 13_455
P1 Cu1 Cu1 75.18(3) 9_565 13_455
P1 Cu1 Cu1 98.20(3) 11_455 13_455
P1 Cu1 Cu1 113.17(4) 3_655 13_455
P1 Cu1 Cu1 73.46(3) 1_455 13_455
P1 Cu1 Cu1 145.16(4) 9_655 13_455
P2 Cu1 Cu1 119.90(2) 9 13_455
P2 Cu1 Cu1 145.905(18) 9_655 13_455
P1 Cu1 Cu1 94.95(3) 9_455 13_455
P1 Cu1 Cu1 113.58(3) 1_655 13_455
P1 Cu1 Cu1 72.46(2) 3_455 13_455
P1 Cu1 Cu1 141.97(3) 11_655 13_455
Cu1 Cu1 Cu1 47.21(2) 13 13_455
P2 Cu1 Cu1 44.44(4) . 13_545
P2 Cu1 Cu1 88.64(6) 1_455 13_545
P1 Cu1 Cu1 98.40(7) 9 13_545
P1 Cu1 Cu1 93.29(6) 11 13_545
P1 Cu1 Cu1 160.82(8) 3 13_545
P1 Cu1 Cu1 148.84(7) . 13_545
Th1 Cu1 Cu1 43.30(2) . 13_545
Cu1 Cu1 Cu1 136.70(2) 9 13_545
Th1 Cu1 Cu1 97.55(3) 13 13_545
Th1 Cu1 Cu1 72.416(18) 13_445 13_545
Th1 Cu1 Cu1 126.56(4) 13_455 13_545
Th1 Cu1 Cu1 39.967(9) 13_545 13_545
P2 Cu1 Cu1 86.27(4) 13 13_545
P2 Cu1 Cu1 25.944(15) 13_545 13_545
Cu1 Cu1 Cu1 66.397(11) 1_655 13_545
Cu1 Cu1 Cu1 113.602(11) 1_455 13_545
P1 Cu1 Cu1 78.11(3) 3_545 13_545
P1 Cu1 Cu1 75.18(3) 1_545 13_545
P1 Cu1 Cu1 140.24(4) 11_565 13_545
P1 Cu1 Cu1 144.95(4) 9_565 13_545
P1 Cu1 Cu1 113.17(4) 11_455 13_545
P1 Cu1 Cu1 98.20(3) 3_655 13_545
P1 Cu1 Cu1 145.16(4) 1_455 13_545
P1 Cu1 Cu1 73.46(3) 9_655 13_545
P2 Cu1 Cu1 145.905(18) 9 13_545
P2 Cu1 Cu1 119.90(2) 9_655 13_545
P1 Cu1 Cu1 113.58(3) 9_455 13_545
P1 Cu1 Cu1 94.95(3) 1_655 13_545
P1 Cu1 Cu1 141.97(3) 3_455 13_545
P1 Cu1 Cu1 72.46(2) 11_655 13_545
Cu1 Cu1 Cu1 67.66(3) 13 13_545
Cu1 Cu1 Cu1 86.59(4) 13_455 13_545
P2 Cu1 Cu1 88.64(6) . 13_445
P2 Cu1 Cu1 44.44(4) 1_455 13_445
P1 Cu1 Cu1 93.29(6) 9 13_445
P1 Cu1 Cu1 98.40(7) 11 13_445
P1 Cu1 Cu1 148.84(7) 3 13_445
P1 Cu1 Cu1 160.82(8) . 13_445
Th1 Cu1 Cu1 43.30(2) . 13_445
Cu1 Cu1 Cu1 136.70(2) 9 13_445
Th1 Cu1 Cu1 126.56(4) 13 13_445
Th1 Cu1 Cu1 39.967(9) 13_445 13_445
Th1 Cu1 Cu1 97.55(3) 13_455 13_445
Th1 Cu1 Cu1 72.416(18) 13_545 13_445
P2 Cu1 Cu1 86.27(4) 13 13_445
P2 Cu1 Cu1 25.944(15) 13_545 13_445
Cu1 Cu1 Cu1 113.602(11) 1_655 13_445
Cu1 Cu1 Cu1 66.397(11) 1_455 13_445
P1 Cu1 Cu1 75.18(3) 3_545 13_445
P1 Cu1 Cu1 78.11(3) 1_545 13_445
P1 Cu1 Cu1 144.95(4) 11_565 13_445
P1 Cu1 Cu1 140.24(4) 9_565 13_445
P1 Cu1 Cu1 73.46(3) 11_455 13_445
P1 Cu1 Cu1 145.16(4) 3_655 13_445
P1 Cu1 Cu1 98.20(3) 1_455 13_445
P1 Cu1 Cu1 113.17(4) 9_655 13_445
P2 Cu1 Cu1 119.90(2) 9 13_445
P2 Cu1 Cu1 145.905(18) 9_655 13_445
P1 Cu1 Cu1 72.46(2) 9_455 13_445
P1 Cu1 Cu1 141.97(3) 1_655 13_445
P1 Cu1 Cu1 94.95(3) 3_455 13_445
P1 Cu1 Cu1 113.58(3) 11_655 13_445
Cu1 Cu1 Cu1 86.59(4) 13 13_445
Cu1 Cu1 Cu1 67.66(3) 13_455 13_445
Cu1 Cu1 Cu1 47.21(2) 13_545 13_445
P2 Cu1 Th1 135.56(4) . 5_444
P2 Cu1 Th1 91.47(5) 1_455 5_444
P1 Cu1 Th1 19.18(8) 9 5_444
P1 Cu1 Th1 31.13(7) 11 5_444
P1 Cu1 Th1 81.46(7) 3 5_444
P1 Cu1 Th1 86.56(7) . 5_444
Th1 Cu1 Th1 136.862(13) . 5_444
Cu1 Cu1 Th1 43.138(13) 9 5_444
Th1 Cu1 Th1 139.87(3) 13 5_444
Th1 Cu1 Th1 53.598(17) 13_445 5_444
Th1 Cu1 Th1 107.56(2) 13_455 5_444
Th1 Cu1 Th1 82.501(19) 13_545 5_444
P2 Cu1 Th1 154.060(14) 13 5_444
P2 Cu1 Th1 93.88(3) 13_545 5_444
Cu1 Cu1 Th1 113.529(8) 1_655 5_444
Cu1 Cu1 Th1 66.472(8) 1_455 5_444
P1 Cu1 Th1 35.14(3) 3_545 5_444
P1 Cu1 Th1 39.82(3) 1_545 5_444
P1 Cu1 Th1 104.69(4) 11_565 5_444
P1 Cu1 Th1 101.76(4) 9_565 5_444
P1 Cu1 Th1 34.94(3) 11_455 5_444
P1 Cu1 Th1 106.40(3) 3_655 5_444
P1 Cu1 Th1 66.81(4) 1_455 5_444
P1 Cu1 Th1 81.74(4) 9_655 5_444
P2 Cu1 Th1 33.967(11) 9 5_444
P2 Cu1 Th1 59.96(2) 9_655 5_444
P1 Cu1 Th1 38.12(3) 9_455 5_444
P1 Cu1 Th1 107.40(3) 1_655 5_444
P1 Cu1 Th1 66.40(3) 3_455 5_444
P1 Cu1 Th1 84.99(3) 11_655 5_444
Cu1 Cu1 Th1 179.84(3) 13 5_444
Cu1 Cu1 Th1 132.868(14) 13_455 5_444
Cu1 Cu1 Th1 112.449(18) 13_545 5_444
Cu1 Cu1 Th1 93.57(2) 13_445 5_444
P2 Cu1 Th1 91.47(5) . 5_544
P2 Cu1 Th1 135.56(4) 1_455 5_544
P1 Cu1 Th1 31.13(7) 9 5_544
P1 Cu1 Th1 19.18(8) 11 5_544
P1 Cu1 Th1 86.56(7) 3 5_544
P1 Cu1 Th1 81.46(7) . 5_544
Th1 Cu1 Th1 136.862(13) . 5_544
Cu1 Cu1 Th1 43.138(13) 9 5_544
Th1 Cu1 Th1 107.56(2) 13 5_544
Th1 Cu1 Th1 82.501(19) 13_445 5_544
Th1 Cu1 Th1 139.87(3) 13_455 5_544
Th1 Cu1 Th1 53.598(17) 13_545 5_544
P2 Cu1 Th1 154.060(14) 13 5_544
P2 Cu1 Th1 93.88(3) 13_545 5_544
Cu1 Cu1 Th1 66.472(8) 1_655 5_544
Cu1 Cu1 Th1 113.529(8) 1_455 5_544
P1 Cu1 Th1 39.82(3) 3_545 5_544
P1 Cu1 Th1 35.14(3) 1_545 5_544
P1 Cu1 Th1 101.76(4) 11_565 5_544
P1 Cu1 Th1 104.69(4) 9_565 5_544
P1 Cu1 Th1 81.74(4) 11_455 5_544
P1 Cu1 Th1 66.81(4) 3_655 5_544
P1 Cu1 Th1 106.40(3) 1_455 5_544
P1 Cu1 Th1 34.94(3) 9_655 5_544
P2 Cu1 Th1 59.96(2) 9 5_544
P2 Cu1 Th1 33.967(11) 9_655 5_544
P1 Cu1 Th1 84.99(3) 9_455 5_544
P1 Cu1 Th1 66.40(3) 1_655 5_544
P1 Cu1 Th1 107.40(3) 3_455 5_544
P1 Cu1 Th1 38.12(3) 11_655 5_544
Cu1 Cu1 Th1 132.868(14) 13 5_544
Cu1 Cu1 Th1 179.84(3) 13_455 5_544
Cu1 Cu1 Th1 93.57(2) 13_545 5_544
Cu1 Cu1 Th1 112.449(17) 13_445 5_544
Th1 Cu1 Th1 47.057(16) 5_444 5_544
P2 Cu1 Th1 135.56(4) . 5_454
P2 Cu1 Th1 91.47(5) 1_455 5_454
P1 Cu1 Th1 81.46(7) 9 5_454
P1 Cu1 Th1 86.56(7) 11 5_454
P1 Cu1 Th1 19.18(8) 3 5_454
P1 Cu1 Th1 31.13(7) . 5_454
Th1 Cu1 Th1 136.862(13) . 5_454
Cu1 Cu1 Th1 43.138(13) 9 5_454
Th1 Cu1 Th1 82.501(19) 13 5_454
Th1 Cu1 Th1 107.56(2) 13_445 5_454
Th1 Cu1 Th1 53.598(17) 13_455 5_454
Th1 Cu1 Th1 139.87(3) 13_545 5_454
P2 Cu1 Th1 93.88(3) 13 5_454
P2 Cu1 Th1 154.060(14) 13_545 5_454
Cu1 Cu1 Th1 113.529(8) 1_655 5_454
Cu1 Cu1 Th1 66.472(8) 1_455 5_454
P1 Cu1 Th1 101.76(4) 3_545 5_454
P1 Cu1 Th1 104.69(4) 1_545 5_454
P1 Cu1 Th1 39.82(3) 11_565 5_454
P1 Cu1 Th1 35.14(3) 9_565 5_454
P1 Cu1 Th1 66.81(4) 11_455 5_454
P1 Cu1 Th1 81.74(4) 3_655 5_454
P1 Cu1 Th1 34.94(3) 1_455 5_454
P1 Cu1 Th1 106.40(3) 9_655 5_454
P2 Cu1 Th1 33.967(11) 9 5_454
P2 Cu1 Th1 59.96(2) 9_655 5_454
P1 Cu1 Th1 66.40(3) 9_455 5_454
P1 Cu1 Th1 84.99(3) 1_655 5_454
P1 Cu1 Th1 38.12(3) 3_455 5_454
P1 Cu1 Th1 107.40(3) 11_655 5_454
Cu1 Cu1 Th1 112.449(18) 13 5_454
Cu1 Cu1 Th1 93.57(2) 13_455 5_454
Cu1 Cu1 Th1 179.84(3) 13_545 5_454
Cu1 Cu1 Th1 132.868(14) 13_445 5_454
Th1 Cu1 Th1 67.44(2) 5_444 5_454
Th1 Cu1 Th1 86.28(3) 5_544 5_454
P2 Cu1 Th1 91.47(5) . 5_554
P2 Cu1 Th1 135.56(4) 1_455 5_554
P1 Cu1 Th1 86.56(7) 9 5_554
P1 Cu1 Th1 81.46(7) 11 5_554
P1 Cu1 Th1 31.13(7) 3 5_554
P1 Cu1 Th1 19.18(8) . 5_554
Th1 Cu1 Th1 136.862(13) . 5_554
Cu1 Cu1 Th1 43.138(13) 9 5_554
Th1 Cu1 Th1 53.598(17) 13 5_554
Th1 Cu1 Th1 139.87(3) 13_445 5_554
Th1 Cu1 Th1 82.501(19) 13_455 5_554
Th1 Cu1 Th1 107.56(2) 13_545 5_554
P2 Cu1 Th1 93.88(3) 13 5_554
P2 Cu1 Th1 154.060(14) 13_545 5_554
Cu1 Cu1 Th1 66.472(8) 1_655 5_554
Cu1 Cu1 Th1 113.529(8) 1_455 5_554
P1 Cu1 Th1 104.69(4) 3_545 5_554
P1 Cu1 Th1 101.76(4) 1_545 5_554
P1 Cu1 Th1 35.14(3) 11_565 5_554
P1 Cu1 Th1 39.82(3) 9_565 5_554
P1 Cu1 Th1 106.40(3) 11_455 5_554
P1 Cu1 Th1 34.94(3) 3_655 5_554
P1 Cu1 Th1 81.74(4) 1_455 5_554
P1 Cu1 Th1 66.81(4) 9_655 5_554
P2 Cu1 Th1 59.96(2) 9 5_554
P2 Cu1 Th1 33.967(11) 9_655 5_554
P1 Cu1 Th1 107.40(3) 9_455 5_554
P1 Cu1 Th1 38.12(3) 1_655 5_554
P1 Cu1 Th1 84.99(3) 3_455 5_554
P1 Cu1 Th1 66.40(3) 11_655 5_554
Cu1 Cu1 Th1 93.57(2) 13 5_554
Cu1 Cu1 Th1 112.449(17) 13_455 5_554
Cu1 Cu1 Th1 132.868(14) 13_545 5_554
Cu1 Cu1 Th1 179.84(3) 13_445 5_554
Th1 Cu1 Th1 86.28(3) 5_444 5_554
Th1 Cu1 Th1 67.44(2) 5_544 5_554
Th1 Cu1 Th1 47.057(16) 5_454 5_554
P2 Cu1 Th1 8.48(6) . 1_655
P2 Cu1 Th1 110.62(7) 1_455 1_655
P1 Cu1 Th1 121.25(8) 9 1_655
P1 Cu1 Th1 110.26(7) 11 1_655
P1 Cu1 Th1 121.25(8) 3 1_655
P1 Cu1 Th1 110.26(7) . 1_655
Th1 Cu1 Th1 51.071(15) . 1_655
Cu1 Cu1 Th1 128.929(14) 9 1_655
Th1 Cu1 Th1 58.348(14) 13 1_655
Th1 Cu1 Th1 112.17(2) 13_445 1_655
Th1 Cu1 Th1 112.17(2) 13_455 1_655
Th1 Cu1 Th1 58.348(14) 13_545 1_655
P2 Cu1 Th1 65.40(2) 13 1_655
P2 Cu1 Th1 65.40(2) 13_545 1_655
Cu1 Cu1 Th1 38.928(15) 1_655 1_655
Cu1 Cu1 Th1 141.071(14) 1_455 1_655
P1 Cu1 Th1 106.94(4) 3_545 1_655
P1 Cu1 Th1 101.21(4) 1_545 1_655
P1 Cu1 Th1 101.21(4) 11_565 1_655
P1 Cu1 Th1 106.94(4) 9_565 1_655
P1 Cu1 Th1 152.90(4) 11_455 1_655
P1 Cu1 Th1 64.70(3) 3_655 1_655
P1 Cu1 Th1 152.90(4) 1_455 1_655
P1 Cu1 Th1 64.70(3) 9_655 1_655
P2 Cu1 Th1 153.24(2) 9 1_655
P2 Cu1 Th1 104.62(2) 9_655 1_655
P1 Cu1 Th1 153.04(3) 9_455 1_655
P1 Cu1 Th1 61.87(2) 1_655 1_655
P1 Cu1 Th1 153.04(3) 3_455 1_655
P1 Cu1 Th1 61.87(2) 11_655 1_655
Cu1 Cu1 Th1 39.754(10) 13 1_655
Cu1 Cu1 Th1 81.61(3) 13_455 1_655
Cu1 Cu1 Th1 39.754(11) 13_545 1_655
Cu1 Cu1 Th1 81.61(3) 13_445 1_655
Th1 Cu1 Th1 140.271(8) 5_444 1_655
Th1 Cu1 Th1 98.509(15) 5_544 1_655
Th1 Cu1 Th1 140.271(8) 5_454 1_655
Th1 Cu1 Th1 98.509(15) 5_554 1_655
P2 Cu1 Th1 110.62(7) . 1_455
P2 Cu1 Th1 8.48(6) 1_455 1_455
P1 Cu1 Th1 110.26(7) 9 1_455
P1 Cu1 Th1 121.25(8) 11 1_455
P1 Cu1 Th1 110.26(7) 3 1_455
P1 Cu1 Th1 121.25(8) . 1_455
Th1 Cu1 Th1 51.071(15) . 1_455
Cu1 Cu1 Th1 128.929(15) 9 1_455
Th1 Cu1 Th1 112.17(2) 13 1_455
Th1 Cu1 Th1 58.348(14) 13_445 1_455
Th1 Cu1 Th1 58.348(14) 13_455 1_455
Th1 Cu1 Th1 112.17(2) 13_545 1_455
P2 Cu1 Th1 65.40(2) 13 1_455
P2 Cu1 Th1 65.40(2) 13_545 1_455
Cu1 Cu1 Th1 141.071(15) 1_655 1_455
Cu1 Cu1 Th1 38.928(15) 1_455 1_455
P1 Cu1 Th1 101.21(4) 3_545 1_455
P1 Cu1 Th1 106.94(4) 1_545 1_455
P1 Cu1 Th1 106.94(4) 11_565 1_455
P1 Cu1 Th1 101.21(4) 9_565 1_455
P1 Cu1 Th1 64.70(3) 11_455 1_455
P1 Cu1 Th1 152.90(4) 3_655 1_455
P1 Cu1 Th1 64.70(3) 1_455 1_455
P1 Cu1 Th1 152.90(4) 9_655 1_455
P2 Cu1 Th1 104.62(2) 9 1_455
P2 Cu1 Th1 153.24(2) 9_655 1_455
P1 Cu1 Th1 61.87(2) 9_455 1_455
P1 Cu1 Th1 153.04(3) 1_655 1_455
P1 Cu1 Th1 61.87(2) 3_455 1_455
P1 Cu1 Th1 153.04(3) 11_655 1_455
Cu1 Cu1 Th1 81.61(3) 13 1_455
Cu1 Cu1 Th1 39.754(10) 13_455 1_455
Cu1 Cu1 Th1 81.61(3) 13_545 1_455
Cu1 Cu1 Th1 39.754(10) 13_445 1_455
Th1 Cu1 Th1 98.509(15) 5_444 1_455
Th1 Cu1 Th1 140.271(8) 5_544 1_455
Th1 Cu1 Th1 98.509(15) 5_454 1_455
Th1 Cu1 Th1 140.271(8) 5_554 1_455
Th1 Cu1 Th1 102.14(3) 1_655 1_455
P1 P1 P1 90.0 3 11_565
P1 P1 P1 76.46(16) 3 9_565
P1 P1 P1 13.54(16) 11_565 9_565
P1 P1 Cu1 83.63(8) 3 .
P1 P1 Cu1 135.80(6) 11_565 .
P1 P1 Cu1 132.15(10) 9_565 .
P1 P1 Cu1 83.63(8) 3 9
P1 P1 Cu1 135.80(6) 11_565 9
P1 P1 Cu1 132.15(10) 9_565 9
Cu1 P1 Cu1 86.98(12) . 9
P1 P1 Th1 127.04(5) 3 13
P1 P1 Th1 67.85(6) 11_565 13
P1 P1 Th1 76.97(12) 9_565 13
Cu1 P1 Th1 81.53(4) . 13
Cu1 P1 Th1 145.21(14) 9 13
P1 P1 Th1 127.04(5) 3 5_554
P1 P1 Th1 67.85(6) 11_565 5_554
P1 P1 Th1 76.97(12) 9_565 5_554
Cu1 P1 Th1 145.21(14) . 5_554
Cu1 P1 Th1 81.53(4) 9 5_554
Th1 P1 Th1 89.43(9) 13 5_554
P1 P1 Th1 45.52(5) 3 5_454
P1 P1 Th1 70.31(6) 11_565 5_454
P1 P1 Th1 60.55(11) 9_565 5_454
Cu1 P1 Th1 126.64(12) . 5_454
Cu1 P1 Th1 74.40(5) 9 5_454
Th1 P1 Th1 137.52(12) 13 5_454
Th1 P1 Th1 81.52(4) 5_554 5_454
P1 P1 Th1 45.52(4) 3 13_455
P1 P1 Th1 70.31(6) 11_565 13_455
P1 P1 Th1 60.55(11) 9_565 13_455
Cu1 P1 Th1 74.40(5) . 13_455
Cu1 P1 Th1 126.64(12) 9 13_455
Th1 P1 Th1 81.52(4) 13 13_455
Th1 P1 Th1 137.52(12) 5_554 13_455
Th1 P1 Th1 77.94(7) 5_454 13_455
P1 P1 P1 90.0 3 11
P1 P1 P1 180.0 11_565 11
P1 P1 P1 166.46(16) 9_565 11
Cu1 P1 P1 44.20(6) . 11
Cu1 P1 P1 44.20(6) 9 11
Th1 P1 P1 112.15(6) 13 11
Th1 P1 P1 112.15(6) 5_554 11
Th1 P1 P1 109.69(6) 5_454 11
Th1 P1 P1 109.69(6) 13_455 11
P1 P1 P1 81.21(11) 3 9
P1 P1 P1 171.21(11) 11_565 9
P1 P1 P1 157.7(3) 9_565 9
Cu1 P1 P1 43.49(6) . 9
Cu1 P1 P1 43.49(6) 9 9
Th1 P1 P1 117.68(10) 13 9
Th1 P1 P1 117.68(10) 5_554 9
Th1 P1 P1 103.06(11) 5_454 9
Th1 P1 P1 103.06(11) 13_455 9
P1 P1 P1 8.79(11) 11 9
P1 P1 P1 180.0 3 3_655
P1 P1 P1 90.0 11_565 3_655
P1 P1 P1 103.54(16) 9_565 3_655
Cu1 P1 P1 96.37(8) . 3_655
Cu1 P1 P1 96.37(8) 9 3_655
Th1 P1 P1 52.96(5) 13 3_655
Th1 P1 P1 52.96(6) 5_554 3_655
Th1 P1 P1 134.48(5) 5_454 3_655
Th1 P1 P1 134.48(5) 13_455 3_655
P1 P1 P1 90.0 11 3_655
P1 P1 P1 98.79(11) 9 3_655
P1 P1 P2 117.97(5) 3 .
P1 P1 P2 117.19(5) 11_565 .
P1 P1 P2 123.64(9) 9_565 .
Cu1 P1 P2 37.27(4) . .
Cu1 P1 P2 104.16(11) 9 .
Th1 P1 P2 50.05(4) 13 .
Th1 P1 P2 114.93(10) 5_554 .
Th1 P1 P2 163.32(9) 5_454 .
Th1 P1 P2 90.41(3) 13_455 .
P1 P1 P2 62.81(5) 11 .
P1 P1 P2 67.68(7) 9 .
P1 P1 P2 62.03(5) 3_655 .
P1 P1 P2 117.97(5) 3 9_655
P1 P1 P2 117.19(5) 11_565 9_655
P1 P1 P2 123.64(9) 9_565 9_655
Cu1 P1 P2 104.16(11) . 9_655
Cu1 P1 P2 37.27(4) 9 9_655
Th1 P1 P2 114.93(10) 13 9_655
Th1 P1 P2 50.05(3) 5_554 9_655
Th1 P1 P2 90.41(3) 5_454 9_655
Th1 P1 P2 163.32(9) 13_455 9_655
P1 P1 P2 62.81(5) 11 9_655
P1 P1 P2 67.68(7) 9 9_655
P1 P1 P2 62.03(5) 3_655 9_655
P2 P1 P2 98.20(9) . 9_655
P1 P1 P2 55.36(5) 3 9
P1 P1 P2 115.19(5) 11_565 9
P1 P1 P2 106.30(13) 9_565 9
Cu1 P1 P2 96.69(10) . 9
Cu1 P1 P2 31.49(4) 9 9
Th1 P1 P2 176.60(11) 13 9
Th1 P1 P2 90.43(3) 5_554 9
Th1 P1 P2 45.76(3) 5_454 9
Th1 P1 P2 100.83(8) 13_455 9
P1 P1 P2 64.81(5) 11 9
P1 P1 P2 59.50(6) 9 9
P1 P1 P2 124.64(5) 3_655 9
P2 P1 P2 127.18(9) . 9
P2 P1 P2 62.61(5) 9_655 9
P1 P1 P2 55.36(5) 3 1_455
P1 P1 P2 115.19(5) 11_565 1_455
P1 P1 P2 106.30(13) 9_565 1_455
Cu1 P1 P2 31.49(4) . 1_455
Cu1 P1 P2 96.69(10) 9 1_455
Th1 P1 P2 90.43(3) 13 1_455
Th1 P1 P2 176.60(11) 5_554 1_455
Th1 P1 P2 100.83(8) 5_454 1_455
Th1 P1 P2 45.76(3) 13_455 1_455
P1 P1 P2 64.81(5) 11 1_455
P1 P1 P2 59.50(6) 9 1_455
P1 P1 P2 124.64(5) 3_655 1_455
P2 P1 P2 62.61(5) . 1_455
P2 P1 P2 127.18(9) 9_655 1_455
P2 P1 P2 89.51(8) 9 1_455
P1 P1 P1 0.0 3 1_455
P1 P1 P1 90.0 11_565 1_455
P1 P1 P1 76.46(16) 9_565 1_455
Cu1 P1 P1 83.63(8) . 1_455
Cu1 P1 P1 83.63(8) 9 1_455
Th1 P1 P1 127.04(5) 13 1_455
Th1 P1 P1 127.04(5) 5_554 1_455
Th1 P1 P1 45.52(5) 5_454 1_455
Th1 P1 P1 45.52(5) 13_455 1_455
P1 P1 P1 90.0 11 1_455
P1 P1 P1 81.21(11) 9 1_455
P1 P1 P1 180.0 3_655 1_455
P2 P1 P1 117.97(5) . 1_455
P2 P1 P1 117.97(5) 9_655 1_455
P2 P1 P1 55.36(4) 9 1_455
P2 P1 P1 55.36(4) 1_455 1_455
P1 P1 P1 180.0 3 1_655
P1 P1 P1 90.0 11_565 1_655
P1 P1 P1 103.54(16) 9_565 1_655
Cu1 P1 P1 96.37(8) . 1_655
Cu1 P1 P1 96.37(8) 9 1_655
Th1 P1 P1 52.96(5) 13 1_655
Th1 P1 P1 52.96(5) 5_554 1_655
Th1 P1 P1 134.48(5) 5_454 1_655
Th1 P1 P1 134.48(5) 13_455 1_655
P1 P1 P1 90.000(1) 11 1_655
P1 P1 P1 98.79(11) 9 1_655
P1 P1 P1 0.0 3_655 1_655
P2 P1 P1 62.03(5) . 1_655
P2 P1 P1 62.03(5) 9_655 1_655
P2 P1 P1 124.64(5) 9 1_655
P2 P1 P1 124.64(5) 1_455 1_655
P1 P1 P1 180.0 1_455 1_655
P1 P1 P1 147.96(9) 3 9_665
P1 P1 P1 57.96(9) 11_565 9_665
P1 P1 P1 71.50(16) 9_565 9_665
Cu1 P1 P1 118.31(11) . 9_665
Cu1 P1 P1 118.31(11) 9 9_665
Th1 P1 P1 44.72(5) 13 9_665
Th1 P1 P1 44.72(5) 5_554 9_665
Th1 P1 P1 114.53(10) 5_454 9_665
Th1 P1 P1 114.53(10) 13_455 9_665
P1 P1 P1 122.04(9) 11 9_665
P1 P1 P1 130.83(18) 9 9_665
P1 P1 P1 32.04(9) 3_655 9_665
P2 P1 P1 81.07(7) . 9_665
P2 P1 P1 81.07(7) 9_655 9_665
P2 P1 P1 135.04(4) 9 9_665
P2 P1 P1 135.04(4) 1_455 9_665
P1 P1 P1 147.96(9) 1_455 9_665
P1 P1 P1 32.04(9) 1_655 9_665
P1 P1 Cu1 86.43(4) 3 1_565
P1 P1 Cu1 23.06(3) 11_565 1_565
P1 P1 Cu1 24.61(5) 9_565 1_565
Cu1 P1 Cu1 112.75(6) . 1_565
Cu1 P1 Cu1 156.76(9) 9 1_565
Th1 P1 Cu1 54.45(5) 13 1_565
Th1 P1 Cu1 87.86(8) 5_554 1_565
Th1 P1 Cu1 83.66(7) 5_454 1_565
Th1 P1 Cu1 53.36(4) 13_455 1_565
P1 P1 Cu1 156.95(3) 11 1_565
P1 P1 Cu1 154.13(7) 9 1_565
P1 P1 Cu1 93.57(4) 3_655 1_565
P2 P1 Cu1 99.05(5) . 1_565
P2 P1 Cu1 137.89(8) 9_655 1_565
P2 P1 Cu1 128.93(8) 9 1_565
P2 P1 Cu1 94.82(5) 1_455 1_565
P1 P1 Cu1 86.43(4) 1_455 1_565
P1 P1 Cu1 93.57(4) 1_655 1_565
P1 P1 Cu1 64.19(8) 9_665 1_565
P1 P1 Cu1 86.43(4) 3 9_565
P1 P1 Cu1 23.06(3) 11_565 9_565
P1 P1 Cu1 24.61(5) 9_565 9_565
Cu1 P1 Cu1 156.76(9) . 9_565
Cu1 P1 Cu1 112.75(6) 9 9_565
Th1 P1 Cu1 87.86(8) 13 9_565
Th1 P1 Cu1 54.45(5) 5_554 9_565
Th1 P1 Cu1 53.36(4) 5_454 9_565
Th1 P1 Cu1 83.66(7) 13_455 9_565
P1 P1 Cu1 156.95(3) 11 9_565
P1 P1 Cu1 154.13(7) 9 9_565
P1 P1 Cu1 93.57(4) 3_655 9_565
P2 P1 Cu1 137.89(8) . 9_565
P2 P1 Cu1 99.05(5) 9_655 9_565
P2 P1 Cu1 94.82(5) 9 9_565
P2 P1 Cu1 128.93(8) 1_455 9_565
P1 P1 Cu1 86.43(4) 1_455 9_565
P1 P1 Cu1 93.57(4) 1_655 9_565
P1 P1 Cu1 64.19(8) 9_665 9_565
Cu1 P1 Cu1 45.49(5) 1_565 9_565
P1 P1 P2 86.46(4) 3 13
P1 P1 P2 75.12(5) 11_565 13
P1 P1 P2 74.68(5) 9_565 13
Cu1 P1 P2 60.89(3) . 13
Cu1 P1 P2 147.25(10) 9 13
Th1 P1 P2 42.424(16) 13 13
Th1 P1 P2 128.25(9) 5_554 13
Th1 P1 P2 118.47(8) 5_454 13
Th1 P1 P2 42.573(15) 13_455 13
P1 P1 P2 104.88(4) 11 13
P1 P1 P2 104.14(5) 9 13
P1 P1 P2 93.54(4) 3_655 13
P2 P1 P2 54.36(2) . 13
P2 P1 P2 151.08(9) 9_655 13
P2 P1 P2 138.87(8) 9 13
P2 P1 P2 52.78(3) 1_455 13
P1 P1 P2 86.46(4) 1_455 13
P1 P1 P2 93.54(4) 1_655 13
P1 P1 P2 85.19(5) 9_665 13
Cu1 P1 P2 52.19(3) 1_565 13
Cu1 P1 P2 97.63(7) 9_565 13
P1 P1 P2 86.46(4) 3 5_454
P1 P1 P2 75.12(5) 11_565 5_454
P1 P1 P2 74.68(5) 9_565 5_454
Cu1 P1 P2 147.25(10) . 5_454
Cu1 P1 P2 60.88(3) 9 5_454
Th1 P1 P2 128.25(9) 13 5_454
Th1 P1 P2 42.424(16) 5_554 5_454
Th1 P1 P2 42.573(15) 5_454 5_454
Th1 P1 P2 118.47(8) 13_455 5_454
P1 P1 P2 104.88(5) 11 5_454
P1 P1 P2 104.14(5) 9 5_454
P1 P1 P2 93.54(4) 3_655 5_454
P2 P1 P2 151.08(9) . 5_454
P2 P1 P2 54.36(2) 9_655 5_454
P2 P1 P2 52.78(3) 9 5_454
P2 P1 P2 138.87(8) 1_455 5_454
P1 P1 P2 86.46(4) 1_455 5_454
P1 P1 P2 93.54(4) 1_655 5_454
P1 P1 P2 85.19(5) 9_665 5_454
Cu1 P1 P2 97.63(7) 1_565 5_454
Cu1 P1 P2 52.19(3) 9_565 5_454
P2 P1 P2 149.37(9) 13 5_454
P1 P1 Cu1 147.87(4) 3 1_655
P1 P1 Cu1 112.56(4) 11_565 1_655
P1 P1 Cu1 124.83(17) 9_565 1_655
Cu1 P1 Cu1 64.24(7) . 1_655
Cu1 P1 Cu1 94.15(10) 9 1_655
Th1 P1 Cu1 51.34(5) 13 1_655
Th1 P1 Cu1 83.89(7) 5_554 1_655
Th1 P1 Cu1 162.60(5) 5_454 1_655
Th1 P1 Cu1 119.41(3) 13_455 1_655
P1 P1 Cu1 67.44(4) 11 1_655
P1 P1 Cu1 75.54(10) 9 1_655
P1 P1 Cu1 32.13(4) 3_655 1_655
P2 P1 Cu1 31.70(3) . 1_655
P2 P1 Cu1 72.90(6) 9_655 1_655
P2 P1 Cu1 125.27(8) 9 1_655
P2 P1 Cu1 93.37(5) 1_455 1_655
P1 P1 Cu1 147.87(4) 1_455 1_655
P1 P1 Cu1 32.13(4) 1_655 1_655
P1 P1 Cu1 59.04(7) 9_665 1_655
Cu1 P1 Cu1 105.27(6) 1_565 1_655
Cu1 P1 Cu1 123.24(8) 9_565 1_655
P2 P1 Cu1 78.21(3) 13 1_655
P2 P1 Cu1 120.40(6) 5_454 1_655
P1 P1 Cu1 147.87(4) 3 9_655
P1 P1 Cu1 112.56(4) 11_565 9_655
P1 P1 Cu1 124.83(17) 9_565 9_655
Cu1 P1 Cu1 94.15(10) . 9_655
Cu1 P1 Cu1 64.24(7) 9 9_655
Th1 P1 Cu1 83.89(7) 13 9_655
Th1 P1 Cu1 51.34(5) 5_554 9_655
Th1 P1 Cu1 119.41(3) 5_454 9_655
Th1 P1 Cu1 162.60(5) 13_455 9_655
P1 P1 Cu1 67.44(4) 11 9_655
P1 P1 Cu1 75.54(10) 9 9_655
P1 P1 Cu1 32.13(4) 3_655 9_655
P2 P1 Cu1 72.90(6) . 9_655
P2 P1 Cu1 31.70(3) 9_655 9_655
P2 P1 Cu1 93.37(5) 9 9_655
P2 P1 Cu1 125.27(8) 1_455 9_655
P1 P1 Cu1 147.87(4) 1_455 9_655
P1 P1 Cu1 32.13(4) 1_655 9_655
P1 P1 Cu1 59.04(7) 9_665 9_655
Cu1 P1 Cu1 123.24(8) 1_565 9_655
Cu1 P1 Cu1 105.27(6) 9_565 9_655
P2 P1 Cu1 120.40(6) 13 9_655
P2 P1 Cu1 78.21(3) 5_454 9_655
Cu1 P1 Cu1 43.22(4) 1_655 9_655
P1 P1 P1 0.0 3 3_455
P1 P1 P1 90.0 11_565 3_455
P1 P1 P1 76.46(16) 9_565 3_455
Cu1 P1 P1 83.63(8) . 3_455
Cu1 P1 P1 83.63(8) 9 3_455
Th1 P1 P1 127.04(6) 13 3_455
Th1 P1 P1 127.04(5) 5_554 3_455
Th1 P1 P1 45.52(5) 5_454 3_455
Th1 P1 P1 45.52(5) 13_455 3_455
P1 P1 P1 90.0 11 3_455
P1 P1 P1 81.21(11) 9 3_455
P1 P1 P1 180.0 3_655 3_455
P2 P1 P1 117.97(5) . 3_455
P2 P1 P1 117.97(5) 9_655 3_455
P2 P1 P1 55.36(4) 9 3_455
P2 P1 P1 55.36(5) 1_455 3_455
P1 P1 P1 0.0 1_455 3_455
P1 P1 P1 180.0 1_655 3_455
P1 P1 P1 147.96(9) 9_665 3_455
Cu1 P1 P1 86.43(4) 1_565 3_455
Cu1 P1 P1 86.43(4) 9_565 3_455
P2 P1 P1 86.46(4) 13 3_455
P2 P1 P1 86.46(4) 5_454 3_455
Cu1 P1 P1 147.87(4) 1_655 3_455
Cu1 P1 P1 147.87(4) 9_655 3_455
P1 P1 P1 28.54(7) 3 11_465
P1 P1 P1 61.46(7) 11_565 11_465
P1 P1 P1 47.92(16) 9_565 11_465
Cu1 P1 P1 104.19(8) . 11_465
Cu1 P1 P1 104.19(8) 9 11_465
Th1 P1 P1 110.43(11) 13 11_465
Th1 P1 P1 110.43(11) 5_554 11_465
Th1 P1 P1 39.06(4) 5_454 11_465
Th1 P1 P1 39.06(4) 13_455 11_465
P1 P1 P1 118.54(7) 11 11_465
P1 P1 P1 109.75(12) 9 11_465
P1 P1 P1 151.46(7) 3_655 11_465
P2 P1 P1 129.07(4) . 11_465
P2 P1 P1 129.07(4) 9_655 11_465
P2 P1 P1 72.78(4) 9 11_465
P2 P1 P1 72.78(4) 1_455 11_465
P1 P1 P1 28.54(7) 1_455 11_465
P1 P1 P1 151.46(7) 1_655 11_465
P1 P1 P1 119.42(16) 9_665 11_465
Cu1 P1 P1 60.38(8) 1_565 11_465
Cu1 P1 P1 60.38(8) 9_565 11_465
P2 P1 P1 79.81(5) 13 11_465
P2 P1 P1 79.81(5) 5_454 11_465
Cu1 P1 P1 158.01(3) 1_655 11_465
Cu1 P1 P1 158.01(3) 9_655 11_465
P1 P1 P1 28.54(7) 3_455 11_465
P1 P1 P1 151.46(8) 3 11_665
P1 P1 P1 61.46(8) 11_565 11_665
P1 P1 P1 75.00(19) 9_565 11_665
Cu1 P1 P1 116.10(8) . 11_665
Cu1 P1 P1 116.10(8) 9 11_665
Th1 P1 P1 44.82(5) 13 11_665
Th1 P1 P1 44.82(5) 5_554 11_665
Th1 P1 P1 117.04(10) 5_454 11_665
Th1 P1 P1 117.04(10) 13_455 11_665
P1 P1 P1 118.54(7) 11 11_665
P1 P1 P1 127.33(14) 9 11_665
P1 P1 P1 28.54(7) 3_655 11_665
P2 P1 P1 78.83(5) . 11_665
P2 P1 P1 78.83(5) 9_655 11_665
P2 P1 P1 134.65(4) 9 11_665
P2 P1 P1 134.65(4) 1_455 11_665
P1 P1 P1 151.46(7) 1_455 11_665
P1 P1 P1 28.54(7) 1_655 11_665
P1 P1 P1 3.50(5) 9_665 11_665
Cu1 P1 P1 67.36(8) 1_565 11_665
Cu1 P1 P1 67.36(8) 9_565 11_665
P2 P1 P1 86.08(5) 13 11_665
P2 P1 P1 86.08(5) 5_454 11_665
Cu1 P1 P1 55.90(4) 1_655 11_665
Cu1 P1 P1 55.90(4) 9_655 11_665
P1 P1 P1 151.46(7) 3_455 11_665
P1 P1 P1 122.92(15) 11_465 11_665
P1 P1 P1 135.75(8) 3 9_655
P1 P1 P1 134.25(8) 11_565 9_655
P1 P1 P1 147.8(2) 9_565 9_655
Cu1 P1 P1 65.11(8) . 9_655
Cu1 P1 P1 65.11(8) 9 9_655
Th1 P1 P1 80.30(8) 13 9_655
Th1 P1 P1 80.30(8) 5_554 9_655
Th1 P1 P1 137.48(6) 5_454 9_655
Th1 P1 P1 137.48(6) 13_455 9_655
P1 P1 P1 45.75(8) 11 9_655
P1 P1 P1 54.54(9) 9 9_655
P1 P1 P1 44.25(8) 3_655 9_655
P2 P1 P1 49.10(5) . 9_655
P2 P1 P1 49.10(5) 9_655 9_655
P2 P1 P1 96.33(8) 9 9_655
P2 P1 P1 96.33(8) 1_455 9_655
P1 P1 P1 135.75(8) 1_455 9_655
P1 P1 P1 44.25(8) 1_655 9_655
P1 P1 P1 76.29(10) 9_665 9_655
Cu1 P1 P1 133.37(9) 1_565 9_655
Cu1 P1 P1 133.37(9) 9_565 9_655
P2 P1 P1 102.91(5) 13 9_655
P2 P1 P1 102.91(5) 5_454 9_655
Cu1 P1 P1 29.04(3) 1_655 9_655
Cu1 P1 P1 29.04(3) 9_655 9_655
P1 P1 P1 135.75(8) 3_455 9_655
P1 P1 P1 164.29(14) 11_465 9_655
P1 P1 P1 72.79(6) 11_665 9_655
P1 P1 Cu1 28.84(3) 3 9_455
P1 P1 Cu1 110.37(4) 11_565 9_455
P1 P1 Cu1 97.66(16) 9_565 9_455
Cu1 P1 Cu1 83.30(8) . 9_455
Cu1 P1 Cu1 54.79(6) 9 9_455
Th1 P1 Cu1 153.37(6) 13 9_455
Th1 P1 Cu1 115.07(4) 5_554 9_455
Th1 P1 Cu1 45.04(4) 5_454 9_455
Th1 P1 Cu1 73.36(6) 13_455 9_455
P1 P1 Cu1 69.63(4) 11 9_455
P1 P1 Cu1 61.46(9) 9 9_455
P1 P1 Cu1 151.15(3) 3_655 9_455
P2 P1 Cu1 120.29(7) . 9_455
P2 P1 Cu1 89.96(5) 9_655 9_455
P2 P1 Cu1 28.20(3) 9 9_455
P2 P1 Cu1 65.74(6) 1_455 9_455
P1 P1 Cu1 28.85(3) 1_455 9_455
P1 P1 Cu1 151.15(3) 1_655 9_455
P1 P1 Cu1 157.99(6) 9_665 9_455
Cu1 P1 Cu1 113.26(7) 1_565 9_455
Cu1 P1 Cu1 97.85(5) 9_565 9_455
P2 P1 Cu1 110.94(6) 13 9_455
P2 P1 Cu1 73.32(3) 5_454 9_455
Cu1 P1 Cu1 137.00(8) 1_655 9_455
Cu1 P1 Cu1 119.03(6) 9_655 9_455
P1 P1 Cu1 28.85(3) 3_455 9_455
P1 P1 Cu1 52.90(4) 11_465 9_455
P1 P1 Cu1 159.35(4) 11_665 9_455
P1 P1 Cu1 112.61(10) 9_655 9_455
P1 P1 Cu1 28.84(3) 3 1_455
P1 P1 Cu1 110.37(4) 11_565 1_455
P1 P1 Cu1 97.66(16) 9_565 1_455
Cu1 P1 Cu1 54.79(6) . 1_455
Cu1 P1 Cu1 83.30(8) 9 1_455
Th1 P1 Cu1 115.07(4) 13 1_455
Th1 P1 Cu1 153.37(6) 5_554 1_455
Th1 P1 Cu1 73.36(6) 5_454 1_455
Th1 P1 Cu1 45.04(4) 13_455 1_455
P1 P1 Cu1 69.63(4) 11 1_455
P1 P1 Cu1 61.46(9) 9 1_455
P1 P1 Cu1 151.15(3) 3_655 1_455
P2 P1 Cu1 89.96(5) . 1_455
P2 P1 Cu1 120.29(7) 9_655 1_455
P2 P1 Cu1 65.74(6) 9 1_455
P2 P1 Cu1 28.20(3) 1_455 1_455
P1 P1 Cu1 28.85(3) 1_455 1_455
P1 P1 Cu1 151.15(3) 1_655 1_455
P1 P1 Cu1 157.99(6) 9_665 1_455
Cu1 P1 Cu1 97.85(5) 1_565 1_455
Cu1 P1 Cu1 113.26(7) 9_565 1_455
P2 P1 Cu1 73.32(3) 13 1_455
P2 P1 Cu1 110.94(6) 5_454 1_455
Cu1 P1 Cu1 119.03(6) 1_655 1_455
Cu1 P1 Cu1 137.00(8) 9_655 1_455
P1 P1 Cu1 28.85(3) 3_455 1_455
P1 P1 Cu1 52.90(4) 11_465 1_455
P1 P1 Cu1 159.35(4) 11_665 1_455
P1 P1 Cu1 112.61(10) 9_655 1_455
Cu1 P1 Cu1 39.04(4) 9_455 1_455
P1 P1 P1 25.68(8) 3 9_465
P1 P1 P1 64.32(8) 11_565 9_465
P1 P1 P1 50.78(13) 9_565 9_465
Cu1 P1 P1 102.17(10) . 9_465
Cu1 P1 P1 102.17(10) 9 9_465
Th1 P1 P1 112.30(9) 13 9_465
Th1 P1 P1 112.30(9) 5_554 9_465
Th1 P1 P1 38.97(4) 5_454 9_465
Th1 P1 P1 38.97(4) 13_455 9_465
P1 P1 P1 115.68(8) 11 9_465
P1 P1 P1 106.89(14) 9 9_465
P1 P1 P1 154.32(8) 3_655 9_465
P2 P1 P1 128.36(5) . 9_465
P2 P1 P1 128.36(5) 9_655 9_465
P2 P1 P1 70.86(6) 9 9_465
P2 P1 P1 70.86(6) 1_455 9_465
P1 P1 P1 25.68(8) 1_455 9_465
P1 P1 P1 154.32(8) 1_655 9_465
P1 P1 P1 122.28(15) 9_665 9_465
Cu1 P1 P1 62.94(7) 1_565 9_465
Cu1 P1 P1 62.94(7) 9_565 9_465
P2 P1 P1 80.39(5) 13 9_465
P2 P1 P1 80.39(5) 5_454 9_465
Cu1 P1 P1 158.35(2) 1_655 9_465
Cu1 P1 P1 158.35(2) 9_655 9_465
P1 P1 P1 25.68(8) 3_455 9_465
P1 P1 P1 2.86(3) 11_465 9_465
P1 P1 P1 125.78(15) 11_665 9_465
P1 P1 P1 161.43(15) 9_655 9_465
Cu1 P1 P1 50.32(5) 9_455 9_465
Cu1 P1 P1 50.32(5) 1_455 9_465
P1 P1 P2 110.00(4) 3 1_565
P1 P1 P2 40.44(4) 11_565 1_565
P1 P1 P2 48.70(10) 9_565 1_565
Cu1 P1 P2 101.79(5) . 1_565
Cu1 P1 P2 164.35(10) 9 1_565
Th1 P1 P2 28.28(4) 13 1_565
Th1 P1 P2 83.97(7) 5_554 1_565
Th1 P1 P2 109.25(8) 5_454 1_565
Th1 P1 P2 68.69(5) 13_455 1_565
P1 P1 P2 139.56(4) 11 1_565
P1 P1 P2 143.56(6) 9 1_565
P1 P1 P2 70.00(4) 3_655 1_565
P2 P1 P2 76.75(5) . 1_565
P2 P1 P2 127.15(8) 9_655 1_565
P2 P1 P2 155.01(8) 9 1_565
P2 P1 P2 97.49(5) 1_455 1_565
P1 P1 P2 110.00(4) 1_455 1_565
P1 P1 P2 70.00(4) 1_655 1_565
P1 P1 P2 46.08(5) 9_665 1_565
Cu1 P1 P2 26.86(2) 1_565 1_565
Cu1 P1 P2 62.23(5) 9_565 1_565
P2 P1 P2 45.10(4) 13 1_565
P2 P1 P2 110.93(7) 5_454 1_565
Cu1 P1 P2 78.43(4) 1_655 1_565
Cu1 P1 P2 101.85(6) 9_655 1_565
P1 P1 P2 110.00(4) 3_455 1_565
P1 P1 P2 86.37(9) 11_465 1_565
P1 P1 P2 48.39(6) 11_665 1_565
P1 P1 P2 106.63(8) 9_655 1_565
Cu1 P1 P2 138.47(7) 9_455 1_565
Cu1 P1 P2 112.35(4) 1_455 1_565
P1 P1 P2 88.76(8) 9_465 1_565
P1 P1 P2 110.00(4) 3 9_665
P1 P1 P2 40.44(4) 11_565 9_665
P1 P1 P2 48.70(10) 9_565 9_665
Cu1 P1 P2 164.35(10) . 9_665
Cu1 P1 P2 101.79(5) 9 9_665
Th1 P1 P2 83.97(7) 13 9_665
Th1 P1 P2 28.28(4) 5_554 9_665
Th1 P1 P2 68.69(5) 5_454 9_665
Th1 P1 P2 109.25(8) 13_455 9_665
P1 P1 P2 139.56(4) 11 9_665
P1 P1 P2 143.56(6) 9 9_665
P1 P1 P2 70.00(4) 3_655 9_665
P2 P1 P2 127.15(8) . 9_665
P2 P1 P2 76.75(5) 9_655 9_665
P2 P1 P2 97.49(5) 9 9_665
P2 P1 P2 155.01(8) 1_455 9_665
P1 P1 P2 110.00(4) 1_455 9_665
P1 P1 P2 70.00(4) 1_655 9_665
P1 P1 P2 46.08(5) 9_665 9_665
Cu1 P1 P2 62.23(5) 1_565 9_665
Cu1 P1 P2 26.86(2) 9_565 9_665
P2 P1 P2 110.93(7) 13 9_665
P2 P1 P2 45.10(4) 5_454 9_665
Cu1 P1 P2 101.85(6) 1_655 9_665
Cu1 P1 P2 78.43(4) 9_655 9_665
P1 P1 P2 110.00(4) 3_455 9_665
P1 P1 P2 86.37(9) 11_465 9_665
P1 P1 P2 48.39(6) 11_665 9_665
P1 P1 P2 106.63(8) 9_655 9_665
Cu1 P1 P2 112.35(4) 9_455 9_665
Cu1 P1 P2 138.47(7) 1_455 9_665
P1 P1 P2 88.76(8) 9_465 9_665
P2 P1 P2 66.89(7) 1_565 9_665
P1 P1 Th1 87.08(4) 3 .
P1 P1 Th1 109.20(4) 11_565 .
P1 P1 Th1 107.93(4) 9_565 .
Cu1 P1 Th1 27.07(3) . .
Cu1 P1 Th1 114.06(9) 9 .
Th1 P1 Th1 59.41(2) 13 .
Th1 P1 Th1 144.89(8) 5_554 .
Th1 P1 Th1 131.93(7) 5_454 .
Th1 P1 Th1 58.808(18) 13_455 .
P1 P1 Th1 70.80(4) 11 .
P1 P1 Th1 70.57(4) 9 .
P1 P1 Th1 92.91(4) 3_655 .
P2 P1 Th1 32.95(3) . .
P2 P1 Th1 125.90(8) 9_655 .
P2 P1 Th1 119.68(7) 9 .
P2 P1 Th1 33.61(3) 1_455 .
P1 P1 Th1 87.09(4) 1_455 .
P1 P1 Th1 92.91(4) 1_655 .
P1 P1 Th1 102.56(4) 9_665 .
Cu1 P1 Th1 86.26(3) 1_565 .
Cu1 P1 Th1 131.61(6) 9_565 .
P2 P1 Th1 34.082(16) 13 .
P2 P1 Th1 172.23(8) 5_454 .
Cu1 P1 Th1 64.51(3) 1_655 .
Cu1 P1 Th1 105.32(6) 9_655 .
P1 P1 Th1 87.09(3) 3_455 .
P1 P1 Th1 96.46(3) 11_465 .
P1 P1 Th1 101.64(3) 11_665 .
P1 P1 Th1 78.87(4) 9_655 .
Cu1 P1 Th1 98.98(5) 9_455 .
Cu1 P1 Th1 61.70(3) 1_455 .
P1 P1 Th1 95.55(4) 9_465 .
P2 P1 Th1 75.40(3) 1_565 .
P2 P1 Th1 141.94(6) 9_665 .
P1 P1 Th1 87.08(4) 3 9
P1 P1 Th1 109.20(4) 11_565 9
P1 P1 Th1 107.93(4) 9_565 9
Cu1 P1 Th1 114.06(9) . 9
Cu1 P1 Th1 27.07(3) 9 9
Th1 P1 Th1 144.89(8) 13 9
Th1 P1 Th1 59.41(2) 5_554 9
Th1 P1 Th1 58.808(18) 5_454 9
Th1 P1 Th1 131.93(7) 13_455 9
P1 P1 Th1 70.80(4) 11 9
P1 P1 Th1 70.57(4) 9 9
P1 P1 Th1 92.91(4) 3_655 9
P2 P1 Th1 125.90(8) . 9
P2 P1 Th1 32.95(3) 9_655 9
P2 P1 Th1 33.61(3) 9 9
P2 P1 Th1 119.68(7) 1_455 9
P1 P1 Th1 87.09(4) 1_455 9
P1 P1 Th1 92.91(3) 1_655 9
P1 P1 Th1 102.56(4) 9_665 9
Cu1 P1 Th1 131.60(6) 1_565 9
Cu1 P1 Th1 86.26(3) 9_565 9
P2 P1 Th1 172.23(8) 13 9
P2 P1 Th1 34.082(17) 5_454 9
Cu1 P1 Th1 105.32(6) 1_655 9
Cu1 P1 Th1 64.51(3) 9_655 9
P1 P1 Th1 87.09(4) 3_455 9
P1 P1 Th1 96.46(3) 11_465 9
P1 P1 Th1 101.64(3) 11_665 9
P1 P1 Th1 78.87(4) 9_655 9
Cu1 P1 Th1 61.70(3) 9_455 9
Cu1 P1 Th1 98.98(5) 1_455 9
P1 P1 Th1 95.55(4) 9_465 9
P2 P1 Th1 141.94(6) 1_565 9
P2 P1 Th1 75.40(3) 9_665 9
Th1 P1 Th1 141.13(7) . 9
P1 P1 Th1 109.48(3) 3 5_544
P1 P1 Th1 149.15(3) 11_565 5_544
P1 P1 Th1 155.88(6) 9_565 5_544
Cu1 P1 Th1 71.91(8) . 5_544
Cu1 P1 Th1 32.15(5) 9 5_544
Th1 P1 Th1 113.38(9) 13 5_544
Th1 P1 Th1 81.30(6) 5_554 5_544
Th1 P1 Th1 106.14(5) 5_454 5_544
Th1 P1 Th1 140.17(8) 13_455 5_544
P1 P1 Th1 30.85(3) 11 5_544
P1 P1 Th1 37.11(7) 9 5_544
P1 P1 Th1 70.52(3) 3_655 5_544
P2 P1 Th1 75.27(6) . 5_544
P2 P1 Th1 32.53(3) 9_655 5_544
P2 P1 Th1 63.25(4) 9 5_544
P2 P1 Th1 95.65(7) 1_455 5_544
P1 P1 Th1 109.48(3) 1_455 5_544
P1 P1 Th1 70.52(3) 1_655 5_544
P1 P1 Th1 99.95(10) 9_665 5_544
Cu1 P1 Th1 164.01(8) 1_565 5_544
Cu1 P1 Th1 131.31(3) 9_565 5_544
P2 P1 Th1 128.08(6) 13 5_544
P2 P1 Th1 82.26(3) 5_454 5_544
Cu1 P1 Th1 62.07(4) 1_655 5_544
Cu1 P1 Th1 40.95(3) 9_655 5_544
P1 P1 Th1 109.48(3) 3_455 5_544
P1 P1 Th1 134.68(8) 11_465 5_544
P1 P1 Th1 96.73(7) 11_665 5_544
P1 P1 Th1 33.07(4) 9_655 5_544
Cu1 P1 Th1 82.14(5) 9_455 5_544
Cu1 P1 Th1 97.09(6) 1_455 5_544
P1 P1 Th1 132.27(9) 9_465 5_544
P2 P1 Th1 138.95(7) 1_565 5_544
P2 P1 Th1 108.95(4) 9_665 5_544
Th1 P1 Th1 95.85(5) . 5_544
Th1 P1 Th1 50.75(2) 9 5_544
P1 P1 Th1 109.48(3) 3 13_545
P1 P1 Th1 149.15(3) 11_565 13_545
P1 P1 Th1 155.88(6) 9_565 13_545
Cu1 P1 Th1 32.15(5) . 13_545
Cu1 P1 Th1 71.91(8) 9 13_545
Th1 P1 Th1 81.30(6) 13 13_545
Th1 P1 Th1 113.38(9) 5_554 13_545
Th1 P1 Th1 140.17(8) 5_454 13_545
Th1 P1 Th1 106.14(5) 13_455 13_545
P1 P1 Th1 30.85(3) 11 13_545
P1 P1 Th1 37.11(7) 9 13_545
P1 P1 Th1 70.52(3) 3_655 13_545
P2 P1 Th1 32.53(3) . 13_545
P2 P1 Th1 75.27(6) 9_655 13_545
P2 P1 Th1 95.65(7) 9 13_545
P2 P1 Th1 63.25(4) 1_455 13_545
P1 P1 Th1 109.48(3) 1_455 13_545
P1 P1 Th1 70.52(3) 1_655 13_545
P1 P1 Th1 99.95(10) 9_665 13_545
Cu1 P1 Th1 131.31(3) 1_565 13_545
Cu1 P1 Th1 164.01(8) 9_565 13_545
P2 P1 Th1 82.26(3) 13 13_545
P2 P1 Th1 128.08(6) 5_454 13_545
Cu1 P1 Th1 40.95(3) 1_655 13_545
Cu1 P1 Th1 62.07(4) 9_655 13_545
P1 P1 Th1 109.48(3) 3_455 13_545
P1 P1 Th1 134.68(7) 11_465 13_545
P1 P1 Th1 96.73(7) 11_665 13_545
P1 P1 Th1 33.07(4) 9_655 13_545
Cu1 P1 Th1 97.09(6) 9_455 13_545
Cu1 P1 Th1 82.14(5) 1_455 13_545
P1 P1 Th1 132.27(9) 9_465 13_545
P2 P1 Th1 108.95(4) 1_565 13_545
P2 P1 Th1 138.95(7) 9_665 13_545
Th1 P1 Th1 50.75(2) . 13_545
Th1 P1 Th1 95.85(5) 9 13_545
Th1 P1 Th1 45.85(3) 5_544 13_545
P1 P1 P1 40.25(6) 3 11_455
P1 P1 P1 130.25(6) 11_565 11_455
P1 P1 P1 116.72(16) 9_565 11_455
Cu1 P1 P1 56.78(9) . 11_455
Cu1 P1 P1 56.78(9) 9 11_455
Th1 P1 P1 134.69(5) 13 11_455
Th1 P1 P1 134.69(5) 5_554 11_455
Th1 P1 P1 71.52(4) 5_454 11_455
Th1 P1 P1 71.52(4) 13_455 11_455
P1 P1 P1 49.75(6) 11 11_455
P1 P1 P1 40.95(11) 9 11_455
P1 P1 P1 139.75(6) 3_655 11_455
P2 P1 P1 93.59(8) . 11_455
P2 P1 P1 93.59(8) 9_655 11_455
P2 P1 P1 44.86(4) 9 11_455
P2 P1 P1 44.86(4) 1_455 11_455
P1 P1 P1 40.25(6) 1_455 11_455
P1 P1 P1 139.75(6) 1_655 11_455
P1 P1 P1 171.78(15) 9_665 11_455
Cu1 P1 P1 123.16(6) 1_565 11_455
Cu1 P1 P1 123.16(6) 9_565 11_455
P2 P1 P1 96.82(4) 13 11_455
P2 P1 P1 96.82(4) 5_454 11_455
Cu1 P1 P1 113.48(9) 1_655 11_455
Cu1 P1 P1 113.48(9) 9_655 11_455
P1 P1 P1 40.25(6) 3_455 11_455
P1 P1 P1 68.79(3) 11_465 11_455
P1 P1 P1 168.29(13) 11_665 11_455
P1 P1 P1 95.49(12) 9_655 11_455
Cu1 P1 P1 26.698(14) 9_455 11_455
Cu1 P1 P1 26.698(14) 1_455 11_455
P1 P1 P1 65.94(4) 9_465 11_455
P2 P1 P1 138.83(4) 1_565 11_455
P2 P1 P1 138.83(4) 9_665 11_455
Th1 P1 P1 75.45(4) . 11_455
Th1 P1 P1 75.45(4) 9 11_455
Th1 P1 P1 72.53(7) 5_544 11_455
Th1 P1 P1 72.53(7) 13_545 11_455
P1 P1 P1 139.74(6) 3 11_655
P1 P1 P1 130.25(6) 11_565 11_655
P1 P1 P1 143.79(18) 9_565 11_655
Cu1 P1 P1 67.75(10) . 11_655
Cu1 P1 P1 67.75(10) 9 11_655
Th1 P1 P1 77.52(4) 13 11_655
Th1 P1 P1 77.52(4) 5_554 11_655
Th1 P1 P1 138.80(6) 5_454 11_655
Th1 P1 P1 138.80(6) 13_455 11_655
P1 P1 P1 49.75(6) 11 11_655
P1 P1 P1 58.54(13) 9 11_655
P1 P1 P1 40.25(6) 3_655 11_655
P2 P1 P1 49.22(5) . 11_655
P2 P1 P1 49.22(5) 9_655 11_655
P2 P1 P1 99.14(8) 9 11_655
P2 P1 P1 99.14(8) 1_455 11_655
P1 P1 P1 139.75(6) 1_455 11_655
P1 P1 P1 40.25(6) 1_655 11_655
P1 P1 P1 72.29(6) 9_665 11_655
Cu1 P1 P1 129.95(6) 1_565 11_655
Cu1 P1 P1 129.95(6) 9_565 11_655
P2 P1 P1 102.31(4) 13 11_655
P2 P1 P1 102.31(4) 5_454 11_655
Cu1 P1 P1 26.592(13) 1_655 11_655
Cu1 P1 P1 26.592(13) 9_655 11_655
P1 P1 P1 139.75(6) 3_455 11_655
P1 P1 P1 168.29(13) 11_465 11_655
P1 P1 P1 68.79(3) 11_665 11_655
P1 P1 P1 4.00(5) 9_655 11_655
Cu1 P1 P1 116.33(9) 9_455 11_655
Cu1 P1 P1 116.33(9) 1_455 11_655
P1 P1 P1 165.43(13) 9_465 11_655
P2 P1 P1 103.35(4) 1_565 11_655
P2 P1 P1 103.35(4) 9_665 11_655
Th1 P1 P1 80.00(5) . 11_655
Th1 P1 P1 80.00(5) 9 11_655
Th1 P1 P1 35.98(5) 5_544 11_655
Th1 P1 P1 35.98(5) 13_545 11_655
P1 P1 P1 99.49(11) 11_455 11_655
Cu1 P2 Cu1 119.10(12) 1_655 .
Cu1 P2 Th1 164.67(9) 1_655 .
Cu1 P2 Th1 76.23(4) . .
Cu1 P2 Th1 76.23(4) 1_655 1_655
Cu1 P2 Th1 164.67(9) . 1_655
Th1 P2 Th1 88.44(7) . 1_655
Cu1 P2 Th1 82.22(4) 1_655 13_545
Cu1 P2 Th1 82.22(4) . 13_545
Th1 P2 Th1 101.04(3) . 13_545
Th1 P2 Th1 101.04(3) 1_655 13_545
Cu1 P2 Th1 82.22(4) 1_655 13
Cu1 P2 Th1 82.22(4) . 13
Th1 P2 Th1 101.04(3) . 13
Th1 P2 Th1 101.04(3) 1_655 13
Th1 P2 Th1 149.00(10) 13_545 13
Cu1 P2 P2 72.94(3) 1_655 13_655
Cu1 P2 P2 130.48(3) . 13_655
Th1 P2 P2 97.46(8) . 13_655
Th1 P2 P2 50.74(4) 1_655 13_655
Th1 P2 P2 145.727(17) 13_545 13_655
Th1 P2 P2 50.30(2) 13 13_655
Cu1 P2 P2 130.48(3) 1_655 13_545
Cu1 P2 P2 72.94(3) . 13_545
Th1 P2 P2 50.74(4) . 13_545
Th1 P2 P2 97.46(8) 1_655 13_545
Th1 P2 P2 50.30(2) 13_545 13_545
Th1 P2 P2 145.727(17) 13 13_545
P2 P2 P2 138.91(15) 13_655 13_545
Cu1 P2 P2 130.48(3) 1_655 13
Cu1 P2 P2 72.94(3) . 13
Th1 P2 P2 50.74(4) . 13
Th1 P2 P2 97.46(8) 1_655 13
Th1 P2 P2 145.727(17) 13_545 13
Th1 P2 P2 50.30(2) 13 13
P2 P2 P2 66.28(4) 13_655 13
P2 P2 P2 98.97(7) 13_545 13
Cu1 P2 P2 72.94(3) 1_655 13_645
Cu1 P2 P2 130.48(3) . 13_645
Th1 P2 P2 97.46(8) . 13_645
Th1 P2 P2 50.74(4) 1_655 13_645
Th1 P2 P2 50.30(2) 13_545 13_645
Th1 P2 P2 145.727(17) 13 13_645
P2 P2 P2 98.97(7) 13_655 13_645
P2 P2 P2 66.28(4) 13_545 13_645
P2 P2 P2 138.91(15) 13 13_645
Cu1 P2 P1 91.22(8) 1_655 11
Cu1 P2 P1 38.06(6) . 11
Th1 P2 P1 102.39(4) . 11
Th1 P2 P1 150.31(5) 1_655 11
Th1 P2 P1 50.04(6) 13_545 11
Th1 P2 P1 103.79(8) 13 11
P2 P2 P1 150.34(10) 13_655 11
P2 P2 P1 70.22(6) 13_545 11
P2 P2 P1 110.87(7) 13 11
P2 P2 P1 100.04(7) 13_645 11
Cu1 P2 P1 38.06(6) 1_655 9_655
Cu1 P2 P1 91.22(9) . 9_655
Th1 P2 P1 150.31(5) . 9_655
Th1 P2 P1 102.39(4) 1_655 9_655
Th1 P2 P1 50.04(6) 13_545 9_655
Th1 P2 P1 103.79(8) 13 9_655
P2 P2 P1 110.87(7) 13_655 9_655
P2 P2 P1 100.04(7) 13_545 9_655
P2 P2 P1 150.34(10) 13 9_655
P2 P2 P1 70.22(6) 13_645 9_655
P1 P2 P1 55.93(10) 11 9_655
Cu1 P2 P1 38.06(6) 1_655 3_655
Cu1 P2 P1 91.22(8) . 3_655
Th1 P2 P1 150.31(5) . 3_655
Th1 P2 P1 102.39(5) 1_655 3_655
Th1 P2 P1 103.79(8) 13_545 3_655
Th1 P2 P1 50.04(6) 13 3_655
P2 P2 P1 70.22(6) 13_655 3_655
P2 P2 P1 150.34(10) 13_545 3_655
P2 P2 P1 100.04(7) 13 3_655
P2 P2 P1 110.87(7) 13_645 3_655
P1 P2 P1 81.80(9) 11 3_655
P1 P2 P1 54.37(10) 9_655 3_655
Cu1 P2 P1 91.22(8) 1_655 .
Cu1 P2 P1 38.06(6) . .
Th1 P2 P1 102.39(4) . .
Th1 P2 P1 150.31(5) 1_655 .
Th1 P2 P1 103.79(8) 13_545 .
Th1 P2 P1 50.04(6) 13 .
P2 P2 P1 100.04(7) 13_655 .
P2 P2 P1 110.87(7) 13_545 .
P2 P2 P1 70.22(6) 13 .
P2 P2 P1 150.34(10) 13_645 .
P1 P2 P1 54.37(10) 11 .
P1 P2 P1 81.80(9) 9_655 .
P1 P2 P1 55.93(10) 3_655 .
Cu1 P2 Cu1 109.62(3) 1_655 13
Cu1 P2 Cu1 109.62(3) . 13
Th1 P2 Cu1 61.66(4) . 13
Th1 P2 Cu1 61.66(4) 1_655 13
Th1 P2 Cu1 154.01(8) 13_545 13
Th1 P2 Cu1 56.99(3) 13 13
P2 P2 Cu1 36.68(4) 13_655 13
P2 P2 Cu1 109.69(9) 13_545 13
P2 P2 Cu1 36.68(4) 13 13
P2 P2 Cu1 109.69(9) 13_645 13
P1 P2 Cu1 147.46(5) 11 13
P1 P2 Cu1 147.46(5) 9_655 13
P1 P2 Cu1 99.12(5) 3_655 13
P1 P2 Cu1 99.12(5) . 13
Cu1 P2 Cu1 109.62(3) 1_655 13_545
Cu1 P2 Cu1 109.62(3) . 13_545
Th1 P2 Cu1 61.66(4) . 13_545
Th1 P2 Cu1 61.66(4) 1_655 13_545
Th1 P2 Cu1 56.99(3) 13_545 13_545
Th1 P2 Cu1 154.01(8) 13 13_545
P2 P2 Cu1 109.69(9) 13_655 13_545
P2 P2 Cu1 36.68(4) 13_545 13_545
P2 P2 Cu1 109.69(9) 13 13_545
P2 P2 Cu1 36.68(4) 13_645 13_545
P1 P2 Cu1 99.12(5) 11 13_545
P1 P2 Cu1 99.12(5) 9_655 13_545
P1 P2 Cu1 147.46(5) 3_655 13_545
P1 P2 Cu1 147.46(5) . 13_545
Cu1 P2 Cu1 97.02(7) 13 13_545
Cu1 P2 P1 97.66(8) 1_655 9
Cu1 P2 P1 32.13(6) . 9
Th1 P2 P1 96.21(4) . 9
Th1 P2 P1 154.30(5) 1_655 9
Th1 P2 P1 53.26(6) 13_545 9
Th1 P2 P1 102.83(7) 13 9
P2 P2 P1 151.82(10) 13_655 9
P2 P2 P1 67.22(6) 13_545 9
P2 P2 P1 105.06(7) 13 9
P2 P2 P1 103.55(7) 13_645 9
P1 P2 P1 6.68(8) 11 9
P1 P2 P1 62.61(5) 9_655 9
P1 P2 P1 85.92(7) 3_655 9
P1 P2 P1 52.82(9) . 9
Cu1 P2 P1 141.74(5) 13 9
Cu1 P2 P1 98.49(4) 13_545 9
Cu1 P2 P1 97.66(8) 1_655 3
Cu1 P2 P1 32.13(6) . 3
Th1 P2 P1 96.21(4) . 3
Th1 P2 P1 154.30(5) 1_655 3
Th1 P2 P1 102.83(7) 13_545 3
Th1 P2 P1 53.26(6) 13 3
P2 P2 P1 103.55(7) 13_655 3
P2 P2 P1 105.06(7) 13_545 3
P2 P2 P1 67.22(6) 13 3
P2 P2 P1 151.82(10) 13_645 3
P1 P2 P1 52.82(9) 11 3
P1 P2 P1 85.92(7) 9_655 3
P1 P2 P1 62.61(5) 3_655 3
P1 P2 P1 6.68(8) . 3
Cu1 P2 P1 98.49(4) 13 3
Cu1 P2 P1 141.74(5) 13_545 3
P1 P2 P1 50.38(10) 9 3
Cu1 P2 P1 32.13(6) 1_655 11_655
Cu1 P2 P1 97.66(8) . 11_655
Th1 P2 P1 154.30(5) . 11_655
Th1 P2 P1 96.21(4) 1_655 11_655
Th1 P2 P1 53.26(6) 13_545 11_655
Th1 P2 P1 102.83(7) 13 11_655
P2 P2 P1 105.06(7) 13_655 11_655
P2 P2 P1 103.55(7) 13_545 11_655
P2 P2 P1 151.82(10) 13 11_655
P2 P2 P1 67.22(6) 13_645 11_655
P1 P2 P1 62.61(5) 11 11_655
P1 P2 P1 6.68(8) 9_655 11_655
P1 P2 P1 52.82(9) 3_655 11_655
P1 P2 P1 85.92(7) . 11_655
Cu1 P2 P1 141.74(5) 13 11_655
Cu1 P2 P1 98.49(4) 13_545 11_655
P1 P2 P1 69.29(9) 9 11_655
P1 P2 P1 90.49(8) 3 11_655
Cu1 P2 P1 32.13(6) 1_655 1_655
Cu1 P2 P1 97.66(9) . 1_655
Th1 P2 P1 154.30(5) . 1_655
Th1 P2 P1 96.21(4) 1_655 1_655
Th1 P2 P1 102.83(7) 13_545 1_655
Th1 P2 P1 53.26(6) 13 1_655
P2 P2 P1 67.22(6) 13_655 1_655
P2 P2 P1 151.82(10) 13_545 1_655
P2 P2 P1 103.55(7) 13 1_655
P2 P2 P1 105.06(7) 13_645 1_655
P1 P2 P1 85.92(7) 11 1_655
P1 P2 P1 52.82(9) 9_655 1_655
P1 P2 P1 6.68(8) 3_655 1_655
P1 P2 P1 62.61(5) . 1_655
Cu1 P2 P1 98.49(4) 13 1_655
Cu1 P2 P1 141.74(5) 13_545 1_655
P1 P2 P1 90.49(8) 9 1_655
P1 P2 P1 69.29(9) 3 1_655
P1 P2 P1 50.38(10) 11_655 1_655
Cu1 P2 P2 30.45(6) 1_655 1_655
Cu1 P2 P2 149.55(6) . 1_655
Th1 P2 P2 134.22(4) . 1_655
Th1 P2 P2 45.78(4) 1_655 1_655
Th1 P2 P2 90.0 13_545 1_655
Th1 P2 P2 90.0 13 1_655
P2 P2 P2 56.86(2) 13_655 1_655
P2 P2 P2 123.14(2) 13_545 1_655
P2 P2 P2 123.14(2) 13 1_655
P2 P2 P2 56.86(2) 13_645 1_655
P1 P2 P2 117.97(5) 11 1_655
P1 P2 P2 62.03(5) 9_655 1_655
P1 P2 P2 62.03(5) 3_655 1_655
P1 P2 P2 117.97(5) . 1_655
Cu1 P2 P2 90.0 13 1_655
Cu1 P2 P2 90.0 13_545 1_655
P1 P2 P2 124.64(5) 9 1_655
P1 P2 P2 124.64(5) 3 1_655
P1 P2 P2 55.36(5) 11_655 1_655
P1 P2 P2 55.36(4) 1_655 1_655
Cu1 P2 P2 149.55(6) 1_655 1_455
Cu1 P2 P2 30.45(6) . 1_455
Th1 P2 P2 45.78(4) . 1_455
Th1 P2 P2 134.22(4) 1_655 1_455
Th1 P2 P2 90.0 13_545 1_455
Th1 P2 P2 90.0 13 1_455
P2 P2 P2 123.14(2) 13_655 1_455
P2 P2 P2 56.86(2) 13_545 1_455
P2 P2 P2 56.86(2) 13 1_455
P2 P2 P2 123.14(2) 13_645 1_455
P1 P2 P2 62.03(5) 11 1_455
P1 P2 P2 117.97(5) 9_655 1_455
P1 P2 P2 117.97(5) 3_655 1_455
P1 P2 P2 62.03(5) . 1_455
Cu1 P2 P2 90.0 13 1_455
Cu1 P2 P2 90.0 13_545 1_455
P1 P2 P2 55.36(5) 9 1_455
P1 P2 P2 55.36(5) 3 1_455
P1 P2 P2 124.64(5) 11_655 1_455
P1 P2 P2 124.64(5) 1_655 1_455
P2 P2 P2 180.0 1_655 1_455
Cu1 P2 P1 115.82(7) 1_655 15
Cu1 P2 P1 122.83(7) . 15
Th1 P2 P1 49.60(6) . 15
Th1 P2 P1 42.75(5) 1_655 15
Th1 P2 P1 120.34(7) 13_545 15
Th1 P2 P1 90.59(6) 13 15
P2 P2 P1 55.42(8) 13_655 15
P2 P2 P1 83.72(9) 13_545 15
P2 P2 P1 60.01(8) 13 15
P2 P2 P1 79.80(9) 13_645 15
P1 P2 P1 151.08(9) 11 15
P1 P2 P1 144.82(4) 9_655 15
P1 P2 P1 125.64(2) 3_655 15
P1 P2 P1 129.84(4) . 15
Cu1 P2 P1 33.77(5) 13 15
Cu1 P2 P1 63.47(6) 13_545 15
P1 P2 P1 145.44(4) 9 15
P1 P2 P1 127.22(3) 3 15
P1 P2 P1 138.87(8) 11_655 15
P1 P2 P1 122.32(5) 1_655 15
P2 P2 P1 86.46(4) 1_655 15
P2 P2 P1 93.54(4) 1_455 15
Cu1 P2 P1 122.83(7) 1_655 13
Cu1 P2 P1 115.82(7) . 13
Th1 P2 P1 42.75(5) . 13
Th1 P2 P1 49.60(6) 1_655 13
Th1 P2 P1 120.34(7) 13_545 13
Th1 P2 P1 90.59(6) 13 13
P2 P2 P1 60.01(8) 13_655 13
P2 P2 P1 79.80(9) 13_545 13
P2 P2 P1 55.42(8) 13 13
P2 P2 P1 83.72(9) 13_645 13
P1 P2 P1 144.82(4) 11 13
P1 P2 P1 151.08(9) 9_655 13
P1 P2 P1 129.84(4) 3_655 13
P1 P2 P1 125.64(2) . 13
Cu1 P2 P1 33.77(5) 13 13
Cu1 P2 P1 63.47(6) 13_545 13
P1 P2 P1 138.87(8) 9 13
P1 P2 P1 122.32(5) 3 13
P1 P2 P1 145.44(4) 11_655 13
P1 P2 P1 127.22(3) 1_655 13
P2 P2 P1 93.54(4) 1_655 13
P2 P2 P1 86.46(4) 1_455 13
P1 P2 P1 7.09(9) 15 13
Cu1 P2 P1 122.83(7) 1_655 7_545
Cu1 P2 P1 115.82(7) . 7_545
Th1 P2 P1 42.75(5) . 7_545
Th1 P2 P1 49.60(6) 1_655 7_545
Th1 P2 P1 90.59(6) 13_545 7_545
Th1 P2 P1 120.34(7) 13 7_545
P2 P2 P1 83.72(9) 13_655 7_545
P2 P2 P1 55.42(8) 13_545 7_545
P2 P2 P1 79.80(9) 13 7_545
P2 P2 P1 60.01(8) 13_645 7_545
P1 P2 P1 125.64(2) 11 7_545
P1 P2 P1 129.84(4) 9_655 7_545
P1 P2 P1 151.08(9) 3_655 7_545
P1 P2 P1 144.82(4) . 7_545
Cu1 P2 P1 63.47(6) 13 7_545
Cu1 P2 P1 33.77(5) 13_545 7_545
P1 P2 P1 122.32(5) 9 7_545
P1 P2 P1 138.87(8) 3 7_545
P1 P2 P1 127.22(3) 11_655 7_545
P1 P2 P1 145.44(4) 1_655 7_545
P2 P2 P1 93.54(4) 1_655 7_545
P2 P2 P1 86.46(4) 1_455 7_545
P1 P2 P1 30.63(9) 15 7_545
P1 P2 P1 29.76(9) 13 7_545
Cu1 P2 P1 115.82(7) 1_655 5_545
Cu1 P2 P1 122.83(7) . 5_545
Th1 P2 P1 49.60(6) . 5_545
Th1 P2 P1 42.75(5) 1_655 5_545
Th1 P2 P1 90.59(6) 13_545 5_545
Th1 P2 P1 120.34(7) 13 5_545
P2 P2 P1 79.80(9) 13_655 5_545
P2 P2 P1 60.01(8) 13_545 5_545
P2 P2 P1 83.72(9) 13 5_545
P2 P2 P1 55.42(8) 13_645 5_545
P1 P2 P1 129.84(4) 11 5_545
P1 P2 P1 125.64(2) 9_655 5_545
P1 P2 P1 144.82(4) 3_655 5_545
P1 P2 P1 151.08(9) . 5_545
Cu1 P2 P1 63.47(6) 13 5_545
Cu1 P2 P1 33.77(5) 13_545 5_545
P1 P2 P1 127.22(3) 9 5_545
P1 P2 P1 145.44(4) 3 5_545
P1 P2 P1 122.32(5) 11_655 5_545
P1 P2 P1 138.87(8) 1_655 5_545
P2 P2 P1 86.46(4) 1_655 5_545
P2 P2 P1 93.54(4) 1_455 5_545
P1 P2 P1 29.76(9) 15 5_545
P1 P2 P1 30.63(9) 13 5_545
P1 P2 P1 7.09(9) 7_545 5_545
Cu1 P2 Cu1 83.86(7) 1_655 9
Cu1 P2 Cu1 35.24(5) . 9
Th1 P2 Cu1 111.47(3) . 9
Th1 P2 Cu1 160.09(5) 1_655 9
Th1 P2 Cu1 75.91(5) 13_545 9
Th1 P2 Cu1 75.91(5) 13 9
P2 P2 Cu1 123.02(7) 13_655 9
P2 P2 Cu1 95.44(6) 13_545 9
P2 P2 Cu1 95.44(6) 13 9
P2 P2 Cu1 123.02(7) 13_645 9
P1 P2 Cu1 28.13(5) 11 9
P1 P2 Cu1 60.28(5) 9_655 9
P1 P2 Cu1 60.28(5) 3_655 9
P1 P2 Cu1 28.13(5) . 9
Cu1 P2 Cu1 127.14(2) 13 9
Cu1 P2 Cu1 127.14(3) 13_545 9
P1 P2 Cu1 28.88(4) 9 9
P1 P2 Cu1 28.88(4) 3 9
P1 P2 Cu1 65.95(5) 11_655 9
P1 P2 Cu1 65.95(5) 1_655 9
P2 P2 Cu1 114.312(16) 1_655 9
P2 P2 Cu1 65.688(16) 1_455 9
P1 P2 Cu1 154.74(4) 15 9
P1 P2 Cu1 148.59(4) 13 9
P1 P2 Cu1 148.59(4) 7_545 9
P1 P2 Cu1 154.74(4) 5_545 9
Cu1 P2 Cu1 35.24(5) 1_655 9_655
Cu1 P2 Cu1 83.86(7) . 9_655
Th1 P2 Cu1 160.09(5) . 9_655
Th1 P2 Cu1 111.47(3) 1_655 9_655
Th1 P2 Cu1 75.91(5) 13_545 9_655
Th1 P2 Cu1 75.91(5) 13 9_655
P2 P2 Cu1 95.44(6) 13_655 9_655
P2 P2 Cu1 123.02(7) 13_545 9_655
P2 P2 Cu1 123.02(7) 13 9_655
P2 P2 Cu1 95.44(6) 13_645 9_655
P1 P2 Cu1 60.28(5) 11 9_655
P1 P2 Cu1 28.13(5) 9_655 9_655
P1 P2 Cu1 28.13(5) 3_655 9_655
P1 P2 Cu1 60.28(5) . 9_655
Cu1 P2 Cu1 127.14(3) 13 9_655
Cu1 P2 Cu1 127.14(3) 13_545 9_655
P1 P2 Cu1 65.95(5) 9 9_655
P1 P2 Cu1 65.95(5) 3 9_655
P1 P2 Cu1 28.88(4) 11_655 9_655
P1 P2 Cu1 28.88(4) 1_655 9_655
P2 P2 Cu1 65.688(16) 1_655 9_655
P2 P2 Cu1 114.312(16) 1_455 9_655
P1 P2 Cu1 148.59(4) 15 9_655
P1 P2 Cu1 154.74(4) 13 9_655
P1 P2 Cu1 154.74(4) 7_545 9_655
P1 P2 Cu1 148.59(4) 5_545 9_655
Cu1 P2 Cu1 48.62(3) 9 9_655
Cu1 P2 Th1 128.31(6) 1_655 13_445
Cu1 P2 Th1 38.892(16) . 13_445
Th1 P2 Th1 63.029(15) . 13_445
Th1 P2 Th1 132.66(5) 1_655 13_445
Th1 P2 Th1 54.189(11) 13_545 13_445
Th1 P2 Th1 120.10(3) 13 13_445
P2 P2 Th1 157.95(5) 13_655 13_445
P2 P2 Th1 35.20(4) 13_545 13_445
P2 P2 Th1 92.301(17) 13 13_445
P2 P2 Th1 93.990(17) 13_645 13_445
P1 P2 Th1 40.88(4) 11 13_445
P1 P2 Th1 90.26(6) 9_655 13_445
P1 P2 Th1 121.32(7) 3_655 13_445
P1 P2 Th1 76.06(6) . 13_445
Cu1 P2 Th1 121.73(3) 13 13_445
Cu1 P2 Th1 71.412(14) 13_545 13_445
P1 P2 Th1 35.80(3) 9 13_445
P1 P2 Th1 70.66(5) 3 13_445
P1 P2 Th1 96.37(6) 11_655 13_445
P1 P2 Th1 126.22(6) 1_655 13_445
P2 P2 Th1 144.189(11) 1_655 13_445
P2 P2 Th1 35.811(11) 1_455 13_445
P1 P2 Th1 110.23(6) 15 13_445
P1 P2 Th1 104.21(5) 13 13_445
P1 P2 Th1 87.47(5) 7_545 13_445
P1 P2 Th1 93.22(5) 5_545 13_445
Cu1 P2 Th1 61.55(2) 9 13_445
Cu1 P2 Th1 101.03(4) 9_655 13_445
Cu1 P2 Th1 38.892(16) 1_655 13_655
Cu1 P2 Th1 128.31(6) . 13_655
Th1 P2 Th1 132.66(5) . 13_655
Th1 P2 Th1 63.029(14) 1_655 13_655
Th1 P2 Th1 120.10(3) 13_545 13_655
Th1 P2 Th1 54.189(11) 13 13_655
P2 P2 Th1 35.20(4) 13_655 13_655
P2 P2 Th1 157.95(5) 13_545 13_655
P2 P2 Th1 93.990(17) 13 13_655
P2 P2 Th1 92.301(18) 13_645 13_655
P1 P2 Th1 121.32(7) 11 13_655
P1 P2 Th1 76.06(6) 9_655 13_655
P1 P2 Th1 40.88(4) 3_655 13_655
P1 P2 Th1 90.26(6) . 13_655
Cu1 P2 Th1 71.411(15) 13 13_655
Cu1 P2 Th1 121.73(3) 13_545 13_655
P1 P2 Th1 126.22(6) 9 13_655
P1 P2 Th1 96.37(6) 3 13_655
P1 P2 Th1 70.66(5) 11_655 13_655
P1 P2 Th1 35.80(3) 1_655 13_655
P2 P2 Th1 35.811(11) 1_655 13_655
P2 P2 Th1 144.189(11) 1_455 13_655
P1 P2 Th1 87.47(5) 15 13_655
P1 P2 Th1 93.22(5) 13 13_655
P1 P2 Th1 110.23(6) 7_545 13_655
P1 P2 Th1 104.21(5) 5_545 13_655
Cu1 P2 Th1 101.03(4) 9 13_655
Cu1 P2 Th1 61.55(2) 9_655 13_655
Th1 P2 Th1 162.01(6) 13_445 13_655
Cu1 P2 Th1 128.31(6) 1_655 13_455
Cu1 P2 Th1 38.892(16) . 13_455
Th1 P2 Th1 63.029(15) . 13_455
Th1 P2 Th1 132.66(5) 1_655 13_455
Th1 P2 Th1 120.10(3) 13_545 13_455
Th1 P2 Th1 54.189(11) 13 13_455
P2 P2 Th1 93.990(17) 13_655 13_455
P2 P2 Th1 92.301(17) 13_545 13_455
P2 P2 Th1 35.20(4) 13 13_455
P2 P2 Th1 157.95(5) 13_645 13_455
P1 P2 Th1 76.06(6) 11 13_455
P1 P2 Th1 121.32(7) 9_655 13_455
P1 P2 Th1 90.26(6) 3_655 13_455
P1 P2 Th1 40.88(4) . 13_455
Cu1 P2 Th1 71.412(14) 13 13_455
Cu1 P2 Th1 121.73(3) 13_545 13_455
P1 P2 Th1 70.66(5) 9 13_455
P1 P2 Th1 35.80(3) 3 13_455
P1 P2 Th1 126.22(6) 11_655 13_455
P1 P2 Th1 96.37(6) 1_655 13_455
P2 P2 Th1 144.189(12) 1_655 13_455
P2 P2 Th1 35.811(11) 1_455 13_455
P1 P2 Th1 93.22(5) 15 13_455
P1 P2 Th1 87.47(5) 13 13_455
P1 P2 Th1 104.21(5) 7_545 13_455
P1 P2 Th1 110.23(6) 5_545 13_455
Cu1 P2 Th1 61.55(2) 9 13_455
Cu1 P2 Th1 101.03(4) 9_655 13_455
Th1 P2 Th1 68.643(18) 13_445 13_455
Th1 P2 Th1 108.38(2) 13_655 13_455
Cu1 P2 Th1 38.892(16) 1_655 13_645
Cu1 P2 Th1 128.31(6) . 13_645
Th1 P2 Th1 132.66(5) . 13_645
Th1 P2 Th1 63.029(14) 1_655 13_645
Th1 P2 Th1 54.189(11) 13_545 13_645
Th1 P2 Th1 120.10(3) 13 13_645
P2 P2 Th1 92.301(18) 13_655 13_645
P2 P2 Th1 93.990(17) 13_545 13_645
P2 P2 Th1 157.95(5) 13 13_645
P2 P2 Th1 35.20(4) 13_645 13_645
P1 P2 Th1 90.26(6) 11 13_645
P1 P2 Th1 40.88(4) 9_655 13_645
P1 P2 Th1 76.06(6) 3_655 13_645
P1 P2 Th1 121.32(7) . 13_645
Cu1 P2 Th1 121.73(3) 13 13_645
Cu1 P2 Th1 71.412(15) 13_545 13_645
P1 P2 Th1 96.37(6) 9 13_645
P1 P2 Th1 126.22(6) 3 13_645
P1 P2 Th1 35.80(3) 11_655 13_645
P1 P2 Th1 70.66(5) 1_655 13_645
P2 P2 Th1 35.811(11) 1_655 13_645
P2 P2 Th1 144.189(12) 1_455 13_645
P1 P2 Th1 104.21(5) 15 13_645
P1 P2 Th1 110.23(6) 13 13_645
P1 P2 Th1 93.22(5) 7_545 13_645
P1 P2 Th1 87.47(5) 5_545 13_645
Cu1 P2 Th1 101.03(4) 9 13_645
Cu1 P2 Th1 61.55(2) 9_655 13_645
Th1 P2 Th1 108.38(2) 13_445 13_645
Th1 P2 Th1 68.643(18) 13_655 13_645
Th1 P2 Th1 162.01(6) 13_455 13_645
Cu1 P2 P1 90.89(6) 1_655 1_545
Cu1 P2 P1 54.96(5) . 1_545
Th1 P2 P1 99.00(3) . 1_545
Th1 P2 P1 129.31(4) 1_655 1_545
Th1 P2 P1 28.27(4) 13_545 1_545
Th1 P2 P1 125.89(7) 13 1_545
P2 P2 P1 163.54(8) 13_655 1_545
P2 P2 P1 55.10(6) 13_545 1_545
P2 P2 P1 125.81(5) 13 1_545
P2 P2 P1 78.56(5) 13_645 1_545
P1 P2 P1 22.38(7) 11 1_545
P1 P2 P1 52.85(8) 9_655 1_545
P1 P2 P1 95.25(6) 3_655 1_545
P1 P2 P1 76.75(5) . 1_545
Cu1 P2 P1 159.27(4) 13 1_545
Cu1 P2 P1 78.17(3) 13_545 1_545
P1 P2 P1 24.99(8) 9 1_545
P1 P2 P1 75.02(4) 3 1_545
P1 P2 P1 58.83(4) 11_655 1_545
P1 P2 P1 97.49(5) 1_655 1_545
P2 P2 P1 110.00(4) 1_655 1_545
P2 P2 P1 70.00(4) 1_455 1_545
P1 P2 P1 138.43(5) 15 1_545
P1 P2 P1 134.90(4) 13 1_545
P1 P2 P1 108.36(6) 7_545 1_545
P1 P2 P1 110.93(7) 5_545 1_545
Cu1 P2 P1 49.98(3) 9 1_545
Cu1 P2 P1 68.81(4) 9_655 1_545
Th1 P2 P1 37.57(3) 13_445 1_545
Th1 P2 P1 128.34(5) 13_655 1_545
Th1 P2 P1 93.77(4) 13_455 1_545
Th1 P2 P1 76.23(4) 13_645 1_545
Cu1 P2 P1 54.96(5) 1_655 3_645
Cu1 P2 P1 90.89(6) . 3_645
Th1 P2 P1 129.31(4) . 3_645
Th1 P2 P1 99.00(3) 1_655 3_645
Th1 P2 P1 28.27(4) 13_545 3_645
Th1 P2 P1 125.89(7) 13 3_645
P2 P2 P1 125.81(5) 13_655 3_645
P2 P2 P1 78.56(5) 13_545 3_645
P2 P2 P1 163.54(8) 13 3_645
P2 P2 P1 55.10(6) 13_645 3_645
P1 P2 P1 52.85(8) 11 3_645
P1 P2 P1 22.38(7) 9_655 3_645
P1 P2 P1 76.75(5) 3_655 3_645
P1 P2 P1 95.25(6) . 3_645
Cu1 P2 P1 159.27(4) 13 3_645
Cu1 P2 P1 78.17(3) 13_545 3_645
P1 P2 P1 58.83(4) 9 3_645
P1 P2 P1 97.49(5) 3 3_645
P1 P2 P1 24.99(8) 11_655 3_645
P1 P2 P1 75.02(4) 1_655 3_645
P2 P2 P1 70.00(4) 1_655 3_645
P2 P2 P1 110.00(4) 1_455 3_645
P1 P2 P1 134.90(4) 15 3_645
P1 P2 P1 138.43(5) 13 3_645
P1 P2 P1 110.93(7) 7_545 3_645
P1 P2 P1 108.36(6) 5_545 3_645
Cu1 P2 P1 68.81(4) 9 3_645
Cu1 P2 P1 49.98(3) 9_655 3_645
Th1 P2 P1 76.23(4) 13_445 3_645
Th1 P2 P1 93.77(4) 13_655 3_645
Th1 P2 P1 128.34(5) 13_455 3_645
Th1 P2 P1 37.57(3) 13_645 3_645
P1 P2 P1 39.99(7) 1_545 3_645
Cu1 P2 P1 54.96(5) 1_655 9_665
Cu1 P2 P1 90.89(6) . 9_665
Th1 P2 P1 129.31(3) . 9_665
Th1 P2 P1 99.00(3) 1_655 9_665
Th1 P2 P1 125.89(7) 13_545 9_665
Th1 P2 P1 28.27(4) 13 9_665
P2 P2 P1 55.10(6) 13_655 9_665
P2 P2 P1 163.54(8) 13_545 9_665
P2 P2 P1 78.56(5) 13 9_665
P2 P2 P1 125.81(5) 13_645 9_665
P1 P2 P1 95.25(6) 11 9_665
P1 P2 P1 76.75(5) 9_655 9_665
P1 P2 P1 22.38(7) 3_655 9_665
P1 P2 P1 52.85(8) . 9_665
Cu1 P2 P1 78.17(3) 13 9_665
Cu1 P2 P1 159.27(4) 13_545 9_665
P1 P2 P1 97.49(5) 9 9_665
P1 P2 P1 58.83(4) 3 9_665
P1 P2 P1 75.02(4) 11_655 9_665
P1 P2 P1 24.99(8) 1_655 9_665
P2 P2 P1 70.00(4) 1_655 9_665
P2 P2 P1 110.00(4) 1_455 9_665
P1 P2 P1 108.36(6) 15 9_665
P1 P2 P1 110.93(7) 13 9_665
P1 P2 P1 138.43(5) 7_545 9_665
P1 P2 P1 134.90(4) 5_545 9_665
Cu1 P2 P1 68.81(4) 9 9_665
Cu1 P2 P1 49.98(3) 9_655 9_665
Th1 P2 P1 128.34(5) 13_445 9_665
Th1 P2 P1 37.57(3) 13_655 9_665
Th1 P2 P1 76.23(4) 13_455 9_665
Th1 P2 P1 93.77(4) 13_645 9_665
P1 P2 P1 113.11(7) 1_545 9_665
P1 P2 P1 99.13(7) 3_645 9_665
Cu1 P2 P1 90.89(6) 1_655 11_565
Cu1 P2 P1 54.96(5) . 11_565
Th1 P2 P1 99.00(3) . 11_565
Th1 P2 P1 129.31(3) 1_655 11_565
Th1 P2 P1 125.89(7) 13_545 11_565
Th1 P2 P1 28.27(4) 13 11_565
P2 P2 P1 78.56(5) 13_655 11_565
P2 P2 P1 125.81(5) 13_545 11_565
P2 P2 P1 55.10(6) 13 11_565
P2 P2 P1 163.54(8) 13_645 11_565
P1 P2 P1 76.75(5) 11 11_565
P1 P2 P1 95.25(6) 9_655 11_565
P1 P2 P1 52.85(8) 3_655 11_565
P1 P2 P1 22.38(7) . 11_565
Cu1 P2 P1 78.17(3) 13 11_565
Cu1 P2 P1 159.27(4) 13_545 11_565
P1 P2 P1 75.02(4) 9 11_565
P1 P2 P1 24.99(8) 3 11_565
P1 P2 P1 97.49(5) 11_655 11_565
P1 P2 P1 58.83(4) 1_655 11_565
P2 P2 P1 110.00(4) 1_655 11_565
P2 P2 P1 70.00(4) 1_455 11_565
P1 P2 P1 110.93(7) 15 11_565
P1 P2 P1 108.36(6) 13 11_565
P1 P2 P1 134.90(4) 7_545 11_565
P1 P2 P1 138.43(5) 5_545 11_565
Cu1 P2 P1 49.98(3) 9 11_565
Cu1 P2 P1 68.81(4) 9_655 11_565
Th1 P2 P1 93.77(4) 13_445 11_565
Th1 P2 P1 76.23(4) 13_655 11_565
Th1 P2 P1 37.57(3) 13_455 11_565
Th1 P2 P1 128.34(5) 13_645 11_565
P1 P2 P1 99.13(7) 1_545 11_565
P1 P2 P1 113.11(7) 3_645 11_565
P1 P2 P1 39.99(7) 9_665 11_565
Cu1 P2 P1 95.76(6) 1_655 3_545
Cu1 P2 P1 50.39(4) . 3_545
Th1 P2 P1 94.67(3) . 3_545
Th1 P2 P1 132.72(3) 1_655 3_545
Th1 P2 P1 32.11(4) 13_545 3_545
Th1 P2 P1 124.32(7) 13 3_545
P2 P2 P1 167.56(9) 13_655 3_545
P2 P2 P1 52.81(6) 13_545 3_545
P2 P2 P1 120.57(5) 13 3_545
P2 P2 P1 82.15(5) 13_645 3_545
P1 P2 P1 20.64(7) 11 3_545
P1 P2 P1 57.70(4) 9_655 3_545
P1 P2 P1 97.73(6) 3_655 3_545
P1 P2 P1 74.52(4) . 3_545
Cu1 P2 P1 154.09(4) 13 3_545
Cu1 P2 P1 78.63(3) 13_545 3_545
P1 P2 P1 21.87(7) 9 3_545
P1 P2 P1 72.24(5) 3 3_545
P1 P2 P1 63.80(7) 11_655 3_545
P1 P2 P1 100.47(6) 1_655 3_545
P2 P2 P1 115.34(3) 1_655 3_545
P2 P2 P1 64.66(3) 1_455 3_545
P1 P2 P1 136.53(4) 15 3_545
P1 P2 P1 132.28(6) 13 3_545
P1 P2 P1 107.27(7) 7_545 3_545
P1 P2 P1 110.47(6) 5_545 3_545
Cu1 P2 P1 48.76(3) 9 3_545
Cu1 P2 P1 72.13(4) 9_655 3_545
Th1 P2 P1 32.57(3) 13_445 3_545
Th1 P2 P1 132.60(5) 13_655 3_545
Th1 P2 P1 89.01(4) 13_455 3_545
Th1 P2 P1 81.46(4) 13_645 3_545
P1 P2 P1 5.34(6) 1_545 3_545
P1 P2 P1 45.34(3) 3_645 3_545
P1 P2 P1 114.29(6) 9_665 3_545
P1 P2 P1 96.82(6) 11_565 3_545
Cu1 P2 P1 50.39(4) 1_655 1_645
Cu1 P2 P1 95.76(6) . 1_645
Th1 P2 P1 132.72(3) . 1_645
Th1 P2 P1 94.67(3) 1_655 1_645
Th1 P2 P1 32.11(4) 13_545 1_645
Th1 P2 P1 124.32(7) 13 1_645
P2 P2 P1 120.57(5) 13_655 1_645
P2 P2 P1 82.15(5) 13_545 1_645
P2 P2 P1 167.56(9) 13 1_645
P2 P2 P1 52.81(6) 13_645 1_645
P1 P2 P1 57.70(4) 11 1_645
P1 P2 P1 20.64(7) 9_655 1_645
P1 P2 P1 74.52(4) 3_655 1_645
P1 P2 P1 97.73(6) . 1_645
Cu1 P2 P1 154.09(4) 13 1_645
Cu1 P2 P1 78.63(3) 13_545 1_645
P1 P2 P1 63.80(7) 9 1_645
P1 P2 P1 100.47(6) 3 1_645
P1 P2 P1 21.87(7) 11_655 1_645
P1 P2 P1 72.24(5) 1_655 1_645
P2 P2 P1 64.66(3) 1_655 1_645
P2 P2 P1 115.34(3) 1_455 1_645
P1 P2 P1 132.28(6) 15 1_645
P1 P2 P1 136.53(4) 13 1_645
P1 P2 P1 110.47(6) 7_545 1_645
P1 P2 P1 107.27(7) 5_545 1_645
Cu1 P2 P1 72.13(4) 9 1_645
Cu1 P2 P1 48.76(3) 9_655 1_645
Th1 P2 P1 81.46(4) 13_445 1_645
Th1 P2 P1 89.01(4) 13_655 1_645
Th1 P2 P1 132.60(5) 13_455 1_645
Th1 P2 P1 32.57(3) 13_645 1_645
P1 P2 P1 45.34(3) 1_545 1_645
P1 P2 P1 5.34(6) 3_645 1_645
P1 P2 P1 96.82(6) 9_665 1_645
P1 P2 P1 114.29(6) 11_565 1_645
P1 P2 P1 50.68(7) 3_545 1_645
Cu1 P2 P1 50.39(4) 1_655 11_665
Cu1 P2 P1 95.76(6) . 11_665
Th1 P2 P1 132.72(3) . 11_665
Th1 P2 P1 94.67(3) 1_655 11_665
Th1 P2 P1 124.32(7) 13_545 11_665
Th1 P2 P1 32.11(4) 13 11_665
P2 P2 P1 52.81(6) 13_655 11_665
P2 P2 P1 167.56(9) 13_545 11_665
P2 P2 P1 82.15(5) 13 11_665
P2 P2 P1 120.57(5) 13_645 11_665
P1 P2 P1 97.73(6) 11 11_665
P1 P2 P1 74.52(4) 9_655 11_665
P1 P2 P1 20.64(7) 3_655 11_665
P1 P2 P1 57.70(4) . 11_665
Cu1 P2 P1 78.63(3) 13 11_665
Cu1 P2 P1 154.09(4) 13_545 11_665
P1 P2 P1 100.47(6) 9 11_665
P1 P2 P1 63.80(7) 3 11_665
P1 P2 P1 72.24(5) 11_655 11_665
P1 P2 P1 21.87(7) 1_655 11_665
P2 P2 P1 64.66(3) 1_655 11_665
P2 P2 P1 115.34(3) 1_455 11_665
P1 P2 P1 107.27(7) 15 11_665
P1 P2 P1 110.47(7) 13 11_665
P1 P2 P1 136.53(4) 7_545 11_665
P1 P2 P1 132.28(6) 5_545 11_665
Cu1 P2 P1 72.13(4) 9 11_665
Cu1 P2 P1 48.76(3) 9_655 11_665
Th1 P2 P1 132.60(5) 13_445 11_665
Th1 P2 P1 32.57(3) 13_655 11_665
Th1 P2 P1 81.46(4) 13_455 11_665
Th1 P2 P1 89.01(4) 13_645 11_665
P1 P2 P1 114.29(6) 1_545 11_665
P1 P2 P1 96.82(6) 3_645 11_665
P1 P2 P1 5.34(6) 9_665 11_665
P1 P2 P1 45.34(3) 11_565 11_665
P1 P2 P1 115.98(6) 3_545 11_665
P1 P2 P1 94.11(7) 1_645 11_665
Cu1 P2 P1 95.76(6) 1_655 9_565
Cu1 P2 P1 50.39(4) . 9_565
Th1 P2 P1 94.67(3) . 9_565
Th1 P2 P1 132.72(3) 1_655 9_565
Th1 P2 P1 124.32(7) 13_545 9_565
Th1 P2 P1 32.11(4) 13 9_565
P2 P2 P1 82.15(5) 13_655 9_565
P2 P2 P1 120.57(5) 13_545 9_565
P2 P2 P1 52.81(6) 13 9_565
P2 P2 P1 167.56(9) 13_645 9_565
P1 P2 P1 74.52(4) 11 9_565
P1 P2 P1 97.73(6) 9_655 9_565
P1 P2 P1 57.70(4) 3_655 9_565
P1 P2 P1 20.64(7) . 9_565
Cu1 P2 P1 78.63(3) 13 9_565
Cu1 P2 P1 154.09(4) 13_545 9_565
P1 P2 P1 72.24(5) 9 9_565
P1 P2 P1 21.87(7) 3 9_565
P1 P2 P1 100.47(6) 11_655 9_565
P1 P2 P1 63.80(7) 1_655 9_565
P2 P2 P1 115.34(3) 1_655 9_565
P2 P2 P1 64.66(3) 1_455 9_565
P1 P2 P1 110.47(6) 15 9_565
P1 P2 P1 107.27(7) 13 9_565
P1 P2 P1 132.28(6) 7_545 9_565
P1 P2 P1 136.53(4) 5_545 9_565
Cu1 P2 P1 48.76(3) 9 9_565
Cu1 P2 P1 72.13(4) 9_655 9_565
Th1 P2 P1 89.01(4) 13_445 9_565
Th1 P2 P1 81.46(4) 13_655 9_565
Th1 P2 P1 32.57(3) 13_455 9_565
Th1 P2 P1 132.60(5) 13_645 9_565
P1 P2 P1 96.82(6) 1_545 9_565
P1 P2 P1 114.29(6) 3_645 9_565
P1 P2 P1 45.34(3) 9_665 9_565
P1 P2 P1 5.34(6) 11_565 9_565
P1 P2 P1 94.11(7) 3_545 9_565
P1 P2 P1 115.98(6) 1_645 9_565
P1 P2 P1 50.68(7) 11_665 9_565
loop_
_geom_bond_atom_site_label_1
_geom_bond_atom_site_label_2
_geom_bond_distance
_geom_bond_site_symmetry_2
Th1 P2 2.8862(19) 1_455
Th1 P2 2.8862(19) .
Th1 P1 2.904(2) 13
Th1 P1 2.904(2) 7_545
Th1 P1 2.904(2) 15_455
Th1 P1 2.904(2) 5_445
Th1 P2 2.9047(9) 13_545
Th1 P2 2.9047(9) 13
Th1 P1 3.249(3) 15
Th1 P1 3.249(3) 5_545
Th1 P1 3.249(3) 7_445
Th1 P1 3.249(3) 13_455
Th1 Cu1 3.2518(15) .
Th1 Cu1 3.4717(6) 13
Th1 Cu1 3.4717(6) 13_445
Th1 Cu1 3.4717(6) 13_455
Th1 Cu1 3.4717(6) 13_545
Th1 Th1 4.0259(10) 1_655
Th1 Th1 4.0259(10) 1_455
Th1 Th1 4.0867(12) 9_556
Th1 Th1 4.4697(8) 13_445
Th1 Th1 4.4697(8) 13_545
Th1 Th1 4.4697(8) 13
Th1 Th1 4.4697(8) 13_455
Th1 P2 4.9644(10) 13_445
Th1 P2 4.9644(10) 13_655
Th1 P2 4.9644(10) 13_455
Th1 P2 4.9644(10) 13_645
Th1 Cu1 5.0424(12) 5
Th1 Cu1 5.0424(12) 5_455
Th1 Cu1 5.0424(12) 5_545
Th1 Cu1 5.0424(12) 5_445
Th1 Cu1 5.1751(12) 1_455
Th1 Cu1 5.1751(12) 1_655
Th1 P1 5.1832(16) 9
Th1 P1 5.1832(16) 11
Th1 P1 5.1832(16) 3
Th1 P1 5.1832(16) .
Th1 P1 5.246(3) 7
Th1 P1 5.246(3) 5_455
Cu1 P2 2.3350(15) .
Cu1 P2 2.3350(15) 1_455
Cu1 P1 2.377(3) 9
Cu1 P1 2.377(3) 11
Cu1 P1 2.377(3) 3
Cu1 P1 2.377(3) .
Cu1 Cu1 3.272(3) 9
Cu1 Th1 3.4717(6) 13
Cu1 Th1 3.4717(6) 13_445
Cu1 Th1 3.4717(6) 13_455
Cu1 Th1 3.4717(6) 13_545
Cu1 P2 3.737(2) 13
Cu1 P2 3.737(2) 13_545
Cu1 Cu1 4.0259(10) 1_655
Cu1 Cu1 4.0259(10) 1_455
Cu1 P1 4.232(3) 3_545
Cu1 P1 4.232(3) 1_545
Cu1 P1 4.232(3) 11_565
Cu1 P1 4.232(3) 9_565
Cu1 P1 4.443(3) 11_455
Cu1 P1 4.443(3) 3_655
Cu1 P1 4.443(3) 1_455
Cu1 P1 4.443(3) 9_655
Cu1 P2 4.889(3) 9
Cu1 P2 4.889(3) 9_655
Cu1 P1 4.897(3) 9_455
Cu1 P1 4.897(3) 1_655
Cu1 P1 4.897(3) 3_455
Cu1 P1 4.897(3) 11_655
Cu1 Cu1 5.0274(19) 13
Cu1 Cu1 5.0274(19) 13_455
Cu1 Cu1 5.0274(19) 13_545
Cu1 Cu1 5.0274(19) 13_445
Cu1 Th1 5.0424(12) 5_444
Cu1 Th1 5.0424(12) 5_544
Cu1 Th1 5.0424(12) 5_454
Cu1 Th1 5.0424(12) 5_554
Cu1 Th1 5.1751(12) 1_655
Cu1 Th1 5.1751(12) 1_455
P1 P1 0.527(6) 3
P1 P1 2.190(7) 11_565
P1 P1 2.252(7) 9_565
P1 Cu1 2.377(3) 9
P1 Th1 2.904(2) 13
P1 Th1 2.904(2) 5_554
P1 Th1 3.249(3) 5_454
P1 Th1 3.249(3) 13_455
P1 P1 3.409(7) 11
P1 P1 3.449(7) 9
P1 P1 3.499(6) 3_655
P1 P2 3.730(3) .
P1 P2 3.730(3) 9_655
P1 P2 4.005(3) 9
P1 P2 4.005(3) 1_455
P1 P1 4.0259(10) 1_455
P1 P1 4.0259(10) 1_655
P1 P1 4.127(6) 9_665
P1 Cu1 4.232(3) 1_565
P1 Cu1 4.232(3) 9_565
P1 P2 4.263(3) 13
P1 P2 4.263(3) 5_454
P1 Cu1 4.443(3) 1_655
P1 Cu1 4.443(3) 9_655
P1 P1 4.553(6) 3_455
P1 P1 4.583(3) 11_465
P1 P1 4.583(3) 11_665
P1 P1 4.885(7) 9_655
P1 Cu1 4.897(3) 9_455
P1 Cu1 4.897(3) 1_455
P1 P1 5.052(7) 9_465
P1 P2 5.116(3) 1_565
P1 P2 5.116(3) 9_665
P1 Th1 5.1833(16) 9
P1 Th1 5.246(3) 5_544
P1 Th1 5.246(3) 13_545
P1 P1 5.275(4) 11_455
P1 P1 5.275(4) 11_655
P2 Cu1 2.3350(15) 1_655
P2 Th1 2.8862(19) 1_655
P2 Th1 2.9047(9) 13_545
P2 Th1 2.9047(9) 13
P2 P2 3.6819(19) 13_655
P2 P2 3.6819(19) 13_545
P2 P2 3.6819(19) 13
P2 P2 3.6819(19) 13_645
P2 P1 3.730(3) 11
P2 P1 3.730(3) 9_655
P2 P1 3.730(3) 3_655
P2 Cu1 3.737(2) 13
P2 Cu1 3.737(2) 13_545
P2 P1 4.005(3) 9
P2 P1 4.005(3) 3
P2 P1 4.005(3) 11_655
P2 P1 4.005(3) 1_655
P2 P2 4.0259(10) 1_655
P2 P2 4.0259(10) 1_455
P2 P1 4.263(3) 15
P2 P1 4.263(3) 13
P2 P1 4.263(3) 7_545
P2 P1 4.263(3) 5_545
P2 Cu1 4.889(3) 9
P2 Cu1 4.889(3) 9_655
P2 Th1 4.9644(10) 13_445
P2 Th1 4.9644(10) 13_655
P2 Th1 4.9644(10) 13_455
P2 Th1 4.9644(10) 13_645
P2 P1 5.116(3) 1_545
P2 P1 5.116(3) 3_645
P2 P1 5.116(3) 9_665
P2 P1 5.116(3) 11_565
P2 P1 5.319(3) 3_545
P2 P1 5.319(3) 1_645
P2 P1 5.319(3) 11_665
P2 P1 5.319(3) 9_565
