#------------------------------------------------------------------------------
#$Date: 2017-06-28 06:25:21 +0300 (Wed, 28 Jun 2017) $
#$Revision: 198195 $
#$URL: file:///home/coder/svn-repositories/cod/cif/7/04/34/7043490.cif $
#------------------------------------------------------------------------------
#
# This file is available in the Crystallography Open Database (COD),
# http://www.crystallography.net/
#
# All data on this site have been placed in the public domain by the
# contributors.
#
data_7043490
loop_
_publ_author_name
'Sun, Wei'
'Huang, Ya-Xi'
'Pan, Yuanming'
'Mi, Jin-Xiao'
_publ_section_title
;
 Strong spin frustration and negative magnetization in LnCu3(OH)6Cl3 (Ln =
 Nd and Sm) with triangular lattices: The effects of lanthanides
;
_journal_name_full               'Dalton Trans.'
_journal_paper_doi               10.1039/C7DT01798G
_journal_year                    2017
_chemical_formula_sum            'Cl3 Cu3 H6 Nd O6'
_chemical_formula_weight         543.26
_chemical_name_systematic
;
 ?
;
_space_group_crystal_system      trigonal
_space_group_IT_number           164
_space_group_name_Hall           '-P 3 2"'
_space_group_name_H-M_alt        'P -3 m 1'
_symmetry_space_group_name_Hall  '-P 3 2"'
_symmetry_space_group_name_H-M   'P -3 m 1'
_atom_sites_solution_hydrogens   difmap
_atom_sites_solution_primary     direct
_audit_creation_method           SHELXL-2013
_cell_angle_alpha                90
_cell_angle_beta                 90
_cell_angle_gamma                120
_cell_formula_units_Z            1
_cell_length_a                   6.8645(7)
_cell_length_b                   6.8645(7)
_cell_length_c                   5.6391(12)
_cell_measurement_reflns_used    2991
_cell_measurement_temperature    173(2)
_cell_measurement_theta_max      28.596
_cell_measurement_theta_min      3.427
_cell_volume                     230.12(6)
_computing_cell_refinement       'SAINT (Bruker, 2001)'
_computing_data_collection       'SMART (Bruker, 2001)'
_computing_data_reduction        'SAINT (Bruker, 2001)'
_computing_molecular_graphics
'DIAMOND (Brandenburg, 2011) and ATOMS (Dowty, 2004)'
_computing_publication_material  'SHELXL-2013 (Sheldrick, 2015)'
_computing_structure_refinement  'SHELXL-2013 (Sheldrick, 2015)'
_computing_structure_solution    'SHELXS-2013 (Sheldrick, 2015)'
_diffrn_ambient_temperature      173(2)
_diffrn_measured_fraction_theta_full 0.994
_diffrn_measured_fraction_theta_max 1.000
_diffrn_measurement_device_type  'Bruker Diffraction CCD area-detector'
_diffrn_measurement_method
'1265 images,\f=0, 90, 180 degree, and \D\w=0.3 degree, \c= 54.74 degree'
_diffrn_radiation_monochromator  graphite
_diffrn_radiation_source         'fine-focus sealed tube'
_diffrn_radiation_type           MoK\a
_diffrn_radiation_wavelength     0.71073
_diffrn_reflns_av_R_equivalents  0.0245
_diffrn_reflns_av_unetI/netI     0.0104
_diffrn_reflns_Laue_measured_fraction_full 0.994
_diffrn_reflns_Laue_measured_fraction_max 1.000
_diffrn_reflns_limit_h_max       8
_diffrn_reflns_limit_h_min       -9
_diffrn_reflns_limit_k_max       9
_diffrn_reflns_limit_k_min       -9
_diffrn_reflns_limit_l_max       7
_diffrn_reflns_limit_l_min       -7
_diffrn_reflns_number            2991
_diffrn_reflns_point_group_measured_fraction_full 0.994
_diffrn_reflns_point_group_measured_fraction_max 1.000
_diffrn_reflns_theta_full        25.242
_diffrn_reflns_theta_max         28.596
_diffrn_reflns_theta_min         3.427
_diffrn_standards_number         0
_exptl_absorpt_coefficient_mu    13.242
_exptl_absorpt_correction_T_max  0.923
_exptl_absorpt_correction_T_min  0.734
_exptl_absorpt_correction_type   multi-scan
_exptl_absorpt_process_details   'SMART (Bruker, 2001)'
_exptl_crystal_colour            blue
_exptl_crystal_density_diffrn    3.920
_exptl_crystal_description       prism
_exptl_crystal_F_000             252
_exptl_crystal_size_max          0.180
_exptl_crystal_size_mid          0.180
_exptl_crystal_size_min          0.080
_refine_diff_density_max         0.439
_refine_diff_density_min         -0.496
_refine_diff_density_rms         0.130
_refine_ls_extinction_coef       0.0239(19)
_refine_ls_extinction_expression Fc^*^=kFc[1+0.001xFc^2^\l^3^/sin(2\q)]^-1/4^
_refine_ls_extinction_method     SHELXL
_refine_ls_goodness_of_fit_ref   1.038
_refine_ls_hydrogen_treatment    refall
_refine_ls_matrix_type           full
_refine_ls_number_parameters     22
_refine_ls_number_reflns         248
_refine_ls_number_restraints     1
_refine_ls_restrained_S_all      1.043
_refine_ls_R_factor_all          0.0109
_refine_ls_R_factor_gt           0.0109
_refine_ls_shift/su_max          0.000
_refine_ls_shift/su_mean         0.000
_refine_ls_structure_factor_coef Fsqd
_refine_ls_weighting_details
;
 w=1/[\s^2^(Fo^2^)+(0.0262P)^2^+0.2769P]
 where P=(Fo^2^+2Fc^2^)/3
;
_refine_ls_weighting_scheme      calc
_refine_ls_wR_factor_gt          0.0370
_refine_ls_wR_factor_ref         0.0371
_reflns_Friedel_coverage         0.000
_reflns_number_gt                247
_reflns_number_total             248
_reflns_threshold_expression     'I > 2\s(I)'
_cod_data_source_file            c7dt01798g3.cif
_cod_data_source_block           ndcu3
_cod_original_cell_volume        230.12(7)
_cod_database_code               7043490
_shelx_space_group_comment
;
The symmetry employed for this shelxl refinement is uniquely defined
by the following loop, which should always be used as a source of
symmetry information in preference to the above space-group names.
They are only intended as comments.
;
_shelx_estimated_absorpt_t_min   0.199
_shelx_estimated_absorpt_t_max   0.417
_shelxl_version_number           2013-2
_shelx_res_file
;
TITL NdCu3O6H6Cl3 in P-3m1
CELL 0.71073   6.8645   6.8645   5.6391  90.000  90.000 120.000
ZERR    1.00   0.0007   0.0007   0.0012   0.000   0.000   0.000
LATT  1
SYMM -Y, X-Y, Z
SYMM -X+Y, -X, Z
SYMM Y, X, -Z
SYMM X-Y, -Y, -Z
SYMM -X, -X+Y, -Z
SFAC O H CL CU ND
UNIT 6 6 3 3 1
TEMP -100.000
SIZE 0.08 0.18 0.18

HTAB
EQIV $3 x, y, z-1
HTAB O1 Cl1_$3
HTAB O1 Cl2

L.S. 10
BOND $H
ACTA

FMAP 2
PLAN 20

WGHT    0.026200    0.276900
EXTI    0.023938
FVAR       0.23319
MOLE   1
ND1   5    0.000000    0.000000    0.500000    10.08333    0.00306    0.00306 =
         0.00668    0.00000    0.00000    0.00153
CU1   4    0.500000    0.500000    0.500000    10.25000    0.00295    0.00295 =
         0.00671    0.00100   -0.00100    0.00059
CL1   3    0.333333    0.666667    0.864995    10.16667    0.01606    0.01606 =
         0.00489    0.00000    0.00000    0.00803
CL2   3    0.000000    0.000000    0.000000    10.08333    0.01309    0.01309 =
         0.00369    0.00000    0.00000    0.00655
O1    1    0.195004    0.390009    0.368533    10.50000    0.00508    0.00460 =
         0.00346    0.00041    0.00021    0.00230
DFIX 0.82 0.02 O1 H1
H1    2    0.201476    0.402951    0.230531    10.50000    0.02301

HKLF 4

REM  NdCu3O6H6Cl3 in P-3m1
REM R1 =  0.0109 for     247 Fo > 4sig(Fo)  and  0.0109 for all     248 data
REM     22 parameters refined using      1 restraints

END

WGHT      0.0083      0.2757

REM Instructions for potential hydrogen bonds
HTAB O1 Cl1_$3
HTAB O1 Cl2

REM Highest difference peak  0.439,  deepest hole -0.496,  1-sigma level  0.130
Q1    1   0.4262  0.7131  0.8736  10.50000  0.05    0.38
Q2    1   0.0000  0.0000  0.3622  10.16667  0.05    0.27
Q3    1   0.0891  0.1782  0.2539  10.50000  0.05    0.27
Q4    1   0.3374  0.4983  0.0373  11.00000  0.05    0.25
Q5    1   0.3951  0.7903  0.7406  10.50000  0.05    0.25
Q6    1   0.0922  0.4187  0.1091  11.00000  0.05    0.24
Q7    1   0.3535  0.4484  0.2972  11.00000  0.05    0.22
Q8    1  -0.0542  0.0542  0.0571  10.50000  0.05    0.21
Q9    1   0.0937  0.1874  0.0892  10.50000  0.05    0.21
Q10   1  -0.1386 -0.2772  0.1233  10.50000  0.05    0.21
Q11   1  -0.0841 -0.1681  0.2862  10.50000  0.05    0.20
Q12   1   0.5000  1.0000  1.0000  10.25000  0.05    0.20
Q13   1   0.1438  0.4235  0.4311  11.00000  0.05    0.19
Q14   1   0.5323  0.4677  0.2554  10.50000  0.05    0.18
Q15   1   0.2454  0.0000  0.0000  10.50000  0.05    0.13
Q16   1   0.1559  0.5779  0.1235  10.50000  0.05    0.13
Q17   1   0.0289  0.2429  0.1556  11.00000  0.05    0.12
Q18   1   0.5349  0.7674  0.7673  10.50000  0.05    0.11
Q19   1   0.3944  0.3574  0.2394  11.00000  0.05    0.10
Q20   1   0.3333  0.6667  0.2837  10.16667  0.05    0.08
;
_shelx_res_checksum              12295
_shelx_hkl_file
;
   1   0   0   28.81    0.86
   1   0   0   27.21    0.85
   0  -1   0   30.08    0.87
  -1   1   0   31.77    0.86
   0  -1   0   35.43    0.87
   0   1   0   27.97    0.87
   0   1   0   35.84    0.87
   1  -1   0   36.97    0.92
   1  -1   0   35.08    0.92
   1  -1   0   34.47    0.87
  -1   0   0   34.95    0.91
  -1   0   0   37.14    0.87
  -1   0   0   36.83    0.90
  -1   0   0   29.13    0.86
  -1   0   0   36.08    0.87
   1   1   0  175.86    4.60
   1   1   0  166.54    4.50
   1  -2   0  163.88    4.30
   1  -2   0  171.75    4.96
  -2   1   0  163.03    4.27
  -2   1   0  172.25    4.26
   2  -1   0  167.20    4.32
  -1  -1   0  162.80    4.47
  -1  -1   0  172.94    4.53
  -1   2   0  164.41    4.32
  -1   2   0  178.76    4.38
   0  -2   0  541.39   13.44
   2   0   0  536.09   13.37
  -2   0   0  558.34   13.48
   0   2   0  568.01   13.55
  -2   0   0  561.84   13.54
   2  -2   0  448.97   13.61
  -2   0   0  548.19   13.56
   2  -2   0  523.57   13.98
   0   2   0  498.21   13.45
  -2   0   0  507.21   13.39
  -2   0   0  520.15   13.36
   1   2   0   89.63    2.36
   2  -3   0   92.29    2.45
   2  -3   0   91.81    2.47
   2  -3   0   91.42    2.30
   1   2   0   89.54    2.36
  -3   1   0   88.48    2.31
  -3   1   0   92.15    2.30
  -1  -2   0   90.53    2.35
  -2   3   0   85.42    2.26
  -2   3   0   94.92    2.29
  -1  -2   0   92.49    2.37
   2   1   0   92.59    2.36
   2   1   0   90.70    2.36
   2   1   0   90.72    2.37
   1  -3   0   91.42    2.47
   1  -3   0   93.57    2.49
   1  -3   0   91.20    2.31
   3  -2   0   92.21    2.48
  -1   3   0   92.64    2.35
   3  -2   0   92.17    2.50
  -1   3   0   92.55    2.34
  -2  -1   0   88.50    2.38
   3   0   0   84.01    2.27
   0  -3   0   81.73    2.16
   0   3   0   83.54    2.17
  -3   0   0   83.63    2.16
   3  -3   0   83.07    2.31
   0   3   0   82.34    2.17
  -3   0   0   79.32    2.14
  -3   0   0   85.75    2.17
   3  -3   0   80.67    2.29
  -3   0   0   83.16    2.17
   1   3   0   16.87    0.59
  -4   1   0   18.00    0.52
   3  -4   0   17.85    0.52
   3  -4   0   17.25    0.69
   1   3   0   16.83    0.59
  -4   1   0   16.60    0.55
  -4   1   0   17.27    0.54
  -4   1   0   16.91    0.50
   3  -4   0   17.15    0.71
  -1  -3   0   17.57    0.59
   2  -4   0  929.01   24.52
   2   2   0 1000.00   24.16
   2   2   0  930.48   23.86
  -4   2   0  965.18   23.45
  -4   2   0  976.99   23.56
   2  -4   0  813.22   23.77
   2   2   0  953.13   23.98
  -2  -2   0  930.53   24.09
  -2   4   0  962.11   23.65
  -2   4   0  955.67   23.59
  -2  -2   0  931.24   24.14
   3   1   0   17.22    0.57
   1  -4   0   17.24    0.52
   1  -4   0   16.76    0.69
  -3  -1   0   16.43    0.59
   4  -3   0   17.99    0.70
  -1   4   0   16.79    0.56
   4  -3   0   16.92    0.70
  -1   4   0   17.68    0.57
  -3  -1   0   17.23    0.59
   0  -4   0  420.40   10.34
   4  -4   0  389.60   10.37
  -4   0   0  414.65   10.64
  -4   0   0  416.77   10.55
   0   4   0  394.69   10.36
   4  -4   0  418.00   10.43
   0   4   0  416.64   10.88
  -5   1   0   85.51    2.18
   1   4   0   80.32    2.22
   4  -5   0   79.33    2.41
  -5   1   0   81.97    2.15
  -5   1   0   78.76    2.17
   1   4   0   80.88    2.22
  -5   1   0   80.48    2.13
   4  -5   0   83.19    2.40
  -1  -4   0   81.41    2.21
   3  -5   0    7.70    0.30
   3  -5   0    8.02    0.47
  -5   2   0    7.57    0.30
  -5   2   0    7.73    0.29
   3  -5   0    7.56    0.44
   2   3   0    7.44    0.36
   2   3   0    7.67    0.34
  -3   5   0    7.49    0.27
  -3   5   0    7.46    0.28
  -2  -3   0    7.58    0.36
   2  -5   0    7.79    0.44
   2  -5   0    7.36    0.45
   3   2   0    7.67    0.35
  -5   3   0    7.73    0.24
  -5   3   0    7.43    0.25
   3   2   0    7.35    0.35
  -2   5   0    7.50    0.31
  -3  -2   0    7.11    0.35
   5  -3   0    7.38    0.46
  -3  -2   0    7.14    0.35
  -2   5   0    6.58    0.30
   4   1   0   82.57    2.16
   1  -5   0   80.75    2.38
   1  -5   0   80.28    2.13
  -1   5   0   78.24    2.17
  -4  -1   0   80.27    2.20
   5  -4   0   78.84    2.36
   5  -4   0   81.02    2.41
  -4  -1   0   82.27    2.21
   0  -5   0   63.18    2.00
   0  -5   0   65.78    1.82
   0   5   0   62.49    1.82
   0   5   0   64.30    1.82
   5  -5   0   65.00    2.05
  -5   0   0   66.51    1.83
  -5   0   0   64.93    1.80
   5  -5   0   63.09    1.99
   5  -6   0   19.34    0.88
   5  -6   0   19.63    0.91
   1   5   0   19.62    0.74
  -6   1   0   19.39    0.70
  -6   1   0   19.92    0.69
  -5   6   0   19.76    0.53
  -5   6   0   19.67    0.55
  -6   2   0  285.04    7.47
   2   4   0  290.95    7.33
   4  -6   0  275.15    7.50
  -6   2   0  290.92    7.47
   4  -6   0  290.04    7.57
  -6   2   0  275.22    7.39
  -6   2   0  294.60    7.18
  -4   6   0  304.12    7.33
  -4   6   0  281.84    7.32
  -2  -4   0  285.93    7.31
  -6   3   0  103.67    2.68
   3   3   0  103.88    2.82
   3  -6   0  102.15    3.00
   3  -6   0  106.37    3.06
  -3  -3   0  104.60    2.84
  -3   6   0  103.01    2.71
   4   2   0  286.46    7.28
   2  -6   0  269.91    7.49
   2  -6   0  279.56    7.54
  -6   4   0  303.59    7.16
  -6   4   0  285.37    7.20
  -2   6   0  294.67    7.54
  -4  -2   0  301.59    7.34
   6  -4   0  281.48    7.58
   6  -4   0  282.55    7.56
   1  -6   0   19.35    0.88
   1  -6   0   19.82    0.87
  -5  -1   0   19.28    0.73
  -1   6   0   18.08    0.69
   6  -5   0   18.61    0.87
  -1   6   0   19.02    0.69
   6  -5   0   19.61    0.91
   0  -6   0  399.84   10.32
   0  -6   0  391.88   10.27
  -6   0   0  403.96   10.05
   0   6   0  400.62   10.08
   6  -6   0  382.11   10.29
   0   6   0  403.01   10.05
   6  -6   0  398.66   10.37
   6  -7   0   10.32    0.69
  -7   1   0   10.12    0.49
   6  -7   0    9.97    0.65
   1   6   0    9.84    0.52
  -6   7   0   10.06    0.32
  -1  -6   0    9.44    0.64
  -7   2   0   38.59    1.16
  -7   2   0   36.55    1.18
  -7   2   0   40.58    1.15
   5  -7   0   39.66    1.48
   5  -7   0   36.83    1.48
   2   5   0   36.86    1.26
  -5   7   0   39.23    1.07
  -7   3   0   33.46    1.04
  -7   3   0   34.64    0.95
  -7   3   0   35.14    0.97
   4  -7   0   35.68    1.36
  -7   3   0   35.18    1.05
   3   4   0   34.45    1.16
   4  -7   0   33.88    1.37
  -3  -4   0   34.86    1.17
  -4   7   0   34.67    1.03
   3  -7   0   33.66    1.33
  -7   4   0   34.32    0.99
   4   3   0   34.31    1.13
   3  -7   0   34.29    1.36
  -4  -3   0   34.39    1.17
  -3   7   0   35.26    1.07
   2  -7   0   38.17    1.44
  -7   5   0   38.79    1.03
   7  -5   0   38.94    1.50
  -2   7   0   36.18    1.19
  -2   7   0   38.44    1.20
  -5  -2   0   37.88    1.26
   7  -5   0   37.77    1.51
   1  -7   0    9.26    0.63
   1  -7   0    9.97    0.64
   7  -6   0   10.60    0.71
  -1   7   0   10.39    0.51
  -6  -1   0   10.77    0.54
  -1   7   0    9.99    0.50
   7  -6   0   11.96    0.71
   0  -7   0    6.45    0.54
   0  -7   0    6.98    0.56
   7  -7   0    5.31    0.50
  -7   0   0    6.77    0.42
   7  -7   0    7.13    0.59
   0   7   0    5.97    0.41
  -8   1   0   56.07    1.77
   7  -8   0   56.72    2.08
   1   7   0   55.85    1.81
   7  -8   0   53.49    2.11
  -7   8   0   58.60    1.50
  -1  -7   0   56.10    2.06
  -1  -7   0   57.26    2.05
   6  -8   0  206.20    5.80
   6  -8   0  203.81    5.86
  -8   2   0  208.14    5.41
   2   6   0  208.55    5.52
  -6   8   0  206.03    5.21
  -8   3   0    9.44    0.45
   3   5   0    9.36    0.52
   5  -8   0    9.37    0.67
  -8   3   0    9.47    0.42
  -8   3   0    9.54    0.41
   5  -8   0    9.52    0.69
  -5   8   0    9.28    0.40
  -8   4   0  296.85    7.27
   4  -8   0  293.16    7.76
   4  -8   0  273.56    7.77
  -8   4   0  289.71    7.26
  -4  -4   0  275.88    7.45
  -4   8   0  296.44    7.31
   3  -8   0    9.09    0.67
   3  -8   0    9.92    0.68
  -8   5   0    9.66    0.38
  -5  -3   0    9.38    0.53
  -3   8   0    9.01    0.46
  -8   6   0  209.61    5.19
   2  -8   0  204.79    5.80
   2  -8   0  208.64    5.84
  -2   8   0  210.17    5.47
  -6  -2   0  207.20    5.55
  -2   8   0  206.55    5.45
   8  -6   0  205.71    5.91
   1  -8   0   54.66    2.05
   1  -8   0   57.34    2.05
  -7  -1   0   57.63    1.81
   8  -7   0   55.85    2.13
   8  -7   0   52.57    2.05
  -1   8   0   55.59    1.78
   0  -8   0  121.92    3.91
   0  -8   0  129.59    3.93
   0   8   0  129.12    3.64
   8  -8   0  129.36    3.99
  -8   0   0  131.95    3.64
   8  -8   0  129.48    4.08
  -9   3   0   30.20    1.08
   6  -9   0   30.26    1.46
   6  -9   0   33.47    1.47
  -6   9   0   30.79    0.99
   5  -9   0    8.51    0.70
   5  -9   0    9.12    0.70
  -9   4   0    8.25    0.43
  -9   4   0    8.76    0.39
  -9   4   0    9.21    0.42
  -5   9   0    8.21    0.43
  -9   5   0    8.53    0.40
   4  -9   0    8.75    0.71
   4  -9   0    9.37    0.71
  -4   9   0    8.77    0.47
  -5  -4   0    8.87    0.58
   3  -9   0   29.21    1.42
  -9   6   0   31.04    0.95
   3  -9   0   32.27    1.45
  -3   9   0   35.59    1.42
  -6  -3   0   30.59    1.21
  -3   9   0   31.03    1.13
   0   0  -1  553.60   14.68
   0   0  -1  603.20   14.75
   0   0   1  580.37   14.66
   0   1  -1   14.27    0.47
  -1   0  -1   14.71    0.46
   0   1  -1   13.71    0.46
  -1   0  -1   14.40    0.45
   1  -1  -1   15.27    0.45
   0   1  -1   14.80    0.46
   1  -1  -1   15.60    0.48
  -1   0  -1   15.80    0.47
   0   1  -1   16.07    0.46
   0   1  -1   14.44    0.45
  -1   0  -1   15.04    0.46
   1  -1  -1   15.23    0.46
   0  -1   1   14.95    0.46
   0  -1   1   15.06    0.47
  -1   1   1   14.87    0.46
   0  -1   1   14.15    0.46
   0  -1   1   14.81    0.44
  -1   1   1   14.47    0.45
   1   0   1   15.25    0.43
  -1   1   1   16.34    0.46
   1   0   1   14.51    0.44
   0  -1   1   15.29    0.46
   1   0   1   14.80    0.46
   0  -1   1   14.99    0.46
  -1   1   1   14.01    0.43
   0  -1  -1   35.12    0.98
   0  -1  -1   35.08    0.96
  -1   1  -1   35.10    0.94
   1   0  -1   35.63    0.98
   1   0  -1   36.48    0.97
  -1   1  -1   35.97    0.94
   1   0  -1   36.31    0.99
   0  -1  -1   33.84    0.97
   1   0  -1   34.84    0.97
   0   1   1   36.53    0.98
   0   1   1   36.19    0.97
  -1   0   1   36.50    0.99
  -1   0   1   34.67    0.99
   1  -1   1   35.39    0.92
  -1   0   1   35.63    0.97
   1  -1   1   37.26    1.00
   1  -1   1   36.30    1.01
  -1   0   1   35.18    0.97
  -1   0   1   36.20    0.93
   1  -1   1   35.82    0.92
  -1   2  -1    6.39    0.27
  -1   2  -1    7.40    0.24
   2  -1  -1    7.27    0.23
  -1   2  -1    7.25    0.26
   2  -1  -1    7.09    0.30
  -1  -1  -1    6.39    0.27
   1  -2   1    6.72    0.27
  -2   1   1    6.93    0.24
   1   1   1    6.78    0.27
  -2   1   1    7.14    0.28
   1   1   1    7.80    0.29
   1  -2   1    6.74    0.30
  -2   1   1    6.73    0.25
   1  -2   1    6.59    0.21
  -2   1   1    6.77    0.21
   1   1   1    6.96    0.27
   1  -2   1    6.59    0.31
   3  -2  -1   15.91    0.59
   3  -2  -1   15.65    0.58
  -2  -1  -1   15.78    0.53
  -1   3  -1   16.67    0.50
  -2  -1  -1   16.47    0.53
  -1   3  -1   15.57    0.50
  -3   2   1   16.08    0.48
   2   1   1   15.56    0.50
   1  -3   1   15.79    0.58
   2   1   1   15.50    0.52
   1  -3   1   15.65    0.52
   1  -3   1   15.79    0.45
  -3   2   1   15.52    0.46
   1  -3   1   15.24    0.58
   0   2  -1  890.21   23.01
   0   2  -1  945.92   23.04
  -2   0  -1  936.98   23.04
   2  -2  -1  829.44   23.29
  -2   0  -1  861.51   23.01
   0   2  -1  962.24   23.06
   2   0   1  905.55   22.96
   0  -2   1  913.45   23.31
   0  -2   1  983.04   23.13
  -2   1  -1    6.95    0.25
  -2   1  -1    6.94    0.23
   1   1  -1    6.90    0.27
   1   1  -1    6.52    0.27
   1  -2  -1    6.89    0.33
   1  -2  -1    7.00    0.30
  -1   2   1    6.50    0.25
  -1  -1   1    6.82    0.27
  -1  -1   1    6.20    0.27
  -1   2   1    6.71    0.27
  -1  -1   1    6.84    0.27
  -1  -1   1    6.03    0.27
   2   0  -1  241.12    6.05
  -2   2  -1  240.34    6.27
   2   0  -1  226.47    6.12
   2   0  -1  244.74    6.27
   0  -2  -1  232.40    6.32
   2  -2   1  224.11    6.39
   2  -2   1  223.75    5.94
   0   2   1  234.82    6.31
   0   2   1  236.76    6.18
  -2   0   1  229.68    6.14
  -2   0   1  248.54    6.23
  -2   0   1  241.69    6.37
   0   2   1  235.11    6.26
  -2   3  -1   95.44    2.42
  -1  -2  -1   90.23    2.50
   3  -1  -1   97.27    2.41
  -2   3  -1   98.56    2.44
   2  -3   1   92.15    2.57
   2  -3   1   97.66    2.60
   2  -3   1   98.04    2.49
   1   2   1   95.64    2.49
  -3   1   1   95.03    2.44
  -3   1   1   95.98    2.49
  -3   1   1   99.68    2.46
   1   2   1   94.28    2.50
   1   2   1   95.30    2.50
  -3   1   1   95.95    2.44
   4  -2  -1  405.95   11.03
  -2  -2  -1  424.23   10.98
  -2   4  -1  440.72   10.47
  -2   4  -1  391.46   10.44
   2   2   1  399.69   10.72
  -4   2   1  432.75   10.44
   2   2   1  424.48   10.67
  -4   2   1  401.51   10.64
   2  -4   1  392.98   11.00
  -4   2   1  411.68   10.31
   2   2   1  384.47   10.50
   2  -4   1  400.65   11.03
  -3  -2  -1    7.06    0.36
  -2   5  -1    7.50    0.31
   5  -3  -1    6.93    0.44
  -2   5  -1    7.49    0.32
  -3  -2  -1    7.44    0.36
   3   2   1    7.44    0.35
   2  -5   1    7.00    0.43
  -5   3   1    7.80    0.28
   2  -5   1    7.61    0.44
  -5   3   1    7.56    0.30
  -1   4  -1   35.79    1.03
  -1   4  -1   35.32    1.00
  -3  -1  -1   34.28    1.05
  -3  -1  -1   36.45    1.06
  -3  -1  -1   34.36    1.06
   4  -3  -1   37.13    1.19
   4  -3  -1   34.50    1.15
   3   1   1   37.34    1.05
  -4   3   1   35.65    0.96
  -4   3   1   36.34    0.95
   1  -4   1   36.30    1.15
   1  -4   1   35.54    0.97
   1  -4   1   35.34    1.16
  -3   0  -1   28.85    0.83
   0   3  -1   27.46    0.83
   3  -3  -1   26.67    0.92
  -3   0  -1   28.62    0.82
   0   3  -1   29.45    0.85
  -3   0  -1   27.19    0.83
   3  -3  -1   28.98    0.96
  -3   3   1   28.28    0.76
   0  -3   1   28.42    0.83
  -3   3   1   28.97    0.76
   0  -3   1   29.30    0.92
  -3   1  -1   15.51    0.48
  -3   1  -1   16.87    0.50
   1   2  -1   15.22    0.53
   2  -3  -1   15.99    0.63
   2  -3  -1   16.04    0.59
   1   2  -1   15.24    0.53
  -1  -2   1   15.04    0.53
  -2   3   1   18.57    0.52
  -1  -2   1   16.10    0.52
  -2   3   1   16.17    0.48
   2   1  -1   92.87    2.47
   1  -3  -1   95.29    2.56
   1  -3  -1   94.20    2.61
   2   1  -1   96.19    2.48
  -2  -1   1   90.84    2.49
   3  -2   1   95.83    2.61
  -1   3   1   97.63    2.45
  -2  -1   1   91.36    2.48
   3  -2   1   97.65    2.59
  -1   3   1   96.51    2.47
  -2  -1   1   96.78    2.51
   0  -3  -1    2.06    0.16
   3   0  -1    1.95    0.14
  -3   3  -1    2.53    0.14
   0   3   1    2.05    0.16
   3  -3   1    1.90    0.20
  -3   0   1    1.96    0.16
   3  -3   1    2.10    0.22
  -3   0   1    2.31    0.17
  -1  -3  -1    2.01    0.17
  -3   4  -1    2.17    0.10
   4  -1  -1    2.65    0.12
   1   3   1    2.18    0.17
  -4   1   1    2.10    0.15
   1   3   1    2.09    0.16
   3  -4   1    2.20    0.22
  -4   1   1    2.58    0.17
   3  -4   1    2.05    0.22
   1   3   1    2.50    0.19
  -4   1   1    2.11    0.16
  -3   5  -1    7.26    0.27
  -2  -3  -1    7.43    0.36
  -3   5  -1    7.31    0.28
   2   3   1    7.22    0.35
  -5   2   1    7.66    0.27
   3  -5   1    7.22    0.43
  -5   2   1    7.45    0.31
  -5   2   1    7.43    0.25
   2   3   1    7.74    0.36
  -5   2   1    8.15    0.33
   3  -5   1    7.11    0.44
  -5   2   1    7.35    0.27
  -3  -3  -1    3.28    0.26
  -3   6  -1    3.49    0.21
   3   3   1    3.60    0.25
   3  -6   1    3.74    0.35
   3  -6   1    3.58    0.33
  -6   3   1    3.27    0.21
  -3   7  -1    8.48    0.39
  -4  -3  -1    8.32    0.46
   3  -7   1    8.89    0.58
   3  -7   1    9.37    0.58
  -7   4   1    8.58    0.37
   6  -4  -1  336.09    8.92
  -2   6  -1  338.71    8.60
  -2   6  -1  348.19    8.75
  -4  -2  -1  352.75    8.69
   6  -4  -1  328.66    8.86
   2  -6   1  348.94    8.88
   4   2   1  353.43    8.64
   2  -6   1  353.33    8.87
  -6   4   1  321.41    8.67
   5  -4  -1    2.76    0.27
  -4  -1  -1    3.69    0.23
  -1   5  -1    3.45    0.22
   5  -4  -1    3.47    0.31
  -4  -1  -1    3.75    0.25
  -1   5  -1    3.47    0.21
   1  -5   1    3.26    0.29
   1  -5   1    3.59    0.30
   4   1   1    3.23    0.21
  -5   4   1    3.96    0.16
  -5   4   1    3.40    0.14
   0   4  -1  246.97    6.46
  -4   0  -1  238.91    6.15
   0   4  -1  245.03    6.17
  -4   0  -1  233.08    6.17
   4  -4  -1  243.67    6.33
  -4   0  -1  250.84    6.15
   4  -4  -1  251.29    6.38
   0  -4   1  248.12    6.30
   0  -4   1  247.33    6.15
  -4   4   1  245.55    6.15
  -4   4   1  239.54    6.14
   1   3  -1   34.50    1.06
   3  -4  -1   35.63    1.17
  -4   1  -1   35.94    1.02
   3  -4  -1   36.99    1.21
  -4   1  -1   36.37    0.98
   1   3  -1   34.91    1.06
  -4   1  -1   35.37    1.01
  -4   1  -1   35.41    0.96
  -3   4   1   35.70    1.00
  -1  -3   1   36.57    1.06
  -3   4   1   35.69    0.97
   2   2  -1  416.89   10.62
   2   2  -1  401.45   10.66
  -4   2  -1  426.21   10.49
  -4   2  -1  415.53   10.56
   2  -4  -1  426.77   11.01
  -2   4   1  404.50   10.69
  -2  -2   1  415.21   10.78
  -2   4   1  409.71   10.67
   3   1  -1    2.28    0.17
   1  -4  -1    2.65    0.27
   1  -4  -1    2.10    0.23
  -1   4   1    2.14    0.16
   4  -3   1    2.25    0.23
   4  -3   1    2.39    0.25
  -1   4   1    2.07    0.16
  -3  -1   1    2.15    0.18
  -4   4  -1  555.69   13.74
   4   0  -1  559.59   13.90
   0  -4  -1  558.53   14.11
   0   4   1  563.96   14.07
  -4   0   1  499.97   13.87
   4  -4   1  552.86   14.49
  -4   0   1  498.75   13.86
  -4   0   1  557.51   14.15
   0   4   1  534.62   14.31
   4  -4   1  550.01   13.69
  -1  -4  -1    1.79    0.17
   1   4   1    1.75    0.16
  -5   1   1    1.72    0.15
   4  -5   1    1.25    0.20
   1   4   1    1.76    0.17
  -5   1   1    1.85    0.16
   1   4   1    1.53    0.16
   4  -5   1    1.50    0.22
  -2  -4  -1  199.58    5.15
  -4   6  -1  199.85    4.97
  -6   2   1  202.06    5.07
   4  -6   1  199.51    5.34
   2   4   1  192.83    5.14
  -6   2   1  196.11    5.08
   4  -6   1  197.56    5.37
  -3  -4  -1   39.63    1.30
  -4   7  -1   39.83    1.15
   4  -7   1   41.26    1.50
   4  -7   1   39.77    1.46
   3   4   1   37.33    1.27
  -7   3   1   37.85    1.19
  -7   3   1   40.53    1.17
  -4  -4  -1  128.98    3.51
  -4   8  -1  124.67    3.32
  -8   4   1  127.35    3.34
  -8   4   1  114.25    3.25
   4  -8   1  132.26    3.77
  -8   4   1  126.02    3.21
   4  -8   1  124.89    3.74
  -4   9  -1    5.65    0.36
  -4   9  -1    5.57    0.35
  -5  -4  -1    4.99    0.42
  -9   5   1    5.38    0.30
  -9   5   1    5.85    0.34
   4  -9   1    5.77    0.56
   4  -9   1    5.54    0.54
  -3   8  -1   25.48    0.91
  -3   8  -1   25.59    0.88
  -5  -3  -1   25.57    1.00
  -8   5   1   25.64    0.82
   3  -8   1   25.17    1.16
   3  -8   1   26.37    1.17
  -5  -2  -1    2.83    0.27
  -2   7  -1    2.88    0.23
  -2   7  -1    2.36    0.22
   7  -5  -1    2.62    0.35
   2  -7   1    3.56    0.38
   2  -7   1    3.10    0.35
  -7   5   1    3.63    0.21
   6  -5  -1    1.29    0.23
  -1   6  -1    1.64    0.17
   6  -5  -1    1.86    0.27
  -1   6  -1    1.47    0.18
   1  -6   1    1.73    0.25
  -6   5   1    1.73    0.11
   1  -6   1    1.51    0.25
  -5   0  -1   58.69    1.68
   0   5  -1   60.95    1.71
   5  -5  -1   60.62    1.93
  -5   0  -1   59.57    1.70
   5  -5  -1   56.62    1.85
   0   5  -1   57.85    1.71
  -5   0  -1   61.86    1.68
   0  -5   1   57.75    1.83
   0  -5   1   60.59    1.85
  -5   5   1   60.54    1.53
  -5   5   1   59.33    1.53
  -5   1  -1    3.66    0.19
   4  -5  -1    3.55    0.32
  -5   1  -1    2.89    0.20
   1   4  -1    3.76    0.25
   4  -5  -1    3.49    0.13
  -5   1  -1    3.52    0.20
   4  -5  -1    3.92    0.32
   1   4  -1    3.16    0.23
  -5   1  -1    3.46    0.24
  -4   5   1    3.37    0.16
  -1  -4   1    3.56    0.23
  -4   5   1    3.31    0.18
   2   3  -1    7.26    0.35
  -5   2  -1    7.63    0.30
   3  -5  -1    6.87    0.45
  -5   2  -1    7.48    0.29
   2   3  -1    6.84    0.35
  -3   5   1    7.46    0.30
  -2  -3   1    7.35    0.36
  -3   5   1    7.59    0.31
   2  -5  -1    7.53    0.47
   3   2  -1    7.01    0.33
   3   2  -1    6.79    0.34
   2  -5  -1    7.34    0.44
  -5   3  -1    7.57    0.25
  -5   3  -1    7.39    0.24
  -2   5   1    6.79    0.32
  -2   5   1    7.61    0.33
  -3  -2   1    7.37    0.35
  -3  -2   1    7.35    0.36
   1  -5  -1    1.41    0.23
  -5   4  -1    1.78    0.11
   4   1  -1    1.74    0.15
   1  -5  -1    1.75    0.23
   1  -5  -1    1.58    0.16
   5  -4   1    1.84    0.24
  -4  -1   1    1.55    0.17
  -1   5   1    1.41    0.15
   5  -4   1    1.64    0.23
   0  -5  -1   17.49    0.67
   0   5   1   17.21    0.66
  -5   0   1   18.13    0.66
   0   5   1   17.44    0.66
   5  -5   1   17.91    0.79
  -5   0   1   16.81    0.65
   5  -5   1   17.84    0.82
  -6   1   1   40.60    1.25
   5  -6   1   42.59    1.47
   5  -6   1   38.48    1.46
   1   5   1   38.17    1.26
  -6   1   1   38.93    1.24
  -6   1   1   42.97    1.26
  -5   7  -1    3.32    0.18
   5  -7   1    3.98    0.40
   5  -7   1    3.75    0.40
  -7   2   1    3.26    0.26
  -7   2   1    3.53    0.26
  -7   2   1    3.61    0.26
   2   5   1    3.39    0.29
  -5   8  -1    0.42    0.10
   5  -8   1    0.33    0.20
  -8   3   1    0.28    0.11
   5  -8   1    0.45    0.22
  -8   3   1    0.32    0.11
   3   5   1    0.35    0.13
  -8   3   1    0.51    0.12
  -5   9  -1    8.10    0.41
   5  -9   1    7.61    0.65
  -9   4   1    7.25    0.42
  -9   4   1    7.78    0.42
   5  -9   1    7.77    0.66
  -3   9  -1    2.82    0.31
  -6  -3  -1    2.82    0.33
  -3   9  -1    2.50    0.27
   3  -9   1    2.75    0.41
  -9   6   1    3.40    0.23
   3  -9   1    2.31    0.39
  -2   8  -1  143.59    3.85
   8  -6  -1  146.95    4.32
  -6  -2  -1  134.19    3.91
  -2   8  -1  140.86    3.86
  -8   6   1  143.85    3.69
   2  -8   1  144.46    4.19
   2  -8   1  143.27    4.19
  -6  -1  -1   17.48    0.75
  -1   7  -1   17.85    0.73
   7  -6  -1   19.96    0.94
  -1   7  -1   17.83    0.72
   7  -6  -1   17.53    0.95
   1  -7   1   17.64    0.88
  -7   6   1   17.76    0.57
   1  -7   1   17.90    0.89
   6  -6  -1  191.01    5.27
   0   6  -1  182.78    4.96
   0   6  -1  187.41    5.12
   6  -6  -1  187.12    5.19
  -6   0  -1  185.38    4.94
  -6   6   1  195.46    4.73
   0  -6   1  196.30    5.17
   0  -6   1  187.27    5.14
   5  -6  -1    1.96    0.27
  -6   1  -1    1.58    0.17
  -6   1  -1    1.65    0.16
   5  -6  -1    1.71    0.27
  -6   1  -1    1.60    0.15
   1   5  -1    1.49    0.19
  -1  -5   1    1.79    0.24
  -5   6   1    1.88    0.12
  -6   2  -1  347.78    8.82
  -6   2  -1  350.76    8.67
  -6   2  -1  344.19    8.81
   4  -6  -1  338.25    8.97
   4  -6  -1  338.35    9.02
   2   4  -1  345.78    8.77
  -2  -4   1  350.73    8.77
  -4   6   1  355.30    8.63
   3  -6  -1    3.07    0.34
   3   3  -1    3.28    0.25
  -6   3  -1    3.24    0.18
   3  -6  -1    3.04    0.32
  -3  -3   1    3.20    0.25
  -3   6   1    3.64    0.22
  -6   4  -1  204.39    5.04
   4   2  -1  207.61    5.25
  -6   4  -1  203.35    5.09
  -6   4  -1  204.73    5.07
   2  -6  -1  203.75    5.53
   2  -6  -1  201.02    5.47
  -4  -2   1  198.66    5.28
  -2   6   1  202.08    5.22
   1  -6  -1   37.77    1.42
   1  -6  -1   39.80    1.49
  -1   6   1   38.59    1.23
  -5  -1   1   38.25    1.26
   6  -5   1   40.60    1.45
   6  -5   1   40.13    1.49
  -1   6   1   40.94    1.25
   0  -6  -1  158.79    4.47
   6  -6   1  155.62    4.38
   6  -6   1  155.78    4.44
   0   6   1  154.80    4.15
  -6   0   1  152.33    4.14
  -6   7  -1    2.61    0.12
   1   6   1    2.37    0.26
   6  -7   1    2.42    0.35
   6  -7   1    2.63    0.34
  -7   1   1    2.12    0.23
  -6   8  -1  213.75    5.41
   6  -8   1  217.64    6.01
   2   6   1  215.47    5.71
  -8   2   1  218.58    5.64
   6  -8   1  208.44    6.04
  -6   9  -1    0.70    0.13
   6  -9   1    0.26    0.24
   6  -9   1    0.62    0.26
  -9   3   1    0.58    0.16
  -1   8  -1    6.11    0.43
  -7  -1  -1    5.69    0.42
   8  -7  -1    5.74    0.58
   8  -7  -1    7.82    0.63
   1  -8   1    6.14    0.53
   1  -8   1    5.29    0.52
  -8   7   1    6.01    0.29
   0   7  -1    5.29    0.39
  -7   0  -1    5.81    0.40
   7  -7  -1    6.37    0.57
   7  -7  -1    6.34    0.53
   0  -7   1    6.19    0.51
  -7   7   1    6.27    0.27
   0  -7   1    6.08    0.50
   6  -7  -1   17.14    0.88
  -7   1  -1   16.39    0.68
   1   6  -1   16.73    0.73
   6  -7  -1   17.95    0.95
  -7   1  -1   16.43    0.66
  -1  -6   1   17.54    0.85
  -6   7   1   17.84    0.56
   5  -7  -1    2.85    0.36
   5  -7  -1    2.47    0.33
  -7   2  -1    2.46    0.21
  -7   2  -1    3.05    0.21
   2   5  -1    3.19    0.28
  -5   7   1    2.80    0.19
  -7   3  -1    9.21    0.32
  -7   3  -1    9.58    0.32
  -7   3  -1    9.27    0.39
   4  -7  -1    8.36    0.61
   4  -7  -1    8.97    0.60
   3   4  -1    9.47    0.49
  -3  -4   1    9.25    0.48
  -4   7   1    9.41    0.40
   4   3  -1   38.05    1.25
   3  -7  -1   37.51    1.50
  -7   4  -1   39.44    1.08
   3  -7  -1   38.88    1.47
  -4  -3   1   38.70    1.28
  -3   7   1   38.37    1.19
   2  -7  -1    2.88    0.37
   2  -7  -1    4.08    0.40
  -7   5  -1    3.37    0.14
  -5  -2   1    3.72    0.31
   1  -7  -1    2.88    0.38
   1  -7  -1    2.25    0.33
  -1   7   1    2.48    0.26
   7  -6   1    3.06    0.38
  -6  -1   1    3.29    0.30
   7  -6   1    2.44    0.36
   0  -7  -1    5.40    0.50
   0  -7  -1    5.27    0.53
  -7   0   1    5.15    0.38
   0   7   1    4.95    0.37
   7  -7   1    4.77    0.47
   7  -7   1    4.42    0.49
  -7   8  -1    3.66    0.17
  -1  -7  -1    3.97    0.49
   7  -8   1    3.79    0.45
  -8   1   1    4.14    0.35
   1   7   1    4.12    0.36
   7  -8   1    3.82    0.48
   1   7  -1    5.70    0.44
   7  -8  -1    5.76    0.54
  -8   1  -1    5.63    0.41
   7  -8  -1    6.39    0.61
  -1  -7   1    5.96    0.53
  -7   8   1    5.96    0.28
  -1  -7   1    6.01    0.52
  -8   2  -1  141.12    3.83
   6  -8  -1  144.32    4.24
   2   6  -1  146.09    3.98
   6  -8  -1  143.64    4.33
  -8   2  -1  142.58    3.86
  -6   8   1  143.03    3.72
  -2  -6   1  143.81    4.13
   5  -8  -1   27.45    1.22
   5  -8  -1   25.98    1.25
  -8   3  -1   26.98    0.85
  -8   3  -1   26.48    0.86
   3   5  -1   26.34    1.02
  -8   3  -1   25.93    0.89
  -5   8   1   27.11    0.88
  -8   4  -1  130.68    3.40
   4  -8  -1  132.29    3.88
   4  -8  -1  127.70    3.94
  -4  -4   1  131.48    3.62
  -4   8   1  128.21    3.48
   3  -8  -1    0.44    0.22
  -8   5  -1    0.46    0.08
   3  -8  -1    0.78    0.29
  -3   8   1    0.43    0.13
  -5  -3   1    0.35    0.14
   2  -8  -1  227.54    6.22
  -8   6  -1  224.79    5.53
   2  -8  -1  219.88    6.28
  -2   8   1  224.84    5.85
  -6  -2   1  215.55    5.91
   1  -8  -1    3.66    0.47
   1  -8  -1    4.46    0.49
   8  -7   1    5.60    0.57
  -7  -1   1    4.13    0.37
  -1   8   1    4.11    0.35
   8  -7   1    3.85    0.48
  -9   3  -1    2.71    0.26
  -9   3  -1    2.50    0.24
   6  -9  -1    3.65    0.50
   6  -9  -1    3.07    0.44
  -3  -6   1    2.08    0.35
  -6   9   1    2.49    0.22
  -9   4  -1    5.53    0.30
  -9   4  -1    5.48    0.33
  -9   4  -1    5.27    0.29
   5  -9  -1    5.04    0.57
   5  -9  -1    5.74    0.56
  -5   9   1    5.37    0.34
  -9   5  -1    7.83    0.37
   4  -9  -1    7.41    0.68
   4  -9  -1    8.86    0.69
  -4   9   1    7.98    0.45
  -9   6  -1    0.65    0.10
   3  -9  -1    0.66    0.28
   3  -9  -1    0.63    0.28
  -6  -3   1    0.74    0.21
  -3   9   1    0.42    0.15
   0   0  -2  640.74   17.22
   0   0  -2  691.87   16.55
   0   0  -2  667.95   17.24
   0   0   2  662.43   17.27
   0   0   2  667.56   17.07
   1  -1  -2  265.89    7.28
  -1   0  -2  260.64    7.17
   0   1  -2  288.38    6.98
   1  -1  -2  274.92    7.10
  -1   0  -2  277.31    7.31
   0   1  -2  266.29    7.22
  -1   0  -2  253.54    6.92
   1  -1  -2  269.11    6.85
   0   1  -2  277.74    7.20
   0   1  -2  263.30    7.19
   0  -1   2  269.52    6.97
  -1   1   2  260.03    6.77
  -1   1   2  262.00    6.96
   1   0   2  279.72    7.05
   1   0   2  269.59    7.11
   0  -1   2  280.70    7.05
   0  -1   2  268.20    7.01
  -1   1   2  273.80    6.97
   1   0   2  267.64    7.16
   0  -1   2  275.19    7.07
   0  -1  -2    0.22    0.11
   1   0  -2    0.27    0.11
   1   0  -2    0.32    0.10
  -1   1  -2    0.45    0.11
   0  -1  -2    0.44    0.10
   1   0  -2    0.09    0.10
   1  -1   2    0.20    0.09
  -1   0   2    0.31    0.11
   0   1   2    0.16    0.11
  -1   0   2    0.37    0.12
   0   1   2    0.12    0.09
   1  -1   2    0.70    0.11
  -1   2  -2   53.34    1.52
  -1   2  -2   57.96    1.50
  -1  -1  -2   56.63    1.53
  -1  -1  -2   51.68    1.52
  -1   2  -2   54.30    1.46
   2  -1  -2   54.43    1.49
  -1   2  -2   54.77    1.54
   2  -1  -2   55.46    1.50
   2  -1  -2   57.55    1.49
   1  -2   2   58.71    1.55
  -2   1   2   56.35    1.52
  -2   1   2   57.16    1.52
   1   1   2   55.36    1.52
  -2   1   2   55.43    1.55
  -2   1   2   62.10    1.50
   1   1   2   58.64    1.54
   1   1   2   56.07    1.52
   1  -2   2   56.27    1.53
  -1   3  -2  119.28    3.12
  -2  -1  -2  116.57    3.18
  -1   3  -2  123.30    3.16
  -1   3  -2  121.62    3.18
   3  -2  -2  118.83    3.19
  -2  -1  -2  123.65    3.20
   3  -2  -2  121.76    3.10
   3  -2  -2  125.65    3.08
   3  -2  -2  125.92    3.23
  -1   3  -2  120.12    3.19
   2   1   2  123.60    3.15
   1  -3   2  127.58    3.13
  -3   2   2  125.87    3.20
  -3   2   2  123.13    3.15
   1  -3   2  123.60    3.23
   1  -3   2  122.06    3.22
   2   1   2  123.75    3.19
  -3   2   2  124.57    3.12
   2  -2  -2  701.14   19.55
  -2   0  -2  758.86   19.61
  -2   0  -2  772.54   19.64
   2  -2  -2  748.86   19.95
   0   2  -2  769.67   19.89
  -2   0  -2  684.57   19.67
   0   2  -2  806.06   19.68
   0   2  -2  743.60   19.55
   0  -2   2  763.14   19.59
  -2   2   2  809.43   19.54
   0  -2   2  805.50   19.64
   0  -2   2  801.51   19.60
   0  -2   2  810.07   19.63
  -2   2   2  739.51   19.61
  -2   2   2  815.64   19.83
   2   0   2  788.97   19.60
   1  -2  -2   58.13    1.55
   1   1  -2   55.16    1.56
  -2   1  -2   56.63    1.49
  -2   1  -2   57.83    1.52
  -2   1  -2   57.80    1.56
   1   1  -2   56.69    1.56
   1  -2  -2   58.34    1.56
   1   1  -2   57.09    1.56
  -2   1  -2   56.58    1.48
  -1  -1   2   59.71    1.45
  -1   2   2   55.62    1.52
  -1  -1   2   56.26    1.55
  -1   2   2   57.40    1.55
  -1  -1   2   56.94    1.56
  -1   2   2   56.74    1.58
   2  -1   2   59.27    1.53
  -2   2  -2  666.69   17.25
   0  -2  -2  663.01   17.35
   2   0  -2  686.30   17.34
   2   0  -2  699.88   17.41
  -2   2  -2  694.05   17.21
   2   0  -2  665.52   17.30
   2  -2   2  669.81   17.95
   0   2   2  646.46   17.34
  -2   0   2  734.99   16.92
  -2   0   2  730.64   17.50
   2  -2   2  673.14   17.58
  -2   0   2  604.89   17.36
  -2   3  -2    8.75    0.32
  -2   3  -2    8.71    0.37
  -1  -2  -2    9.20    0.38
  -2   3  -2    9.17    0.35
   2  -3   2    8.41    0.42
   1   2   2    8.92    0.37
  -3   1   2    8.83    0.33
  -3   1   2    8.45    0.37
  -3   1   2    8.29    0.35
   1   2   2    8.47    0.37
   2  -3   2    8.98    0.41
  -2   4  -2  512.13   12.40
  -2   4  -2  484.20   12.17
   4  -2  -2  463.70   12.29
  -2  -2  -2  475.63   12.62
  -2   4  -2  482.51   12.40
  -4   2   2  435.34   12.80
   2   2   2  483.65   12.43
  -4   2   2  509.79   12.33
  -4   2   2  468.88   12.38
   2  -4   2  481.92   12.48
   2  -4   2  501.31   12.93
   2   2   2  489.68   12.47
   5  -3  -2  133.79    3.61
  -2   5  -2  126.18    3.41
  -2   5  -2  132.55    3.35
  -5   3   2  130.26    3.44
   2  -5   2  130.77    3.57
   3   2   2  131.63    3.46
   2  -5   2  128.35    3.57
  -5   3   2  135.24    3.31
  -3  -1  -2   11.15    0.46
  -3  -1  -2   12.84    0.48
  -1   4  -2   11.18    0.41
   4  -3  -2   11.44    0.53
  -1   4  -2   11.19    0.44
   4  -3  -2   11.73    0.50
  -4   3   2   11.68    0.41
  -4   3   2   11.13    0.33
   1  -4   2   11.20    0.37
   1  -4   2   11.00    0.50
   1  -4   2   11.13    0.49
  -4   3   2   11.26    0.44
   3   1   2   11.84    0.45
  -3   0  -2   10.40    0.41
   3  -3  -2   10.49    0.44
  -3   0  -2    9.96    0.38
   0   3  -2    9.85    0.41
  -3   0  -2    9.74    0.39
   0   3  -2   10.80    0.40
   3  -3  -2   10.07    0.47
  -3   3   2   10.10    0.32
   3   0   2   10.31    0.39
   0  -3   2   10.31    0.39
   0  -3   2   10.58    0.42
  -3   3   2    9.90    0.38
  -3   3   2   10.09    0.38
   0  -3   2   10.05    0.43
   2  -3  -2  125.00    3.13
  -3   1  -2  123.93    3.15
   1   2  -2  121.51    3.22
   2  -3  -2  122.22    3.25
  -3   1  -2  117.68    3.16
  -3   1  -2  126.30    3.20
  -3   1  -2  123.49    3.12
   1   2  -2  122.75    3.21
   2  -3  -2  123.50    3.32
   3  -1   2  127.61    3.12
  -1  -2   2  122.99    3.22
  -2   3   2  129.76    3.23
  -1  -2   2  122.12    3.16
  -2   3   2  124.95    3.13
  -1  -2   2  125.88    3.22
  -2   3   2  119.31    3.18
   2   1  -2    9.00    0.38
   1  -3  -2    9.42    0.42
  -3   2  -2    8.78    0.34
  -3   2  -2    8.97    0.31
   2   1  -2    8.24    0.36
   1  -3  -2    9.03    0.37
   3  -2   2    8.63    0.42
  -1   3   2    8.04    0.33
  -2  -1   2    8.77    0.38
  -1   3   2    9.03    0.36
  -2  -1   2    8.24    0.38
  -3   3  -2  106.19    2.72
  -3   3  -2  101.43    2.60
  -3   3  -2  104.82    2.62
   0  -3  -2  103.83    2.72
   3   0  -2  100.70    2.67
   3  -3   2  103.81    2.84
   0   3   2  100.93    2.71
  -3   0   2   99.81    2.73
   3  -3   2  103.37    2.80
  -3   0   2  104.70    2.74
  -3   4  -2  110.19    2.83
  -1  -3  -2  106.90    2.92
  -3   4  -2  108.55    2.88
  -3   4  -2  111.90    2.79
   1   3   2  110.72    2.91
  -4   1   2  109.79    2.92
   3  -4   2  107.63    3.03
   1   3   2  109.74    2.90
  -4   1   2  103.11    2.90
  -4   1   2  126.12    2.96
   3  -4   2  104.33    2.99
  -3   5  -2    1.52    0.12
  -2  -3  -2    1.58    0.17
  -3   5  -2    1.43    0.12
  -3   5  -2    1.96    0.15
   2   3   2    1.93    0.18
   2   3   2    1.39    0.16
   3  -5   2    1.54    0.20
  -5   2   2    1.63    0.16
   3  -5   2    1.68    0.22
  -5   2   2    1.36    0.16
  -5   2   2    1.50    0.12
  -3   6  -2   24.61    0.83
  -3   6  -2   26.23    0.76
  -3  -3  -2   25.08    0.92
  -6   3   2   24.61    0.88
   3   3   2   27.08    0.92
   3  -6   2   26.57    1.05
   3  -6   2   27.48    1.05
  -6   3   2   27.20    0.82
  -3   7  -2   48.38    1.39
  -3   7  -2   47.48    1.44
  -4  -3  -2   47.60    1.54
  -7   4   2   50.07    1.36
   3  -7   2   47.18    1.68
  -7   4   2   48.95    1.47
   3  -7   2   48.19    1.67
   6  -4  -2  271.06    7.19
  -4  -2  -2  278.06    7.00
  -2   6  -2  270.08    6.92
  -2   6  -2  266.25    6.86
   2  -6   2  272.14    7.12
   2  -6   2  270.36    7.13
  -6   4   2  281.85    6.79
  -6   4   2  268.34    6.91
  -1   5  -2   53.23    1.53
  -4  -1  -2   51.12    1.59
   5  -4  -2   53.57    1.71
  -4  -1  -2   52.72    1.55
  -1   5  -2   51.54    1.49
  -4  -1  -2   51.56    1.55
   5  -4  -2   53.27    1.64
   4   1   2   54.95    1.52
   1  -5   2   53.86    1.64
  -5   4   2   52.23    1.48
   1  -5   2   52.02    1.63
   4  -4  -2  458.19   12.16
  -4   0  -2  492.03   12.53
   0   4  -2  496.57   12.36
   4  -4  -2  462.10   12.22
  -4   0  -2  497.83   12.36
  -4   0  -2  485.37   12.73
   0   4  -2  482.60   12.59
   0  -4   2  467.65   12.14
   0  -4   2  499.21   12.17
  -4   4   2  489.22   12.64
  -4   4   2  484.84   12.44
   0  -4   2  497.42   12.42
  -4   1  -2   11.66    0.45
  -4   1  -2   11.14    0.39
   3  -4  -2   10.86    0.51
   1   3  -2   13.72    0.49
  -4   1  -2   11.59    0.43
   1   3  -2   11.06    0.47
   3  -4  -2   11.79    0.57
  -4   1  -2   11.67    0.43
  -1  -3   2   11.44    0.46
  -3   4   2   12.49    0.46
  -1  -3   2   11.72    0.46
  -3   4   2   11.34    0.42
   2  -4  -2  449.16   11.98
   2   2  -2  477.67   12.41
   2  -4  -2  468.53   12.61
  -4   2  -2  487.03   12.27
   2   2  -2  484.96   12.75
  -4   2  -2  490.87   12.27
   2  -4  -2  495.62   12.11
  -2   4   2  445.71   12.15
  -2   4   2  495.14   12.30
  -2   4   2  466.07   12.26
  -2  -2   2  494.49   12.59
  -2  -2   2  483.54   12.41
  -4   3  -2  109.96    2.76
   3   1  -2  109.50    2.87
  -4   3  -2  109.83    2.78
   1  -4  -2  109.58    2.86
   1  -4  -2  106.85    2.99
  -3  -1   2  110.35    2.92
  -3  -1   2  108.36    2.92
  -1   4   2  111.79    2.85
   4  -3   2  104.99    3.01
  -1   4   2  110.14    2.87
  -4   4  -2  429.49   11.42
   0  -4  -2  430.92   11.17
  -4   4  -2  447.71   11.07
   4   0  -2  448.17   11.18
  -4   4  -2  439.71   11.02
   4  -4   2  448.18   11.62
  -4   0   2  435.50   11.23
  -4   0   2  433.64   10.98
   0   4   2  439.10   11.48
   4  -4   2  433.00   11.15
  -4   5  -2   16.45    0.52
  -4   5  -2   15.47    0.48
  -1  -4  -2   15.65    0.61
   1   4   2   14.42    0.61
   4  -5   2   17.75    0.76
   4  -5   2   13.87    0.67
  -5   1   2   14.78    0.60
  -5   1   2   17.34    0.63
   1   4   2   14.28    0.60
  -4   6  -2  401.74   10.02
  -2  -4  -2  404.16   10.01
   4  -6   2  393.52   10.21
   4  -6   2  393.78   10.17
   2   4   2  386.59   10.00
  -6   2   2  394.85    9.96
  -6   2   2  393.66    9.97
  -3  -4  -2   10.01    0.51
  -4   7  -2    8.87    0.40
   4  -7   2    8.71    0.58
   3   4   2    8.12    0.46
   4  -7   2    8.39    0.58
  -7   3   2    8.50    0.44
  -7   3   2    9.52    0.45
  -4   8  -2  198.03    5.00
  -4   8  -2  186.38    5.06
  -4  -4  -2  198.56    5.24
   4  -8   2  197.53    5.48
  -8   4   2  203.11    5.10
   4  -8   2  192.69    5.42
  -8   4   2  188.61    5.10
  -3   8  -2   20.21    0.80
  -3   8  -2   20.78    0.77
  -5  -3  -2   21.44    0.90
  -8   5   2   21.41    0.69
   3  -8   2   20.07    1.00
  -8   5   2   21.01    0.79
   3  -8   2   21.09    1.01
  -5  -2  -2    6.64    0.42
   7  -5  -2    8.67    0.60
  -2   7  -2    6.50    0.37
  -2   7  -2    6.49    0.39
  -7   5   2    6.95    0.37
   2  -7   2    6.84    0.50
   2  -7   2    7.11    0.51
  -1   6  -2   46.63    1.47
  -5  -1  -2   46.00    1.48
  -1   6  -2   50.37    1.46
   6  -5  -2   48.11    1.61
   6  -5  -2   48.30    1.69
   1  -6   2   48.22    1.60
   1  -6   2   47.12    1.59
  -6   5   2   48.76    1.39
  -5   0  -2    7.27    0.36
  -5   0  -2    7.36    0.37
  -5   0  -2    7.21    0.38
   5  -5  -2    7.41    0.49
   0   5  -2    6.81    0.38
   5  -5  -2    8.61    0.48
   0   5  -2    7.35    0.38
   0  -5   2    6.95    0.43
   0  -5   2    7.22    0.43
  -5   5   2    6.88    0.31
  -5   1  -2   50.88    1.50
   4  -5  -2   54.63    1.68
  -5   1  -2   53.64    1.47
   4  -5  -2   52.85    1.73
   1   4  -2   51.97    1.56
   1   4  -2   53.27    1.56
  -5   1  -2   52.56    1.51
  -4   5   2   53.43    1.46
  -1  -4   2   53.36    1.54
  -1  -4   2   52.30    1.58
  -5   2  -2  133.65    3.33
   2   3  -2  132.60    3.50
   2   3  -2  128.14    3.48
  -5   2  -2  133.26    3.40
   3  -5  -2  134.52    3.72
  -5   2  -2  129.03    3.69
  -5   2  -2  133.33    3.31
   3  -5  -2  126.52    3.60
  -2  -3   2  134.86    3.51
  -3   5   2  134.62    3.42
   3   2  -2    1.37    0.16
  -5   3  -2    1.78    0.14
   2  -5  -2    1.33    0.20
  -5   3  -2    1.40    0.11
   3   2  -2    1.78    0.17
  -3  -2   2    1.55    0.18
  -2   5   2    1.21    0.14
  -5   4  -2   14.88    0.43
  -5   4  -2   15.41    0.45
   4   1  -2   14.69    0.55
  -5   4  -2   14.86    0.54
   1  -5  -2   14.04    0.68
   1  -5  -2   14.77    0.76
   5  -4   2   14.01    0.69
  -4  -1   2   14.19    0.59
  -4  -1   2   13.30    0.58
   5  -4   2   14.64    0.73
  -1   5   2   14.32    0.54
  -1   5   2   14.44    0.57
  -5   5  -2   64.96    1.63
  -5   5  -2   63.71    1.62
  -5   5  -2   63.02    1.73
   0   5   2   63.16    1.84
   0   5   2   63.26    1.86
  -5   0   2   62.59    1.85
   5  -5   2   64.40    1.99
   5  -5   2   59.95    2.02
  -5   6  -2   19.12    0.59
   5  -6   2   17.18    0.82
   1   5   2   18.86    0.74
  -6   1   2   18.17    0.72
   5  -6   2   17.49    0.87
  -5   7  -2   47.13    1.34
   2   5   2   46.66    1.52
   5  -7   2   48.62    1.70
   5  -7   2   48.61    1.75
  -7   2   2   46.29    1.48
  -5   8  -2   28.86    0.95
   5  -8   2   29.61    1.32
   5  -8   2   33.11    1.33
  -8   3   2   28.99    1.06
  -6  -2  -2  225.79    6.03
   8  -6  -2  227.89    6.37
  -2   8  -2  224.92    5.97
  -8   6   2  219.39    5.85
   2  -8   2  225.32    6.23
   2  -8   2  238.00    6.26
  -6  -1  -2    9.27    0.52
   7  -6  -2   10.38    0.64
   7  -6  -2    9.76    0.68
  -1   7  -2    9.86    0.52
  -7   6   2    9.66    0.44
   1  -7   2    9.88    0.62
   1  -7   2    9.48    0.60
   6  -6  -2  284.11    7.40
  -6   0  -2  275.94    7.19
  -6   0  -2  281.35    7.19
   0   6  -2  278.06    7.21
   6  -6  -2  278.62    7.51
   0  -6   2  276.37    7.33
  -6   6   2  281.41    7.05
   0  -6   2  281.49    7.32
  -6   1  -2   48.28    1.40
  -6   1  -2   47.45    1.43
  -6   1  -2   47.64    1.44
   5  -6  -2   48.09    1.70
   1   5  -2   45.24    1.49
   5  -6  -2   49.00    1.63
  -1  -5   2   48.12    1.54
  -5   6   2   48.99    1.37
   4  -6  -2  278.27    7.37
  -6   2  -2  277.25    6.91
   2   4  -2  272.80    7.09
   4  -6  -2  273.74    7.24
  -6   2  -2  281.88    6.96
  -6   2  -2  279.08    6.99
  -4   6   2  267.87    6.96
  -2  -4   2  278.77    7.11
  -2  -4   2  275.79    7.07
   3  -6  -2   26.99    1.14
  -6   3  -2   26.17    0.81
   3  -6  -2   26.08    1.05
   3   3  -2   26.76    0.93
  -3   6   2   26.41    0.87
  -3  -3   2   27.45    0.95
  -6   4  -2  398.46    9.83
   2  -6  -2  395.51   10.27
   2  -6  -2  386.91   10.13
   4   2  -2  406.04    9.93
  -4  -2   2  396.76    9.97
  -2   6   2  377.20    9.90
   1  -6  -2   18.07    0.87
   1  -6  -2   19.45    0.96
  -6   5  -2   19.20    0.54
  -6   5  -2   18.06    0.62
  -5  -1   2   18.46    0.75
   6  -5   2   18.98    0.93
   6  -5   2   18.21    0.88
  -1   6   2   18.79    0.74
  -6   6  -2  238.05    5.71
   6  -6   2  226.95    6.28
   0   6   2  227.94    6.00
  -6   0   2  227.44    6.00
   6  -6   2  226.96    6.19
  -6   7  -2   49.86    1.37
   6  -7   2   50.36    1.85
   1   6   2   51.82    1.61
  -7   1   2   48.47    1.58
   6  -7   2   48.87    1.78
  -7   1   2   47.24    1.57
  -6   8  -2  152.89    3.88
   6  -8   2  150.32    4.39
   6  -8   2  147.20    4.46
  -8   2   2  146.34    4.10
  -8   2   2  152.84    4.11
   2   6   2  154.12    4.18
   8  -7  -2   19.98    1.11
  -1   8  -2   20.13    0.87
   8  -7  -2   19.57    1.02
  -7  -1  -2   19.82    0.87
   1  -8   2   19.93    1.01
  -8   7   2   20.18    0.75
   1  -8   2   18.90    0.98
   0   7  -2   67.05    2.08
  -7   0  -2   69.24    2.06
   7  -7  -2   66.67    2.38
   7  -7  -2   68.23    2.25
  -7   7   2   66.66    1.89
   0  -7   2   69.19    2.21
   0  -7   2   64.64    2.19
  -7   1  -2    9.61    0.48
  -7   1  -2    9.80    0.50
   6  -7  -2    8.74    0.60
   1   6  -2    9.21    0.53
   6  -7  -2    9.44    0.68
  -1  -6   2    9.83    0.57
  -6   7   2    9.43    0.42
  -1  -6   2    9.65    0.60
  -7   2  -2    6.53    0.36
  -7   2  -2    8.27    0.40
  -7   2  -2    7.17    0.35
   2   5  -2    6.99    0.44
   5  -7  -2    6.75    0.52
   5  -7  -2    6.55    0.56
  -5   7   2    6.79    0.34
  -2  -5   2    6.58    0.45
   3   4  -2   48.87    1.55
  -7   3  -2   49.91    1.33
  -7   3  -2   48.96    1.37
   4  -7  -2   47.79    1.82
  -7   3  -2   48.57    1.42
   4  -7  -2   47.42    1.70
  -4   7   2   49.77    1.45
  -3  -4   2   48.38    1.55
   4   3  -2    8.97    0.70
   3  -7  -2    9.49    0.61
  -7   4  -2    9.02    0.37
   3  -7  -2   10.63    0.71
  -4  -3   2    8.69    0.49
  -3   7   2    9.13    0.46
  -7   5  -2   47.23    1.28
   2  -7  -2   47.37    1.70
   2  -7  -2   48.35    1.81
  -5  -2   2   46.03    1.53
  -2   7   2   47.30    1.49
   1  -7  -2   46.80    1.77
  -7   6  -2   50.78    1.30
   1  -7  -2   49.90    1.92
   7  -6   2   51.62    1.84
  -1   7   2   48.96    1.59
  -6  -1   2   47.84    1.60
   7  -6   2   49.92    1.87
  -7   7  -2    1.95    0.13
   0  -7  -2    1.51    0.37
   0  -7  -2    1.68    0.33
  -7   0   2    2.31    0.28
   7  -7   2    1.50    0.31
   7  -7   2    1.76    0.34
   0   7   2    1.50    0.23
  -7   8  -2   14.85    0.50
  -8   1   2   14.39    0.72
   7  -8   2   14.55    0.93
   1   7   2   14.04    0.73
   7  -8   2   15.41    0.89
   1   7  -2   21.27    0.91
   7  -8  -2   19.74    1.12
  -8   1  -2   19.48    0.83
   7  -8  -2   19.63    1.02
  -1  -7   2   19.62    0.96
  -1  -7   2   19.57    0.98
  -7   8   2   19.33    0.72
  -8   2  -2  226.61    5.99
   6  -8  -2  230.62    6.53
   2   6  -2  235.45    6.13
   6  -8  -2  228.55    6.35
  -8   2  -2  228.36    5.99
  -6   8   2  230.96    5.91
  -2  -6   2  228.57    6.18
  -8   3  -2   20.35    0.77
  -8   3  -2   21.47    0.77
   5  -8  -2   21.20    1.05
   3   5  -2   21.93    0.90
  -8   3  -2   21.35    0.73
   5  -8  -2   21.80    1.15
  -5   8   2   20.96    0.78
  -8   4  -2  196.89    5.06
   4  -8  -2  196.11    5.68
  -8   4  -2  203.14    4.97
   4  -8  -2  187.88    5.49
  -8   4  -2  199.12    4.93
  -4   8   2  197.37    5.16
   3  -8  -2   31.38    1.42
   3  -8  -2   27.48    1.28
  -8   5  -2   30.14    0.91
  -3   8   2   30.29    1.08
  -5  -3   2   29.46    1.13
  -8   6  -2  159.28    3.95
   2  -8  -2  159.61    4.71
   2  -8  -2  153.61    4.56
  -6  -2   2  153.25    4.31
  -2   8   2  152.98    4.25
   1  -8  -2   16.54    1.02
   1  -8  -2   14.74    0.91
  -7  -1   2   15.10    0.76
   8  -7   2   14.55    0.92
  -1   8   2   16.10    0.76
   0   0  -3  398.32   10.28
   0   0  -3  391.86   10.32
   0   0  -3  422.13   10.12
   0   0   3  402.15   10.58
   0   0   3  408.44   10.68
   0   1  -3    0.02    0.08
   1  -1  -3    0.00    0.07
   1  -1  -3    0.30    0.10
   0   1  -3    0.24    0.11
   0   1  -3    0.12    0.10
  -1   0  -3    0.04    0.09
  -1   0  -3    0.09    0.10
  -1   1   3    0.00    0.09
   0  -1   3   -0.05    0.08
  -1   1   3   -0.07    0.08
   1   0   3   -0.05    0.08
   1   0  -3    3.06    0.22
  -1   1  -3    3.26    0.23
   0  -1  -3    2.95    0.22
   1   0  -3    2.83    0.22
   0  -1  -3    2.92    0.20
   1   0  -3    2.65    0.20
  -1   1  -3    2.66    0.20
   0   1   3    3.04    0.22
  -1   0   3    3.22    0.22
   1  -1   3    2.95    0.20
   0   1   3    2.79    0.20
  -1   0   3    2.42    0.21
  -1   2  -3   54.13    1.57
  -1  -1  -3   52.66    1.53
  -1   2  -3   53.87    1.54
   2  -1  -3   52.16    1.51
  -1  -1  -3   52.83    1.53
   2  -1  -3   52.43    1.50
  -1   2  -3   52.11    1.47
   2  -1  -3   53.78    1.43
   1   1   3   52.80    1.53
   1  -2   3   54.16    1.47
  -2   1   3   53.58    1.56
  -2   1   3   59.22    1.77
   1  -2   3   52.23    1.47
  -2  -1  -3    6.79    0.34
  -1   3  -3    5.95    0.29
  -2  -1  -3    6.30    0.33
  -1   3  -3    6.44    0.35
  -1   3  -3    6.37    0.33
   3  -2  -3    6.32    0.31
   3  -2  -3    6.33    0.29
  -3   2   3    6.13    0.31
   1  -3   3    6.07    0.31
   1  -3   3    6.35    0.31
   2   1   3    7.48    0.34
   0   2  -3  558.84   14.55
   2  -2  -3  565.01   14.34
   0   2  -3  583.35   14.76
   2  -2  -3  543.34   14.32
  -2   0  -3  501.87   14.33
   2  -2  -3  545.62   14.26
   0   2  -3  599.99   14.56
  -2   0  -3  574.76   14.88
   0  -2   3  570.24   14.47
  -2   2   3  548.82   14.86
  -2   2   3  565.89   14.61
   0  -2   3  584.61   14.43
   2   0   3  555.22   14.30
   0  -2   3  575.07   14.27
   1   1  -3   50.87    1.48
  -2   1  -3   50.64    1.45
   1  -2  -3   52.94    1.48
   1   1  -3   49.10    1.47
   1  -2  -3   53.56    1.40
   1   1  -3   49.79    1.47
  -2   1  -3   51.94    1.46
  -1  -1   3   52.81    1.34
   2  -1   3   49.42    1.43
  -1   2   3   52.84    1.48
  -1  -1   3   50.92    1.46
  -1  -1   3   50.40    1.49
   2   0  -3  255.49    6.21
  -2   2  -3  252.92    6.38
  -2   2  -3  235.87    6.21
   0  -2  -3  257.53    6.20
   2   0  -3  243.66    6.21
   0  -2  -3  238.16    6.24
   2   0  -3  245.57    6.22
  -2   2  -3  244.97    6.21
   0   2   3  248.89    6.24
  -2   0   3  234.22    6.27
  -2   0   3  243.40    6.14
   0   2   3  244.41    6.21
  -2   0   3  251.04    6.26
   2  -2   3  244.99    6.22
   2  -2   3  242.37    6.21
  -1  -2  -3    0.74    0.12
  -2   3  -3    0.74    0.13
   3  -1  -3    1.12    0.12
  -1  -2  -3    1.13    0.13
   3  -1  -3    0.83    0.10
  -2   3  -3    0.65    0.09
  -2   3  -3    0.84    0.12
  -2   3  -3    0.95    0.11
   2  -3   3    1.02    0.13
   1   2   3    1.03    0.12
  -3   1   3    0.84    0.12
   1   2   3    1.14    0.14
  -3   1   3    0.90    0.14
  -2  -2  -3  325.25    8.33
  -2   4  -3  319.07    8.31
  -2  -2  -3  336.28    8.35
  -2   4  -3  375.28    8.43
  -2   4  -3  321.01    8.48
   4  -2  -3  323.17    8.30
  -2   4  -3  326.26    8.34
   2  -4   3  324.34    8.36
  -4   2   3  328.93    8.31
   2   2   3  324.59    8.33
   2   2   3  330.50    8.29
  -4   2   3  323.70    8.36
   2  -4   3  326.90    8.38
  -3  -2  -3    4.16    0.30
  -2   5  -3    4.74    0.30
   5  -3  -3    4.65    0.33
  -2   5  -3    4.47    0.25
   2  -5   3    4.01    0.32
  -5   3   3    4.26    0.26
  -5   3   3    4.20    0.30
   2  -5   3    4.18    0.32
   3   2   3    3.90    0.28
  -3  -1  -3   10.10    0.46
   4  -3  -3   10.35    0.49
  -3  -1  -3    9.55    0.45
   4  -3  -3   10.59    0.44
  -1   4  -3    9.53    0.41
  -1   4  -3    9.62    0.45
   4  -3  -3   10.19    0.36
  -4   3   3    9.45    0.46
   1  -4   3    9.55    0.45
   3   1   3    9.72    0.43
  -4   3   3   10.19    0.40
   1  -4   3   10.00    0.45
   0   3  -3   29.13    0.91
   0   3  -3   27.46    0.93
   3  -3  -3   28.87    0.97
  -3   0  -3   29.68    0.92
   3  -3  -3   27.96    0.89
   3  -3  -3   28.26    0.81
  -3   0  -3   27.96    0.93
   0  -3   3   27.78    0.86
  -3   3   3   30.87    0.88
   0  -3   3   28.45    0.89
   3   0   3   28.41    0.90
   0  -3   3   27.10    0.88
  -3   3   3   28.22    0.92
  -3   1  -3    6.00    0.30
   2  -3  -3    6.10    0.30
   1   2  -3    6.60    0.33
   1   2  -3    6.41    0.33
  -3   1  -3    6.04    0.30
   2  -3  -3    6.53    0.30
   2  -3  -3    5.98    0.37
   3  -1   3    6.26    0.27
  -1  -2   3    6.25    0.28
  -2   3   3    6.18    0.32
  -1  -2   3    6.18    0.32
  -2   3   3    6.63    0.30
  -1  -2   3    6.39    0.23
  -3   2  -3    0.87    0.12
   2   1  -3    0.72    0.12
   1  -3  -3    0.93    0.12
   2   1  -3    0.90    0.13
  -3   2  -3    0.79    0.09
  -2  -1   3    0.95    0.13
  -1   3   3    0.93    0.11
  -2  -1   3    0.96    0.14
  -1   3   3    0.88    0.13
   0  -3  -3   74.53    2.10
  -3   3  -3   73.73    2.04
  -3   3  -3   78.30    2.04
  -3   3  -3   71.31    2.11
   3   0  -3   77.24    2.06
  -3   3  -3   75.70    1.93
   3  -3   3   75.08    2.13
   0   3   3   73.25    2.09
  -3   0   3   77.21    2.13
   0   3   3   78.43    2.09
  -3   4  -3    0.41    0.11
  -3   4  -3    0.40    0.10
  -3   4  -3    0.25    0.09
  -1  -3  -3    0.27    0.09
  -3   4  -3    0.16    0.04
  -4   1   3    0.19    0.08
   3  -4   3    0.30    0.12
   1   3   3    0.27    0.10
   3  -4   3    0.17    0.10
   1   3   3    0.18    0.08
  -3   5  -3    7.44    0.38
  -3   5  -3    7.04    0.29
  -2  -3  -3    6.88    0.39
  -5   2   3    7.07    0.41
   2   3   3    7.10    0.40
   3  -5   3    7.59    0.44
  -5   2   3    7.98    0.40
   3  -5   3    7.16    0.45
  -3   6  -3   16.29    0.57
  -3   6  -3   16.87    0.65
  -3  -3  -3   15.53    0.69
  -6   3   3   14.87    0.67
   3   3   3   16.05    0.68
  -6   3   3   17.00    0.66
   3  -6   3   15.37    0.74
   3  -6   3   16.83    0.78
  -4  -3  -3    1.19    0.21
  -3   7  -3    1.06    0.15
  -3   7  -3    0.81    0.16
  -7   4   3    0.91    0.16
  -7   4   3    1.08    0.19
   3  -7   3    0.92    0.23
   3  -7   3    0.94    0.25
  -4  -2  -3  225.99    5.91
   6  -4  -3  226.07    6.04
  -2   6  -3  225.72    5.87
  -2   6  -3  231.04    5.80
   2  -6   3  225.73    5.98
  -6   4   3  228.94    5.77
  -6   4   3  224.47    5.88
   2  -6   3  221.66    5.98
  -4  -1  -3   39.47    1.26
  -4  -1  -3   39.64    1.27
  -1   5  -3   39.40    1.20
   5  -4  -3   38.72    1.27
   5  -4  -3   38.26    1.35
  -1   5  -3   38.54    1.25
   1  -5   3   39.56    1.28
   1  -5   3   40.75    1.31
  -5   4   3   40.01    1.26
  -5   4   3   39.07    1.14
   4  -4  -3  173.11    4.33
  -4   0  -3  172.17    4.48
   0   4  -3  172.06    4.45
   4  -4  -3  172.59    4.60
   4  -4  -3  172.28    4.48
  -4   0  -3  163.56    4.44
   0   4  -3  165.23    4.47
  -4   4   3  171.73    4.36
   0  -4   3  173.58    4.44
  -4   4   3  165.37    4.44
   0  -4   3  170.75    4.47
   0  -4   3  178.22    4.56
   1   3  -3    9.87    0.46
   3  -4  -3   10.50    0.55
  -4   1  -3   10.43    0.41
  -4   1  -3   10.64    0.45
   3  -4  -3    9.73    0.46
   1   3  -3    9.72    0.45
  -4   1  -3   10.17    0.43
  -1  -3   3   10.63    0.39
  -1  -3   3    9.80    0.44
  -3   4   3   10.01    0.40
  -1  -3   3   10.21    0.44
  -3   4   3   10.23    0.44
   2   2  -3  329.79    8.27
   2   2  -3  333.35    8.27
  -4   2  -3  326.14    8.28
   2  -4  -3  313.27    8.43
  -4   2  -3  308.77    8.28
  -4   2  -3  334.17    8.19
   2  -4  -3  332.53    8.29
  -4   2  -3  326.15    8.24
  -2  -2   3  321.00    8.27
  -2   4   3  330.07    8.20
  -2  -2   3  341.19    8.24
  -2  -2   3  325.34    8.27
  -2   4   3  325.26    8.54
   1  -4  -3    0.53    0.11
  -4   3  -3    0.34    0.08
  -4   3  -3    0.30    0.04
   1  -4  -3    0.56    0.16
  -4   3  -3    0.27    0.09
   3   1  -3    0.39    0.10
  -4   3  -3    0.47    0.05
  -3  -1   3    0.13    0.08
  -1   4   3    0.26    0.10
  -1   4   3    0.40    0.10
  -3  -1   3    0.23    0.10
   4   0  -3  338.34    8.36
  -4   4  -3  330.49    8.32
  -4   4  -3  336.71    8.43
   0  -4  -3  336.02    8.42
   4  -4   3  318.46    8.58
  -4   0   3  328.98    8.46
   0   4   3  341.98    8.45
   4  -4   3  328.42    8.51
  -4   5  -3   19.22    0.66
  -4   5  -3   17.44    0.68
  -1  -4  -3   19.01    0.73
  -5   1   3   17.82    0.73
   1   4   3   17.96    0.72
   4  -5   3   18.07    0.82
   4  -5   3   18.54    0.78
  -4   6  -3  142.68    3.74
  -4   6  -3  136.31    3.57
  -2  -4  -3  143.60    3.85
  -6   2   3  140.75    3.84
   2   4   3  143.57    3.85
   4  -6   3  141.97    3.95
   4  -6   3  142.35    4.00
  -3  -4  -3    1.60    0.22
  -4   7  -3    1.24    0.13
  -4   7  -3    1.52    0.19
   4  -7   3    1.64    0.28
  -7   3   3    1.74    0.22
   4  -7   3    1.40    0.26
  -4   8  -3  168.38    4.41
  -4   8  -3  172.12    4.50
  -4  -4  -3  168.51    4.65
   4  -8   3  168.49    4.82
   4  -8   3  173.10    4.81
  -8   4   3  162.10    4.55
  -3   8  -3   16.48    0.67
  -3   8  -3   16.22    0.71
  -5  -3  -3   14.51    0.75
   3  -8   3   15.04    0.84
   3  -8   3   15.23    0.84
  -8   5   3   15.16    0.70
  -2   7  -3   13.53    0.63
   7  -5  -3   14.82    0.80
  -2   7  -3   13.29    0.60
  -5  -2  -3   13.19    0.66
   2  -7   3   13.27    0.72
  -7   5   3   14.25    0.55
   2  -7   3   14.78    0.74
  -7   5   3   14.00    0.64
  -1   6  -3    0.36    0.13
  -1   6  -3    0.44    0.12
  -5  -1  -3    0.09    0.09
   6  -5  -3    0.16    0.13
   1  -6   3    0.42    0.17
  -6   5   3    0.52    0.10
  -6   5   3    0.28    0.11
   1  -6   3    0.19    0.11
  -5   0  -3    0.20    0.09
   0   5  -3    0.21    0.10
  -5   0  -3    0.30    0.11
   0   5  -3    0.22    0.09
   5  -5  -3    0.20    0.13
   5  -5  -3    0.23    0.13
  -5   5   3    0.18    0.09
  -5   5   3    0.44    0.08
   0  -5   3    0.22    0.12
   0  -5   3    0.30    0.11
  -5   1  -3   40.29    1.19
  -5   1  -3   38.47    1.23
  -5   1  -3   39.95    1.22
   1   4  -3   37.02    1.26
   4  -5  -3   40.12    1.31
   4  -5  -3   39.70    1.42
  -1  -4   3   39.94    1.20
  -4   5   3   38.81    1.21
  -4   5   3   39.54    1.14
  -1  -4   3   40.90    1.33
  -1  -4   3   37.52    1.25
   3  -5  -3    4.23    0.32
  -5   2  -3    4.18    0.25
   3  -5  -3    4.11    0.38
  -5   2  -3    4.36    0.26
  -5   2  -3    3.99    0.22
   2   3  -3    4.08    0.29
  -2  -3   3    4.17    0.23
  -2  -3   3    4.53    0.30
  -3   5   3    4.21    0.28
  -3   5   3    4.42    0.24
   3   2  -3    7.75    0.40
  -5   3  -3    6.92    0.32
  -5   3  -3    7.35    0.25
  -5   3  -3    7.43    0.26
   2  -5  -3    7.63    0.53
   2  -5  -3    7.16    0.43
  -2   5   3    6.83    0.35
  -3  -2   3    6.93    0.40
  -3  -2   3    6.85    0.40
   4   1  -3   17.60    0.67
  -5   4  -3   17.27    0.69
  -5   4  -3   17.77    0.59
   1  -5  -3   17.70    0.77
  -4  -1   3   16.93    0.72
   5  -4   3   17.55    0.79
  -1   5   3   17.50    0.69
  -5   5  -3    4.75    0.26
  -5   5  -3    4.28    0.29
   0   5   3    4.50    0.33
   5  -5   3    4.97    0.39
   5  -5   3    3.91    0.39
  -5   0   3    4.80    0.34
  -5   6  -3   11.44    0.46
   5  -6   3   10.06    0.64
  -6   1   3    9.67    0.53
   1   5   3   10.35    0.54
   5  -6   3    9.34    0.59
  -5   7  -3   40.33    1.23
  -5   7  -3   39.06    1.05
  -7   2   3   39.97    1.36
   5  -7   3   38.66    1.47
   5  -7   3   38.95    1.53
   2   5   3   40.60    1.38
  -5   8  -3    0.87    0.12
  -5   8  -3    0.70    0.15
   5  -8   3    0.96    0.30
   5  -8   3    0.41    0.21
  -8   3   3    0.90    0.20
  -2   8  -3   76.90    2.32
  -6  -2  -3   74.09    2.36
   8  -6  -3   78.40    2.60
  -8   6   3   77.50    2.27
   2  -8   3   73.97    2.46
   2  -8   3   76.04    2.47
  -8   6   3   78.46    2.16
  -6  -1  -3    8.57    0.53
   7  -6  -3    8.95    0.65
  -1   7  -3    9.91    0.55
   7  -6  -3    9.84    0.61
   1  -7   3    9.88    0.61
   1  -7   3    9.22    0.57
  -7   6   3    9.28    0.50
  -7   6   3   10.13    0.41
   0   6  -3  216.69    5.72
   6  -6  -3  216.07    5.78
  -6   0  -3  218.41    5.69
   6  -6  -3  214.62    5.96
   0  -6   3  211.04    5.75
   0  -6   3  213.44    5.71
  -6   6   3  217.37    5.61
  -6   6   3  220.71    5.48
   1   5  -3    0.44    0.15
   5  -6  -3    0.22    0.14
  -6   1  -3    0.53    0.14
  -6   1  -3    0.30    0.11
   5  -6  -3    0.40    0.17
  -5   6   3    0.13    0.06
  -5   6   3    0.30    0.11
  -1  -5   3    0.50    0.17
  -1  -5   3    0.37    0.12
   4  -6  -3  222.43    6.00
  -6   2  -3  233.73    5.78
   4  -6  -3  227.66    6.20
  -6   2  -3  237.09    5.86
   2   4  -3  217.39    5.91
  -6   2  -3  224.77    5.83
  -4   6   3  228.44    5.78
  -4   6   3  222.90    5.84
  -6   3  -3   16.42    0.55
   3  -6  -3   16.54    0.87
   3  -6  -3   16.01    0.75
   3   3  -3   15.48    0.67
  -6   3  -3   15.83    0.59
  -6   3  -3   16.26    0.52
  -3  -3   3   16.36    0.69
  -3   6   3   14.73    0.63
   2  -6  -3  141.81    4.18
   2  -6  -3  142.87    3.98
  -6   4  -3  142.96    3.69
  -4  -2   3  141.96    3.88
  -2   6   3  143.48    3.84
   1  -6  -3   11.22    0.63
  -6   5  -3    9.67    0.39
   1  -6  -3    9.32    0.68
  -6   5  -3   10.08    0.47
  -5  -1   3    9.96    0.54
  -1   6   3    9.35    0.51
   6  -5   3    9.20    0.60
  -5  -1   3    8.84    0.52
  -6   6  -3  198.51    4.94
  -6   0   3  191.31    5.15
   6  -6   3  192.36    5.42
   6  -6   3  188.05    5.30
   0   6   3  194.51    5.16
  -6   0   3  191.02    5.15
  -6   7  -3    1.52    0.18
   6  -7   3    1.86    0.30
   1   6   3    1.52    0.25
  -7   1   3    1.50    0.24
   6  -7   3    1.57    0.32
  -6   8  -3  117.15    3.16
   6  -8   3  119.50    3.59
   2   6   3  113.96    3.38
   6  -8   3  119.01    3.68
  -8   2   3  118.07    3.38
   7  -7  -3    5.58    0.47
   0   7  -3    5.33    0.43
   7  -7  -3    5.31    0.54
  -7   0  -3    6.20    0.44
  -7   7   3    5.70    0.38
   0  -7   3    5.13    0.46
  -7   7   3    5.35    0.29
   6  -7  -3    9.42    0.70
  -7   1  -3   10.31    0.54
  -7   1  -3    9.75    0.53
   1   6  -3    9.69    0.57
   6  -7  -3    9.51    0.60
  -1  -6   3    9.35    0.58
  -6   7   3    9.83    0.41
  -6   7   3    9.64    0.49
   2   5  -3   13.94    0.68
   5  -7  -3   13.40    0.83
  -7   2  -3   13.48    0.61
  -7   2  -3   13.00    0.60
   5  -7  -3   14.19    0.75
  -5   7   3   12.70    0.58
  -5   7   3   14.49    0.55
  -2  -5   3   13.78    0.69
  -7   3  -3    1.04    0.16
  -7   3  -3    0.92    0.15
   4  -7  -3    1.00    0.27
   4  -7  -3    1.12    0.24
  -7   3  -3    1.15    0.13
   3   4  -3    0.89    0.19
  -4   7   3    1.63    0.21
   3  -7  -3    1.54    0.27
  -7   4  -3    1.69    0.12
  -7   4  -3    1.55    0.16
   3  -7  -3    1.61    0.33
  -7   4  -3    1.92    0.14
  -4  -3   3    1.62    0.23
  -3   7   3    1.80    0.22
  -7   5  -3   39.08    1.15
   2  -7  -3   37.57    1.62
   2  -7  -3   37.96    1.47
  -2   7   3   38.66    1.33
  -5  -2   3   40.08    1.38
   1  -7  -3    1.33    0.35
  -7   6  -3    1.52    0.15
   1  -7  -3    1.60    0.30
  -6  -1   3    1.68    0.26
  -1   7   3    1.26    0.23
   7  -6   3    2.04    0.34
   0  -7  -3    5.75    0.54
  -7   7  -3    6.03    0.32
   0  -7  -3    5.39    0.61
   7  -7   3    6.51    0.56
   0   7   3    5.65    0.45
  -7   0   3    5.32    0.44
   7  -7   3    6.28    0.59
   6  -8  -3   76.94    2.71
  -8   2  -3   76.56    2.29
  -8   2  -3   77.69    2.30
   2   6  -3   75.97    2.39
   6  -8  -3   79.02    2.53
  -6   8   3   75.31    2.24
  -2  -6   3   77.14    2.44
   5  -8  -3   15.68    0.98
   5  -8  -3   16.69    0.89
   3   5  -3   16.69    0.78
  -8   3  -3   15.82    0.68
  -8   3  -3   16.18    0.69
  -5   8   3   15.67    0.70
  -8   4  -3  172.22    4.35
  -8   4  -3  171.33    4.41
  -8   4  -3  163.48    4.44
   4  -8  -3  168.66    5.06
   4  -8  -3  172.58    4.84
  -4   8   3  168.59    4.56
   3  -8  -3    1.18    0.31
  -8   5  -3    0.85    0.13
   3  -8  -3    1.72    0.38
  -5  -3   3    0.82    0.22
  -3   8   3    0.53    0.17
   2  -8  -3  114.22    3.79
  -8   6  -3  118.80    3.11
   2  -8  -3  122.62    3.63
  -6  -2   3  118.41    3.43
  -2   8   3  114.53    3.38
   0   0  -4  196.62    5.10
   0   0  -4  191.06    5.07
   0   0   4  202.27    5.11
  -1   0  -4   52.39    1.54
   1  -1  -4   49.25    1.49
   1  -1  -4   51.42    1.53
  -1   0  -4   49.88    1.54
   0   1  -4   50.70    1.52
   0   1  -4   52.22    1.55
   0   1  -4   50.46    1.57
   1   0   4   52.64    1.53
  -1   1   4   56.85    1.58
  -1   1   4   51.32    1.53
   0  -1   4   52.59    1.55
  -1   1  -4   88.52    2.47
   1   0  -4   87.55    2.50
   1   0  -4   91.82    2.47
   0  -1  -4   91.86    2.48
  -1   1  -4   85.80    2.48
   1   0  -4   84.77    2.48
   1   0  -4   95.65    2.29
   0  -1  -4   87.41    2.49
   0   1   4   89.61    2.51
  -1   0   4   94.36    2.68
  -1   0   4   90.39    2.51
   1  -1   4   92.61    2.47
   2  -1  -4   15.40    0.44
  -1   2  -4   13.20    0.57
  -1  -1  -4   13.29    0.56
  -1  -1  -4   13.31    0.57
  -1   2  -4   13.00    0.54
  -1   2  -4   11.80    0.57
   2  -1  -4   14.12    0.56
   2  -1  -4   13.21    0.56
  -2   1   4   12.79    0.56
   1   1   4   13.40    0.57
   1  -2   4   12.71    0.51
   1  -2   4   12.75    0.46
  -2   1   4   14.74    0.61
   3  -2  -4   27.37    0.87
  -2  -1  -4   26.94    0.94
   3  -2  -4   25.74    0.88
  -1   3  -4   25.61    0.88
  -2  -1  -4   27.42    0.94
   3  -2  -4   26.36    0.84
  -1   3  -4   27.40    0.95
  -1   3  -4   26.31    0.96
  -3   2   4   26.39    0.95
   2   1   4   26.96    0.93
   1  -3   4   27.04    0.85
  -3   2   4   25.29    0.91
  -2   0  -4  591.34   15.56
   0   2  -4  555.52   15.15
   0   2  -4  574.39   14.51
  -2   0  -4  569.02   15.20
   2  -2  -4  566.22   15.14
   0   2  -4  595.75   14.69
   2  -2  -4  569.51   14.87
   2  -2  -4  562.06   14.40
  -2   2   4  563.24   14.84
   2   0   4  586.40   14.90
   0  -2   4  608.23   14.77
   0  -2   4  609.10   14.45
   1   1  -4   12.92    0.55
   1   1  -4   13.13    0.58
   1  -2  -4   13.91    0.56
  -2   1  -4   13.93    0.55
   1   1  -4   12.78    0.56
   1  -2  -4   13.77    0.44
  -2   1  -4   12.37    0.54
   2  -1   4   13.58    0.53
  -1  -1   4   12.98    0.56
  -1   2   4   12.80    0.54
  -1   2   4   13.44    0.58
  -2   2  -4  536.53   14.25
  -2   2  -4  511.66   13.55
   0  -2  -4  556.93   13.52
   2   0  -4  519.68   13.68
   2   0  -4  566.00   13.82
   0  -2  -4  545.38   13.91
  -2   2  -4  546.61   14.05
   2   0  -4  544.67   13.96
   0   2   4  534.58   13.76
  -2   0   4  561.57   13.79
   0   2   4  533.71   13.58
  -2   0   4  554.17   14.01
  -2   3  -4   38.92    1.30
  -1  -2  -4   39.31    1.28
   3  -1  -4   40.34    1.23
  -2   3  -4   40.13    1.26
  -2   3  -4   37.47    1.19
   3  -1  -4   41.27    1.23
   1   2   4   40.22    1.28
  -3   1   4   40.43    1.31
   2  -3   4   41.07    1.21
  -2   4  -4  182.85    4.74
   4  -2  -4  181.48    4.60
  -2  -2  -4  178.50    4.71
  -2   4  -4  169.90    4.68
  -2   4  -4  173.67    4.59
   2  -4   4  174.76    4.69
  -4   2   4  176.21    4.73
   2  -4   4  186.67    4.67
   2   2   4  177.05    4.69
  -2   5  -4   43.19    1.40
  -2   5  -4   42.64    1.32
  -3  -2  -4   43.15    1.41
   2  -5   4   44.17    1.40
  -5   3   4   44.01    1.44
   2  -5   4   41.53    1.40
  -1   4  -4   70.26    2.06
   4  -3  -4   70.09    2.01
  -1   4  -4   69.42    1.98
  -3  -1  -4   67.64    2.03
   4  -3  -4   71.43    1.94
   1  -4   4   71.64    1.99
  -4   3   4   67.88    2.06
   1  -4   4   70.42    1.98
   0   3  -4   16.40    0.66
   0   3  -4   17.39    0.70
   3  -3  -4   16.48    0.56
  -3   0  -4   16.57    0.68
   3  -3  -4   16.57    0.68
   0  -3   4   17.71    0.60
   0  -3   4   17.31    0.65
  -3   3   4   16.82    0.70
  -3   3   4   16.97    0.65
   0  -3   4   17.03    0.64
   1   2  -4   26.57    0.92
  -3   1  -4   27.43    0.92
   1   2  -4   26.68    0.95
   1   2  -4   26.11    0.94
   2  -3  -4   27.13    0.82
  -3   1  -4   26.25    0.90
   2  -3  -4   26.20    0.88
   2  -3  -4   26.28    0.97
  -1  -2   4   27.39    0.94
  -2   3   4   25.40    0.89
  -1  -2   4   27.01    0.78
  -2   3   4   25.74    0.93
  -3   2  -4   38.60    1.20
   2   1  -4   38.26    1.25
  -3   2  -4   40.13    1.24
   1  -3  -4   41.17    1.25
   1  -3  -4   40.24    1.18
   2   1  -4   40.43    1.26
  -1   3   4   38.06    1.26
  -2  -1   4   39.34    1.29
  -2  -1   4   40.73    1.05
  -3   3  -4   13.99    0.65
  -3   3  -4   14.92    0.61
   0  -3  -4   15.49    0.64
   3   0  -4   15.02    0.60
  -3   3  -4   14.91    0.55
   3  -3   4   15.87    0.63
   0   3   4   14.88    0.63
  -3   0   4   14.74    0.65
  -3   4  -4   43.01    1.42
  -3   4  -4   42.37    1.26
  -1  -3  -4   44.29    1.40
  -3   4  -4   43.26    1.36
  -4   1   4   43.99    1.44
   1   3   4   44.22    1.40
   3  -4   4   44.86    1.39
  -3   5  -4   75.91    2.09
  -3   5  -4   74.17    2.20
  -2  -3  -4   75.47    2.24
  -3   5  -4   75.35    2.24
  -5   2   4   77.00    2.29
   2   3   4   77.18    2.23
   3  -5   4   77.61    2.30
   3  -5   4   76.68    2.24
  -3   6  -4    3.42    0.26
  -3  -3  -4    4.57    0.36
  -3   6  -4    3.13    0.29
  -6   3   4    3.74    0.34
   3  -6   4    3.36    0.33
   3  -6   4    3.69    0.34
  -3   7  -4   15.32    0.66
  -4  -3  -4   14.69    0.74
  -3   7  -4   16.22    0.72
   3  -7   4   15.04    0.78
   3  -7   4   14.99    0.78
  -7   4   4   16.00    0.76
  -4  -2  -4  299.26    7.74
  -2   6  -4  293.21    7.61
  -2   6  -4  303.89    7.71
   2  -6   4  295.38    7.73
   2  -6   4  297.63    7.74
  -6   4   4  297.37    7.74
  -1   5  -4    8.55    0.45
  -1   5  -4    8.27    0.48
  -4  -1  -4    8.72    0.48
   5  -4  -4    8.96    0.51
   1  -5   4    9.21    0.48
  -5   4   4    8.83    0.50
   1  -5   4    8.44    0.45
   4  -4  -4  353.29    8.89
   0   4  -4  357.48    9.02
   4  -4  -4  342.53    9.06
   0   4  -4  359.29    9.30
  -4   0  -4  349.51    9.02
  -4   0  -4  351.59    8.98
   4  -4  -4  362.68    8.87
  -4   4   4  341.88    9.01
   0  -4   4  359.83    8.93
   3  -4  -4   69.88    2.17
  -4   1  -4   74.29    2.08
  -4   1  -4   70.33    2.05
   3  -4  -4   71.63    2.00
   1   3  -4   70.34    2.10
  -1  -3   4   72.32    1.97
  -3   4   4   71.19    2.08
  -1  -3   4   70.70    2.06
  -1  -3   4   72.63    2.07
   2  -4  -4  183.33    4.68
   2   2  -4  179.21    4.74
  -4   2  -4  178.72    4.68
   2  -4  -4  174.05    4.88
  -4   2  -4  179.97    4.66
  -2  -2   4  180.62    4.56
  -2  -2   4  183.08    4.76
  -2   4   4  177.27    4.73
  -4   3  -4   44.31    1.36
  -4   3  -4   44.77    1.30
   1  -4  -4   44.25    1.39
   3   1  -4   44.29    1.39
  -3  -1   4   44.26    1.45
  -1   4   4   45.26    1.42
  -4   4  -4  378.65    9.88
  -4   4  -4  389.71    9.80
   0  -4  -4  411.91   10.10
  -4   4  -4  377.09    9.90
  -4   0   4  383.52    9.90
   4  -4   4  386.48    9.89
   0   4   4  386.88    9.85
  -4   5  -4    8.97    0.45
  -1  -4  -4    8.76    0.48
  -4   5  -4    8.78    0.49
  -4   5  -4    8.49    0.36
   4  -5   4    8.53    0.50
  -5   1   4    7.87    0.49
   1   4   4    8.33    0.48
  -2  -4  -4  275.38    7.00
  -4   6  -4  266.87    6.74
  -4   6  -4  267.99    6.89
   2   4   4  269.76    6.96
   4  -6   4  263.20    7.08
  -6   2   4  259.59    6.98
   4  -6   4  261.39    7.00
  -4   7  -4   17.64    0.77
  -4   7  -4   18.80    0.70
   4  -7   4   18.78    0.89
  -7   3   4   17.96    0.83
   4  -7   4   18.41    0.92
  -2   7  -4   12.00    0.64
  -5  -2  -4   13.01    0.69
   2  -7   4   12.95    0.69
  -7   5   4   12.11    0.65
  -5  -1  -4   29.44    1.14
  -1   6  -4   29.91    1.14
   6  -5  -4   29.58    1.21
  -6   5   4   34.34    1.17
   1  -6   4   31.49    1.15
   5  -5  -4   16.27    0.67
  -5   0  -4   15.22    0.70
   0   5  -4   16.21    0.73
   5  -5  -4   16.21    0.79
  -5   5   4   15.26    0.70
   0  -5   4   16.39    0.69
   4  -5  -4    9.21    0.47
  -5   1  -4    8.26    0.46
  -5   1  -4    8.95    0.48
   4  -5  -4   10.39    0.61
   1   4  -4    8.72    0.50
  -4   5   4    8.35    0.47
  -1  -4   4    8.32    0.43
  -5   2  -4   44.20    1.36
  -5   2  -4   43.61    1.36
   2   3  -4   45.19    1.44
   3  -5  -4   40.14    1.54
   3  -5  -4   43.59    1.38
  -2  -3   4   45.04    1.43
  -3   5   4   43.60    1.40
  -2  -3   4   43.15    1.31
   2  -5  -4   76.47    2.47
   2  -5  -4   78.30    2.26
   3   2  -4   77.30    2.25
  -5   3  -4   76.76    2.17
  -5   3  -4   78.53    2.14
  -3  -2   4   75.80    2.27
  -3  -2   4   76.53    2.28
  -2   5   4   77.65    2.25
  -5   4  -4    8.15    0.48
   1  -5  -4    9.10    0.51
  -5   4  -4    8.02    0.35
  -5   4  -4    8.19    0.42
  -1   5   4    7.84    0.46
  -4  -1   4    8.81    0.51
  -5   5  -4   10.92    0.41
  -5   5  -4   10.21    0.55
  -5   5  -4   10.94    0.52
  -5   0   4   11.15    0.61
   0   5   4   12.83    0.61
   5  -5   4   10.68    0.62
  -5   6  -4   36.25    1.25
  -5   6  -4   36.45    1.07
  -5   6  -4   37.68    1.22
   5  -6   4   37.07    1.44
   1   5   4   36.38    1.30
  -6   1   4   35.72    1.32
   5  -6   4   37.44    1.38
  -5   7  -4   10.90    0.46
  -5   7  -4   10.91    0.55
  -7   2   4   11.76    0.65
   5  -7   4   11.73    0.74
   2   5   4   10.39    0.87
   5  -7   4   11.32    0.68
  -1   7  -4   43.80    1.52
  -6  -1  -4   42.61    1.52
   1  -7   4   42.55    1.52
  -7   6   4   41.74    1.46
   0   6  -4  135.37    3.75
  -6   0  -4  132.97    3.71
   6  -6  -4  131.97    3.89
  -6   6   4  130.83    3.69
   0  -6   4  132.02    3.71
   5  -6  -4   28.47    1.25
   1   5  -4   30.44    1.14
  -6   1  -4   29.05    1.08
  -6   1  -4   28.74    1.10
   5  -6  -4   30.66    1.10
  -1  -5   4   30.70    1.09
  -5   6   4   30.76    1.10
   2   4  -4  299.54    7.72
  -6   2  -4  300.16    7.63
   4  -6  -4  288.13    7.92
  -6   2  -4  298.27    7.61
   4  -6  -4  302.76    7.69
  -2  -4   4  292.65    7.59
  -4   6   4  291.42    7.64
  -6   3  -4    3.02    0.26
   3   3  -4    3.68    0.32
  -6   3  -4    3.37    0.26
   3  -6  -4    4.07    0.44
   3  -6  -4    2.90    0.30
  -3   6   4    3.06    0.29
  -3  -3   4    3.67    0.32
  -6   4  -4  265.94    6.87
   2  -6  -4  256.76    7.31
  -6   4  -4  272.95    7.02
  -6   4  -4  275.74    6.80
   2  -6  -4  269.07    7.06
  -2   6   4  259.90    6.98
  -4  -2   4  275.35    7.06
  -4  -2   4  271.93    7.06
   1  -6  -4   36.10    1.56
  -6   5  -4   35.15    1.25
  -6   5  -4   35.77    1.04
   1  -6  -4   36.90    1.35
  -6   5  -4   36.72    1.18
  -5  -1   4   36.69    1.33
  -5  -1   4   37.49    1.33
  -1   6   4   35.71    1.29
  -6   6  -4  138.10    3.64
   0  -6  -4  136.57    3.91
  -6   6  -4  134.87    3.45
  -6   0   4  129.20    3.83
   0   6   4  134.81    3.81
   6  -6   4  137.90    3.94
  -6   7  -4   28.51    0.99
  -6   7  -4   27.17    0.84
   1   6   4   26.97    1.12
   6  -7   4   24.94    1.16
  -7   1   4   27.59    1.13
   1   6  -4   45.20    1.56
   6  -7  -4   42.61    1.73
  -7   1  -4   44.21    1.51
  -1  -6   4   43.35    1.52
  -6   7   4   42.98    1.48
   5  -7  -4   11.86    0.79
   2   5  -4   12.55    0.66
  -7   2  -4   13.14    0.63
  -7   2  -4   11.95    0.62
   5  -7  -4   12.43    0.67
  -5   7   4   11.90    0.62
   4  -7  -4   14.64    0.90
  -7   3  -4   14.57    0.66
  -7   3  -4   15.92    0.67
   3   4  -4   15.67    0.75
   4  -7  -4   14.66    0.75
  -4   7   4   14.01    0.68
  -7   4  -4   19.71    0.69
   3  -7  -4   20.02    0.92
  -7   4  -4   18.38    0.75
   3  -7  -4   19.16    1.08
  -7   4  -4   19.90    0.73
  -3   7   4   19.04    0.84
   2  -7  -4   10.88    0.67
  -7   5  -4   11.71    0.44
   2  -7  -4   11.14    0.82
  -7   5  -4   11.71    0.46
  -7   5  -4   11.06    0.52
  -2   7   4   11.99    0.65
  -5  -2   4   11.58    0.66
  -7   6  -4   28.07    0.98
   1  -7  -4   27.22    1.20
   1  -7  -4   28.14    1.42
  -7   6  -4   27.72    0.82
  -6  -1   4   27.78    1.16
  -1   7   4   29.22    1.16
   0   0  -5  210.92    5.63
   0   0   5  219.70    5.64
   1  -1  -5    8.73    0.46
   0   1  -5    9.43    0.51
  -1   0  -5    8.79    0.49
   0   1  -5    9.20    0.49
   1   0   5    9.26    0.47
   0  -1   5    9.17    0.47
  -1   1   5    8.68    0.48
  -1   1  -5    0.10    0.09
   1   0  -5    0.21    0.11
   1   0  -5    0.24    0.11
  -1   1  -5    0.10    0.09
  -1   1  -5    0.30    0.11
   0  -1  -5    0.20    0.10
  -1   0   5    0.11    0.08
   0   1   5    0.22    0.10
   1  -1   5    0.28    0.10
   2  -1  -5   18.52    0.75
  -1  -1  -5   17.58    0.76
  -1   2  -5   18.45    0.74
  -1   2  -5   17.26    0.77
  -1   2  -5   18.12    0.75
   2  -1  -5   17.50    0.72
   1   1   5   17.75    0.74
  -2   1   5   17.62    0.76
   3  -2  -5    9.22    0.47
  -1   3  -5    8.92    0.49
  -1   3  -5    9.16    0.51
  -1   3  -5    9.38    0.54
  -2  -1  -5    9.16    0.51
  -3   2   5    8.81    0.52
   2  -2  -5  104.76    2.94
   0   2  -5  103.25    3.01
   2  -2  -5  108.23    2.93
   2  -2  -5  112.62    2.86
  -2   0  -5  102.87    2.97
   0   2  -5  106.40    2.98
   0  -2   5  105.62    3.01
  -2   2   5  102.67    2.98
   1  -2  -5   17.72    0.72
  -2   1  -5   17.69    0.71
   1   1  -5   17.78    0.74
   1   1  -5   16.99    0.75
  -2   1  -5   17.35    0.74
  -1  -1   5   17.73    0.74
  -1   2   5   17.26    0.76
   0  -2  -5  352.80    8.89
  -2   2  -5  352.01    8.84
  -2   2  -5  343.96    8.87
   2   0  -5  344.03    8.88
  -2   2  -5  342.50    8.92
   2   0  -5  345.25    8.86
  -2   0   5  341.36    8.91
   0   2   5  354.32    8.92
  -2   3  -5    3.27    0.30
  -2   3  -5    3.45    0.28
  -2   3  -5    2.97    0.31
  -1  -2  -5    3.80    0.32
   3  -1  -5    4.00    0.31
   1   2   5    4.18    0.33
  -3   1   5    2.89    0.30
  -2   4  -5  175.03    4.71
   4  -2  -5  182.46    4.70
  -2  -2  -5  179.34    4.80
  -2   4  -5  179.16    4.79
  -2   4  -5  171.65    4.82
  -4   2   5  176.19    4.81
   2  -4   5  181.64    4.65
  -2   5  -5    6.22    0.45
  -3  -2  -5    6.32    0.45
   2  -5   5    7.14    0.60
  -5   3   5    6.26    0.46
  -1   4  -5    0.24    0.14
  -3  -1  -5    0.21    0.12
   4  -3  -5    0.18    0.09
  -4   3   5    0.12    0.11
  -3   0  -5   29.95    1.06
   0   3  -5   29.38    1.08
   0   3  -5   24.34    1.05
   3  -3  -5   30.79    1.01
  -3   3   5   28.03    1.08
   1   2  -5    9.35    0.52
  -3   1  -5    9.97    0.50
   2  -3  -5    9.28    0.51
  -3   1  -5    9.17    0.50
   1   2  -5    9.56    0.54
  -1  -2   5    9.61    0.51
  -2   3   5    8.72    0.52
  -3   2  -5    3.69    0.31
   2   1  -5    3.62    0.31
  -3   2  -5    3.79    0.30
   2   1  -5    3.65    0.32
  -1   3   5    3.34    0.31
  -2  -1   5    3.36    0.31
   3   0  -5    7.95    0.47
  -3   3  -5    8.72    0.46
  -3   3  -5    8.90    0.53
  -3   3  -5    8.55    0.49
   0  -3  -5    8.70    0.49
   0   3   5    9.49    0.52
  -3   0   5    9.04    0.52
  -3   4  -5   12.76    0.63
  -3   4  -5   12.90    0.67
  -3   4  -5   13.29    0.59
  -1  -3  -5   13.53    0.66
   1   3   5   14.33    0.67
  -4   1   5   13.83    0.69
   3  -4   5   13.86    0.61
  -3   5  -5    4.19    0.31
  -2  -3  -5    3.71    0.35
  -3   5  -5    4.18    0.35
  -3   5  -5    4.08    0.37
  -5   2   5    4.10    0.38
   3  -5   5    4.05    0.32
  -3  -3  -5    7.83    0.53
  -3   6  -5    7.91    0.51
  -3   6  -5    7.73    0.45
  -6   3   5    7.90    0.55
   3  -6   5    7.93    0.49
  -4  -2  -5   79.27    2.48
  -2   6  -5   81.97    2.48
  -6   4   5   81.77    2.50
  -4  -1  -5    7.85    0.50
  -1   5  -5    7.75    0.51
  -5   4   5    7.04    0.48
   0   4  -5  244.12    6.21
  -4   0  -5  227.51    6.14
  -4   4   5  228.32    6.20
  -4   1  -5    0.04    0.09
   1   3  -5    0.30    0.14
  -4   1  -5    0.03    0.08
   3  -4  -5    0.33    0.14
  -3   4   5    0.18    0.13
   2  -4  -5  174.77    4.81
  -4   2  -5  167.62    4.67
  -4   2  -5  178.59    4.65
   2   2  -5  178.07    4.73
  -2   4   5  176.26    4.74
  -2  -2   5  174.86    4.73
   3   1  -5   14.13    0.67
  -4   3  -5   13.21    0.64
  -4   3  -5   13.67    0.61
  -4   3  -5   13.41    0.68
  -1   4   5   13.72    0.67
  -3  -1   5   14.02    0.69
  -4   4  -5   81.10    2.39
  -4   4  -5   84.20    2.32
  -4   4  -5   78.11    2.45
   0   4   5   79.89    2.42
  -4   0   5   83.67    2.49
  -4   5  -5   18.13    0.71
  -4   5  -5   16.62    0.80
  -4   5  -5   18.28    0.77
  -5   1   5   16.32    0.82
   4  -5   5   17.16    0.78
   1   4   5   18.26    0.81
  -4   6  -5  165.12    4.41
  -4   6  -5  165.67    4.51
   4  -6   5  168.99    4.57
  -6   2   5  163.48    4.61
  -1   6  -5   17.65    0.85
  -5  -1  -5   16.97    0.82
  -6   5   5   16.61    0.81
   0   5  -5    3.56    0.36
  -5   0  -5    3.53    0.34
  -5   5   5    3.38    0.36
  -5   1  -5    7.71    0.48
   4  -5  -5    7.89    0.54
   1   4  -5    7.83    0.52
  -4   5   5    7.14    0.50
   3  -5  -5    6.85    0.52
  -5   2  -5    5.80    0.40
   2   3  -5    6.26    0.45
  -5   2  -5    6.23    0.42
  -3   5   5    5.83    0.44
  -5   3  -5    3.45    0.32
  -5   3  -5    3.99    0.31
   2  -5  -5    4.30    0.44
  -3  -2   5    4.46    0.38
  -2   5   5    4.03    0.36
  -5   4  -5   19.22    0.74
   1  -5  -5   19.27    0.86
  -5   4  -5   16.63    0.76
  -5   4  -5   17.32    0.82
  -1   5   5   17.56    0.81
  -4  -1   5   17.16    0.83
  -5   5  -5    5.81    0.36
  -5   5  -5    5.66    0.44
  -5   5  -5    5.28    0.39
   0  -5  -5    6.03    0.44
  -5   0   5    5.48    0.45
   0   5   5    6.07    0.46
  -5   6  -5    0.65    0.17
  -5   6  -5    0.85    0.23
  -5   6  -5    0.53    0.13
   5  -6   5    0.94    0.25
  -6   1   5    0.53    0.19
   1   5   5    0.87    0.22
  -6   0  -5  113.29    3.30
   0   6  -5  110.68    3.32
  -6   6   5  112.68    3.31
   1   5  -5   17.47    0.85
  -6   1  -5   16.68    0.79
  -5   6   5   16.07    0.81
  -6   2  -5   80.33    2.42
   2   4  -5   81.32    2.51
   4  -6  -5   82.49    2.64
  -4   6   5   80.23    2.47
  -6   3  -5    7.71    0.46
   3  -6  -5    7.89    0.62
  -6   3  -5    7.78    0.48
  -3   6   5    7.45    0.50
  -6   4  -5  170.11    4.69
  -6   4  -5  171.37    4.60
  -6   4  -5  177.84    4.55
   2  -6  -5  168.78    4.96
  -2   6   5  163.06    4.67
  -4  -2   5  172.16    4.74
  -4  -2   5  168.42    4.73
  -6   5  -5    0.74    0.17
   1  -6  -5    0.64    0.24
   1  -6  -5    0.47    0.24
  -6   5  -5    0.60    0.17
  -6   5  -5    0.60    0.20
  -5  -1   5    0.58    0.20
  -5  -1   5    0.71    0.22
  -1   6   5    0.90    0.23
   0  -6  -5  136.16    3.92
  -6   6  -5  135.00    3.75
  -6   6  -5  135.73    3.65
   0   6   5  137.54    3.92
  -6   0   5  137.13    3.96
   0   0  -6  294.09    7.57
   0   0  -6  288.23    7.61
   0   0   6  292.37    7.64
   0   1  -6    0.88    0.20
   1  -1  -6    1.13    0.22
   1  -1  -6    1.15    0.21
   0   1  -6    0.81    0.20
  -1   0  -6    1.04    0.21
  -1   1   6    1.26    0.22
  -1   1  -6   64.22    2.07
   1   0  -6   67.31    2.04
  -1   1  -6   63.70    2.03
   1   0  -6   67.04    2.07
   0  -1  -6   64.91    2.03
   0   1   6   65.67    2.04
  -1   0   6   68.96    2.07
   2  -1  -6   36.70    1.28
  -1  -1  -6   36.36    1.31
  -1   2  -6   36.20    1.29
  -1   2  -6   34.49    1.31
  -2   1   6   35.86    1.30
   3  -2  -6    6.51    0.43
  -1   3  -6    6.72    0.50
  -2  -1  -6    6.30    0.47
  -1   3  -6    6.68    0.47
  -3   2   6    6.02    0.46
   0   2  -6  210.14    5.65
   2  -2  -6  205.43    5.55
   0   2  -6  203.63    5.58
  -2   0  -6  219.57    5.64
  -2   2   6  206.99    5.61
   1   1  -6   33.78    1.25
  -2   1  -6   33.84    1.26
   1   1  -6   35.09    1.29
  -1   2   6   35.38    1.27
   0  -2  -6  186.95    5.14
  -2   2  -6  186.81    5.15
  -2   2  -6  190.84    5.22
   2   0  -6  201.06    5.20
   2   0  -6  192.35    5.43
   0   2   6  193.41    5.18
  -2   0   6  191.24    5.17
  -2   3  -6   45.08    1.55
  -1  -2  -6   46.90    1.59
  -2   3  -6   45.62    1.61
   3  -1  -6   47.95    1.55
  -3   1   6   44.19    1.58
  -2   4  -6  224.76    6.13
  -2   4  -6  235.24    6.08
  -2  -2  -6  228.57    6.11
   4  -2  -6  227.24    5.97
  -4   2   6  216.67    6.09
  -2   5  -6    0.19    0.15
  -2   5  -6    0.12    0.13
  -3  -2  -6    0.43    0.19
  -5   3   6    0.07    0.12
  -1   4  -6   39.21    1.47
  -1   4  -6   42.08    1.46
  -3  -1  -6   37.88    1.42
  -4   3   6   36.86    1.42
   0   3  -6   45.36    1.59
  -3   0  -6   46.73    1.60
   3  -3  -6   45.77    1.51
   0   3  -6   46.13    1.64
  -3   3   6   46.26    1.60
  -3   1  -6    6.20    0.47
   1   2  -6    6.33    0.47
   1   2  -6    6.68    0.49
  -2   3   6    7.97    0.52
   2   1  -6   46.03    1.61
  -3   2  -6   45.77    1.62
  -3   2  -6   47.79    1.60
   2   1  -6   44.97    1.56
  -2  -1   6   46.74    1.59
  -1   3   6   47.46    1.63
   3   0  -6   17.22    0.80
  -3   3  -6   17.02    0.83
  -3   3  -6   17.07    0.80
  -3   0   6   17.99    0.84
   0   3   6   18.56    0.85
  -3   4  -6    4.16    0.40
  -3   4  -6    3.60    0.35
  -4   1   6    4.45    0.40
  -3   5  -6   54.16    1.86
  -3   5  -6   50.62    1.75
  -5   2   6   52.35    1.82
  -1   5  -6   19.86    0.93
  -4  -1  -6   18.19    0.90
  -5   4   6   18.64    0.91
   0   4  -6  150.94    4.22
  -4   0  -6  146.31    4.19
  -4   4   6  150.27    4.23
   1   3  -6   43.98    1.53
  -4   1  -6   41.25    1.49
  -3   4   6   40.93    1.53
   2   2  -6  232.87    6.23
  -4   2  -6  235.07    6.23
  -2   4   6  228.84    6.26
  -4   3  -6    3.93    0.39
  -4   3  -6    4.23    0.39
  -1   4   6    3.55    0.38
  -3  -1   6    3.31    0.35
  -4   4  -6  175.54    4.92
  -4   4  -6  179.22    4.84
   0   4   6  179.66    4.91
  -4   0   6  174.49    4.92
  -4   5  -6   34.13    1.36
  -4   5  -6   34.26    1.29
  -5   1   6   36.64    1.40
   1   4  -6   20.17    0.95
  -5   1  -6   19.08    0.90
  -4   5   6   18.44    0.93
  -5   2  -6    0.52    0.18
   2   3  -6    0.16    0.15
  -3   5   6    0.26    0.16
  -5   3  -6   50.60    1.81
  -5   3  -6   52.57    1.78
   2  -5  -6   52.17    1.88
  -2   5   6   54.51    1.84
  -5   4  -6   36.35    1.37
  -5   4  -6   33.34    1.30
   1  -5  -6   34.81    1.48
  -1   5   6   34.49    1.36
  -4  -1   6   35.19    1.38
   0   0  -7  102.67    2.94
   0   0  -7   94.19    2.95
   1  -1  -7   11.20    0.65
  -1   0  -7   11.32    0.65
   0   1  -7   10.62    0.66
  -1   0  -7   10.98    0.67
   0   1  -7   11.08    0.64
   1   0  -7    7.60    0.54
  -1   1  -7    7.35    0.54
   0  -1  -7    7.80    0.55
  -1   1  -7    8.06    0.53
   2  -1  -7    0.99    0.24
  -1   2  -7    1.02    0.25
  -1  -1  -7    0.73    0.21
  -1   2  -7    0.89    0.24
  -2   1   7    1.40    0.30
   3  -2  -7   23.29    0.98
  -2  -1  -7   21.88    1.03
  -1   3  -7   23.60    1.03
  -3   2   7   23.56    1.05
   0   2  -7   78.62    2.51
   2  -2  -7   80.06    2.44
  -2   0  -7   80.14    2.48
   0   2  -7   76.55    2.45
  -2   2   7   78.50    2.48
   1   1  -7    0.85    0.24
  -2   1  -7    0.82    0.22
   1   1  -7    0.87    0.27
  -2   1  -7    1.04    0.27
   1  -2  -7    1.20    0.26
  -2   2  -7  140.25    4.06
  -2   2  -7  141.23    4.01
   2   0  -7  141.36    4.01
  -2   3  -7    9.56    0.62
   3  -1  -7    9.80    0.60
  -2   3  -7   10.84    0.97
  -3   1   7    9.78    0.62
   3  -3  -7    0.66    0.23
  -3   0  -7    0.51    0.21
   0   3  -7    0.48    0.21
  -3   3   7    1.03    0.27
   1   2  -7   22.54    1.02
  -3   1  -7   23.04    1.04
   2  -3  -7   22.06    0.98
   1   2  -7   22.33    1.06
  -2   3   7   22.08    1.02
   2   1  -7    9.86    0.64
  -3   2  -7   10.04    0.64
  -3   2  -7    9.52    0.76
  -1   3   7   11.23    0.71
   3   0  -7    2.62    0.34
  -3   3  -7    2.58    0.34
   0   0   0    0.00    0.00
;
_shelx_hkl_checksum              14667
loop_
_space_group_symop_operation_xyz
'x, y, z'
'-y, x-y, z'
'-x+y, -x, z'
'y, x, -z'
'x-y, -y, -z'
'-x, -x+y, -z'
'-x, -y, -z'
'y, -x+y, -z'
'x-y, x, -z'
'-y, -x, z'
'-x+y, y, z'
'x, x-y, z'
loop_
_atom_site_label
_atom_site_type_symbol
_atom_site_fract_x
_atom_site_fract_y
_atom_site_fract_z
_atom_site_U_iso_or_equiv
_atom_site_adp_type
_atom_site_occupancy
_atom_site_site_symmetry_order
_atom_site_calc_flag
_atom_site_refinement_flags_posn
_atom_site_refinement_flags_adp
_atom_site_refinement_flags_occupancy
Nd1 Nd 0.0000 0.0000 0.5000 0.00427(15) Uani 1 12 d S T P
Cu1 Cu 0.5000 0.5000 0.5000 0.00459(16) Uani 1 4 d S T P
Cl1 Cl 0.3333 0.6667 0.86499(17) 0.0123(2) Uani 1 6 d S T P
Cl2 Cl 0.0000 0.0000 0.0000 0.0100(3) Uani 1 12 d S T P
O1 O 0.19500(16) 0.3900(3) 0.3685(3) 0.0044(3) Uani 1 2 d DS T P
H1 H 0.201(4) 0.403(7) 0.231(3) 0.023(9) Uiso 1 2 d DS . P
loop_
_atom_site_aniso_label
_atom_site_aniso_U_11
_atom_site_aniso_U_22
_atom_site_aniso_U_33
_atom_site_aniso_U_23
_atom_site_aniso_U_13
_atom_site_aniso_U_12
Nd1 0.00306(16) 0.00306(16) 0.0067(2) 0.000 0.000 0.00153(8)
Cu1 0.0029(2) 0.0029(2) 0.0067(3) 0.00100(6) -0.00100(6) 0.00059(15)
Cl1 0.0161(3) 0.0161(3) 0.0049(4) 0.000 0.000 0.00803(17)
Cl2 0.0131(4) 0.0131(4) 0.0037(5) 0.000 0.000 0.0065(2)
O1 0.0051(6) 0.0046(7) 0.0035(7) 0.0004(7) 0.0002(3) 0.0023(4)
loop_
_atom_type_symbol
_atom_type_description
_atom_type_scat_dispersion_real
_atom_type_scat_dispersion_imag
_atom_type_scat_source
O O 0.0106 0.0060 'International Tables Vol C Tables 4.2.6.8 and 6.1.1.4'
H H 0.0000 0.0000 'International Tables Vol C Tables 4.2.6.8 and 6.1.1.4'
Cl Cl 0.1484 0.1585 'International Tables Vol C Tables 4.2.6.8 and 6.1.1.4'
Cu Cu 0.3201 1.2651 'International Tables Vol C Tables 4.2.6.8 and 6.1.1.4'
Nd Nd -0.1943 3.0179 'International Tables Vol C Tables 4.2.6.8 and 6.1.1.4'
loop_
_geom_angle_atom_site_label_1
_geom_angle_atom_site_label_2
_geom_angle_atom_site_label_3
_geom_angle
_geom_angle_site_symmetry_1
_geom_angle_site_symmetry_3
O1 Nd1 O1 180.0 8_556 2
O1 Nd1 O1 111.15(4) 8_556 7_556
O1 Nd1 O1 68.85(4) 2 7_556
O1 Nd1 O1 68.85(4) 8_556 .
O1 Nd1 O1 111.15(4) 2 .
O1 Nd1 O1 180.0 7_556 .
O1 Nd1 O1 111.15(4) 8_556 9_556
O1 Nd1 O1 68.85(4) 2 9_556
O1 Nd1 O1 111.15(4) 7_556 9_556
O1 Nd1 O1 68.85(4) . 9_556
O1 Nd1 O1 68.85(4) 8_556 3
O1 Nd1 O1 111.15(4) 2 3
O1 Nd1 O1 68.85(4) 7_556 3
O1 Nd1 O1 111.15(4) . 3
O1 Nd1 O1 180.0 9_556 3
O1 Nd1 Cl2 107.73(4) 8_556 .
O1 Nd1 Cl2 72.27(4) 2 .
O1 Nd1 Cl2 107.73(4) 7_556 .
O1 Nd1 Cl2 72.27(4) . .
O1 Nd1 Cl2 107.73(4) 9_556 .
O1 Nd1 Cl2 72.27(4) 3 .
O1 Nd1 Cl2 72.27(4) 8_556 1_556
O1 Nd1 Cl2 107.73(4) 2 1_556
O1 Nd1 Cl2 72.27(4) 7_556 1_556
O1 Nd1 Cl2 107.73(4) . 1_556
O1 Nd1 Cl2 72.27(4) 9_556 1_556
O1 Nd1 Cl2 107.73(4) 3 1_556
Cl2 Nd1 Cl2 180.0 . 1_556
O1 Nd1 Cu1 34.423(18) 8_556 .
O1 Nd1 Cu1 145.577(18) 2 .
O1 Nd1 Cu1 145.577(18) 7_556 .
O1 Nd1 Cu1 34.423(18) . .
O1 Nd1 Cu1 90.0 9_556 .
O1 Nd1 Cu1 90.0 3 .
Cl2 Nd1 Cu1 90.0 . .
Cl2 Nd1 Cu1 90.0 1_556 .
O1 Nd1 Cu1 145.577(18) 8_556 1_445
O1 Nd1 Cu1 34.423(18) 2 1_445
O1 Nd1 Cu1 34.423(18) 7_556 1_445
O1 Nd1 Cu1 145.577(18) . 1_445
O1 Nd1 Cu1 90.0 9_556 1_445
O1 Nd1 Cu1 90.0 3 1_445
Cl2 Nd1 Cu1 90.0 . 1_445
Cl2 Nd1 Cu1 90.0 1_556 1_445
Cu1 Nd1 Cu1 180.0 . 1_445
O1 Nd1 Cu1 145.576(18) 8_556 2
O1 Nd1 Cu1 34.424(18) 2 2
O1 Nd1 Cu1 90.0 7_556 2
O1 Nd1 Cu1 90.0 . 2
O1 Nd1 Cu1 34.424(18) 9_556 2
O1 Nd1 Cu1 145.576(18) 3 2
Cl2 Nd1 Cu1 90.0 . 2
Cl2 Nd1 Cu1 90.0 1_556 2
Cu1 Nd1 Cu1 120.0 . 2
Cu1 Nd1 Cu1 60.0 1_445 2
O1 Nd1 Cu1 90.0 8_556 3
O1 Nd1 Cu1 90.0 2 3
O1 Nd1 Cu1 34.424(18) 7_556 3
O1 Nd1 Cu1 145.577(18) . 3
O1 Nd1 Cu1 145.577(18) 9_556 3
O1 Nd1 Cu1 34.423(18) 3 3
Cl2 Nd1 Cu1 90.0 . 3
Cl2 Nd1 Cu1 90.0 1_556 3
Cu1 Nd1 Cu1 120.0 . 3
Cu1 Nd1 Cu1 60.0 1_445 3
Cu1 Nd1 Cu1 120.0 2 3
O1 Cu1 O1 91.98(10) 7_666 8_556
O1 Cu1 O1 88.02(10) 7_666 2_665
O1 Cu1 O1 180.0 8_556 2_665
O1 Cu1 O1 180.0 7_666 .
O1 Cu1 O1 88.02(10) 8_556 .
O1 Cu1 O1 91.98(10) 2_665 .
O1 Cu1 Nd1 135.99(5) 7_666 .
O1 Cu1 Nd1 44.01(5) 8_556 .
O1 Cu1 Nd1 135.99(5) 2_665 .
O1 Cu1 Nd1 44.01(5) . .
O1 Cu1 Nd1 44.01(5) 7_666 1_665
O1 Cu1 Nd1 135.99(5) 8_556 1_665
O1 Cu1 Nd1 44.01(5) 2_665 1_665
O1 Cu1 Nd1 135.99(5) . 1_665
Nd1 Cu1 Nd1 180.0 . 1_665
Nd1 Cl2 Nd1 180.0 1_554 .
Cu1 O1 Cu1 120.11(9) 3_565 .
Cu1 O1 Nd1 101.56(6) 3_565 .
Cu1 O1 Nd1 101.56(6) . .
Cu1 O1 H1 109.9(13) 3_565 .
Cu1 O1 H1 109.9(13) . .
Nd1 O1 H1 113(3) . .
loop_
_geom_bond_atom_site_label_1
_geom_bond_atom_site_label_2
_geom_bond_distance
_geom_bond_site_symmetry_2
Nd1 O1 2.4342(19) 8_556
Nd1 O1 2.4342(19) 2
Nd1 O1 2.4342(19) 7_556
Nd1 O1 2.4342(19) .
Nd1 O1 2.4342(18) 9_556
Nd1 O1 2.4342(18) 3
Nd1 Cl2 2.8196(6) .
Nd1 Cl2 2.8196(6) 1_556
Nd1 Cu1 3.4323(4) .
Nd1 Cu1 3.4323(4) 1_445
Nd1 Cu1 3.4323(4) 2
Nd1 Cu1 3.4323(4) 3
Cu1 O1 1.9805(9) 7_666
Cu1 O1 1.9805(9) 8_556
Cu1 O1 1.9805(9) 2_665
Cu1 O1 1.9805(9) .
Cu1 Nd1 3.4323(4) 1_665
Cl2 Nd1 2.8196(6) 1_554
O1 Cu1 1.9805(9) 3_565
O1 H1 0.782(19) .
loop_
_geom_hbond_atom_site_label_D
_geom_hbond_atom_site_label_H
_geom_hbond_atom_site_label_A
_geom_hbond_distance_DH
_geom_hbond_distance_HA
_geom_hbond_distance_DA
_geom_hbond_angle_DHA
_geom_hbond_site_symmetry_A
O1 H1 Cl1 0.782(19) 2.59(3) 3.2814(19) 148(4) 1_554
O1 H1 Cl2 0.782(19) 2.73(4) 3.1136(18) 113(4) .
