#------------------------------------------------------------------------------
#$Date: 2017-05-19 05:09:41 +0300 (Fri, 19 May 2017) $
#$Revision: 196780 $
#$URL: file:///home/coder/svn-repositories/cod/cif/7/04/30/7043031.cif $
#------------------------------------------------------------------------------
#
# This file is available in the Crystallography Open Database (COD),
# http://www.crystallography.net/
#
# All data on this site have been placed in the public domain by the
# contributors.
#
data_7043031
loop_
_publ_author_name
'Hossain, M. K.'
'Haukka, M.'
'Sillanp\"a\"a, R.'
'Hrovat, D. A.'
'Richmond, M. G.'
'Nordlander, E.'
'Lehtonen, A.'
_publ_section_title
;
 Syntheses and catalytic oxotransfer activities of oxo molybdenum(vi)
 complexes of a new aminoalcohol phenolate ligand
;
_journal_name_full               'Dalton Trans.'
_journal_paper_doi               10.1039/C7DT00846E
_journal_year                    2017
_chemical_formula_moiety         'C24 H35 Mo N O5'
_chemical_formula_sum            'C24 H35 Mo N O5'
_chemical_formula_weight         513.47
_space_group_crystal_system      triclinic
_space_group_IT_number           2
_space_group_name_Hall           '-P 1'
_space_group_name_H-M_alt        'P -1'
_symmetry_space_group_name_Hall  '-P 1'
_symmetry_space_group_name_H-M   'P -1'
_atom_sites_solution_hydrogens   mixed
_audit_creation_method           SHELXL-2016/6
_audit_update_record
;
2017-01-20 deposited with the CCDC.
2017-04-26 downloaded from the CCDC.
;
_cell_angle_alpha                71.516(3)
_cell_angle_beta                 80.756(3)
_cell_angle_gamma                65.952(4)
_cell_formula_units_Z            1
_cell_length_a                   9.6952(4)
_cell_length_b                   9.9564(4)
_cell_length_c                   15.3036(5)
_cell_measurement_reflns_used    20512
_cell_measurement_temperature    170(2)
_cell_measurement_theta_max      36.6000
_cell_measurement_theta_min      2.2850
_cell_volume                     1278.59(10)
_computing_cell_refinement
;
CrysAlisPro, Agilent Technologies,
Version 1.171.37.31 (release 27-03-2014 CrysAlis171 .NET)
(compiled Jan 14 2014,18:38:05) 
;
_computing_data_collection
;
CrysAlisPro, Agilent Technologies,
Version 1.171.37.31 (release 27-03-2014 CrysAlis171 .NET)
(compiled Jan 14 2014,18:38:05) 
;
_computing_data_reduction
;
CrysAlisPro, Agilent Technologies,
Version 1.171.37.31 (release 27-03-2014 CrysAlis171 .NET)
(compiled Jan 14 2014,18:38:05) 
;
_computing_molecular_graphics    'UCSF Chimera (Petterssen et al. 2004)'
_computing_publication_material  'SHELXL-2016 (Sheldrick, 2016)'
_computing_structure_refinement  'SHELXL-2016 (Sheldrick, 2016)'
_computing_structure_solution    'SUPERFLIP (Palatinus & Chapuis, 2007)'
_diffrn_ambient_temperature      170(2)
_diffrn_detector_area_resol_mean 16.0107
_diffrn_measured_fraction_theta_full 1.000
_diffrn_measured_fraction_theta_max 0.962
_diffrn_measurement_device       '\k-geometry diffractometer'
_diffrn_measurement_device_type  'SuperNova, Single source at offset, Eos'
_diffrn_measurement_method       '\f scans and \w scans with \k offset'
_diffrn_radiation_monochromator  mirror
_diffrn_radiation_type           MoK\a
_diffrn_radiation_wavelength     0.71073
_diffrn_reflns_av_R_equivalents  0.0551
_diffrn_reflns_av_unetI/netI     0.0455
_diffrn_reflns_Laue_measured_fraction_full 1.000
_diffrn_reflns_Laue_measured_fraction_max 0.962
_diffrn_reflns_limit_h_max       16
_diffrn_reflns_limit_h_min       -16
_diffrn_reflns_limit_k_max       16
_diffrn_reflns_limit_k_min       -16
_diffrn_reflns_limit_l_max       26
_diffrn_reflns_limit_l_min       -26
_diffrn_reflns_number            45879
_diffrn_reflns_point_group_measured_fraction_full 1.000
_diffrn_reflns_point_group_measured_fraction_max 0.962
_diffrn_reflns_theta_full        26.000
_diffrn_reflns_theta_max         37.403
_diffrn_reflns_theta_min         2.302
_diffrn_source                   micro-source
_exptl_absorpt_coefficient_mu    0.272
_exptl_absorpt_correction_T_max  0.957
_exptl_absorpt_correction_T_min  0.877
_exptl_absorpt_correction_type   analytical
_exptl_absorpt_process_details
;
CrysAlisPro, Agilent Technologies,
Version 1.171.37.31 (release 14-01-2014 CrysAlis171 .NET)
(compiled Jan 14 2014,18:38:05) 
Analytical numeric absorption correction using a multifaceted crystal
model based on expressions derived by R.C. Clark & J.S. Reid.
(Clark, R. C. & Reid, J. S. (1995). Acta Cryst. A51, 887-897)
Empirical absorption correction using spherical harmonics,
implemented in SCALE3 ABSPACK scaling algorithm.
;
_exptl_crystal_colour            yellow
_exptl_crystal_density_diffrn    0.667
_exptl_crystal_description       block
_exptl_crystal_F_000             268
_exptl_crystal_size_max          0.203
_exptl_crystal_size_mid          0.129
_exptl_crystal_size_min          0.056
_platon_squeeze_details
;
The contribution of the missing solvent to the calculated structure factors
was taken into account with the BYPASS algorithm (van der Sluis & Spek, 1990),
implemented as the SQUEEZE option in PLATON (Spek, 2015).
;
_refine_diff_density_max         0.397
_refine_diff_density_min         -0.701
_refine_diff_density_rms         0.042
_refine_ls_extinction_method     none
_refine_ls_goodness_of_fit_ref   1.054
_refine_ls_hydrogen_treatment    mixed
_refine_ls_matrix_type           full
_refine_ls_number_parameters     290
_refine_ls_number_reflns         12871
_refine_ls_number_restraints     0
_refine_ls_restrained_S_all      1.054
_refine_ls_R_factor_all          0.0463
_refine_ls_R_factor_gt           0.0363
_refine_ls_shift/su_max          0.002
_refine_ls_shift/su_mean         0.000
_refine_ls_structure_factor_coef Fsqd
_refine_ls_weighting_details
'w=1/[\s^2^(Fo^2^)+(0.0498P)^2^+0.0125P] where P=(Fo^2^+2Fc^2^)/3'
_refine_ls_weighting_scheme      calc
_refine_ls_wR_factor_gt          0.0932
_refine_ls_wR_factor_ref         0.1003
_reflns_Friedel_coverage         0.000
_reflns_number_gt                10891
_reflns_number_total             12871
_reflns_threshold_expression     'I > 2\s(I)'
_cod_data_source_file            c7dt00846e1.cif
_cod_data_source_block           2
_cod_original_cell_volume        1278.59(9)
_cod_database_code               7043031
_shelx_shelxl_version_number     2016/6
_shelx_space_group_comment
;
The symmetry employed for this shelxl refinement is uniquely defined
by the following loop, which should always be used as a source of
symmetry information in preference to the above space-group names.
They are only intended as comments.
;
_shelx_estimated_absorpt_t_min   0.947
_shelx_estimated_absorpt_t_max   0.985
_platon_squeeze_void_probe_radius 1.20
_shelx_res_file
;
TITL mkh142 in P-1 (CF, pale yellow block)
    2.res
    created by SHELXL-2016/6 at 11:22:04 on 09-Jan-2017
CELL 0.71073 9.695249 9.956381 15.303586 71.5163 80.7561 65.9515
ZERR 1 0.000376 0.000352 0.000548 0.0032 0.0031 0.0036
LATT 1
SFAC C H N O Mo
UNIT 24 35 1 5 1
L.S. 6
PLAN  20
SIZE 0.0563 0.1294 0.2027
TEMP -103
LIST 4
MORE -1
BOND $H
CONF
ABIN
fmap 2 53
acta 52
OMIT 3 -3 6
WGHT    0.049800    0.012500
FVAR      12.29300
MO1   5    0.736183    0.740430    0.539450    10.50000    0.01804    0.01797 =
         0.02377   -0.00521   -0.00267   -0.00543
O1    4    0.540811    0.814089    0.540793    10.50000    0.01930    0.02457 =
         0.03230   -0.00488   -0.00384   -0.00549
O2    4    0.794346    0.558919    0.529577    10.50000    0.02622    0.02286 =
         0.04187   -0.01287   -0.00157   -0.00789
O3    4    0.767247    0.685839    0.669742    10.50000    0.01980    0.02275 =
         0.02372   -0.00268   -0.00253   -0.00344
O4    4    0.772853    0.851666    0.415961    10.50000    0.02349    0.02891 =
         0.02265   -0.00453   -0.00329   -0.00973
O5    4    0.709192    0.977194    0.557203    10.50000    0.02459    0.02111 =
         0.02693   -0.00784   -0.00370   -0.00355
H5    2    0.657706    1.033933    0.518207    10.50000   -1.50000
N8    3    0.990696    0.702905    0.533579    10.50000    0.02033    0.01907 =
         0.02223   -0.00367   -0.00205   -0.00700
AFIX  13
H8    2    1.048271    0.602340    0.519735    10.50000   -1.20000
AFIX   0
C1    1    0.883249    0.567569    0.720910    10.50000    0.02040    0.02105 =
         0.02161   -0.00347   -0.00287   -0.00562
C2    1    0.853014    0.458252    0.797123    10.50000    0.02152    0.02678 =
         0.02119   -0.00300   -0.00089   -0.00907
C3    1    0.979104    0.338626    0.843519    10.50000    0.02476    0.02722 =
         0.02182    0.00043   -0.00193   -0.00967
AFIX  43
H3    2    0.961898    0.262577    0.894886    10.50000   -1.20000
AFIX   0
C4    1    1.127947    0.324927    0.818641    10.50000    0.02327    0.02469 =
         0.01952   -0.00285   -0.00320   -0.00755
C5    1    1.151401    0.440384    0.744828    10.50000    0.01995    0.02612 =
         0.02290   -0.00224   -0.00307   -0.00857
AFIX  43
H5A   2    1.251417    0.435841    0.727342    10.50000   -1.20000
AFIX   0
C6    1    1.030159    0.562213    0.696435    10.50000    0.02070    0.02265 =
         0.02235   -0.00218   -0.00343   -0.00839
C7    1    1.052965    0.690895    0.619628    10.50000    0.02481    0.02434 =
         0.02492   -0.00157   -0.00538   -0.01159
AFIX  23
H7A   2    1.001258    0.788420    0.636408    10.50000   -1.20000
H7B   2    1.162120    0.671350    0.609744    10.50000   -1.20000
AFIX   0
C9    1    1.015950    0.819596    0.452655    10.50000    0.02379    0.02374 =
         0.02175   -0.00188   -0.00159   -0.01041
AFIX  23
H9A   2    1.124213    0.786695    0.433032    10.50000   -1.20000
H9B   2    0.984308    0.918297    0.467178    10.50000   -1.20000
AFIX   0
C10   1    0.920024    0.836251    0.376434    10.50000    0.02571    0.02332 =
         0.02196   -0.00668   -0.00091   -0.00804
AFIX  13
H10   2    0.965002    0.741610    0.355046    10.50000   -1.20000
AFIX   0
C11   1    0.918663    0.972632    0.296313    10.50000    0.02775    0.02600 =
         0.02027   -0.00531   -0.00265   -0.00937
C12   1    1.051060    0.961964    0.241828    10.50000    0.03293    0.03629 =
         0.02491   -0.00556    0.00238   -0.00729
AFIX  43
H12   2    1.135238    0.867027    0.252110    10.50000   -1.20000
AFIX   0
C13   1    1.061217    1.087749    0.173131    10.50000    0.04070    0.04951 =
         0.02732   -0.00277    0.00327   -0.01812
AFIX  43
H13   2    1.152922    1.079023    0.137822    10.50000   -1.20000
AFIX   0
C14   1    0.938822    1.226023    0.155531    10.50000    0.04878    0.04046 =
         0.03201    0.00274   -0.00604   -0.02236
AFIX  43
H14   2    0.945436    1.312251    0.108124    10.50000   -1.20000
AFIX   0
C15   1    0.805331    1.236830    0.208591    10.50000    0.04019    0.02733 =
         0.03788    0.00074   -0.00940   -0.00979
AFIX  43
H15   2    0.720198    1.330972    0.196713    10.50000   -1.20000
AFIX   0
C16   1    0.795672    1.111273    0.278627    10.50000    0.02930    0.02701 =
         0.03094   -0.00546   -0.00245   -0.00937
AFIX  43
H16   2    0.704441    1.120452    0.314537    10.50000   -1.20000
AFIX   0
C17   1    0.690956    0.472087    0.830578    10.50000    0.02225    0.03777 =
         0.02666   -0.00321    0.00132   -0.01153
C18   1    0.604317    0.470325    0.755160    10.50000    0.02621    0.04083 =
         0.03829   -0.00834   -0.00005   -0.01512
AFIX 137
H18A  2    0.665246    0.382923    0.730846    10.50000   -1.50000
H18B  2    0.584230    0.565601    0.705156    10.50000   -1.50000
H18C  2    0.508373    0.461331    0.781511    10.50000   -1.50000
AFIX   0
C19   1    0.608707    0.622745    0.857636    10.50000    0.03210    0.06029 =
         0.04277   -0.02617    0.00991   -0.01527
AFIX 137
H19A  2    0.602304    0.709569    0.803256    10.50000   -1.50000
H19B  2    0.664849    0.623940    0.905043    10.50000   -1.50000
H19C  2    0.506612    0.630627    0.881832    10.50000   -1.50000
AFIX   0
C20   1    0.688939    0.338627    0.915532    10.50000    0.03139    0.06377 =
         0.03740    0.01024    0.00047   -0.02195
AFIX 137
H20A  2    0.742687    0.336477    0.965309    10.50000   -1.50000
H20B  2    0.738729    0.241736    0.899220    10.50000   -1.50000
H20C  2    0.584116    0.352780    0.936102    10.50000   -1.50000
AFIX   0
C21   1    1.261050    0.193922    0.874346    10.50000    0.02366    0.02640 =
         0.02340   -0.00021   -0.00451   -0.00602
C22   1    1.223070    0.053030    0.925670    10.50000    0.03987    0.02810 =
         0.03513    0.00421   -0.01132   -0.01098
AFIX 137
H22A  2    1.195392    0.016537    0.881266    10.50000   -1.50000
H22B  2    1.138177    0.080636    0.969623    10.50000   -1.50000
H22C  2    1.311359   -0.028158    0.958933    10.50000   -1.50000
AFIX   0
C23   1    1.399088    0.142608    0.810336    10.50000    0.03314    0.04068 =
         0.03982   -0.00002    0.00432    0.00371
AFIX 137
H23A  2    1.434772    0.226441    0.782498    10.50000   -1.50000
H23B  2    1.370968    0.115058    0.761653    10.50000   -1.50000
H23C  2    1.479760    0.053524    0.845941    10.50000   -1.50000
AFIX   0
C24   1    1.298710    0.253023    0.945174    10.50000    0.04073    0.04335 =
         0.04063   -0.00506   -0.01756   -0.01539
AFIX 137
H24A  2    1.209744    0.285640    0.985630    10.50000   -1.50000
H24B  2    1.327976    0.340122    0.912903    10.50000   -1.50000
H24C  2    1.382429    0.170999    0.982161    10.50000   -1.50000
AFIX   0
C25   1    0.639072    1.019032    0.640199    10.50000    0.04603    0.03304 =
         0.03155   -0.01594   -0.00008   -0.01016
AFIX 137
H25A  2    0.705619    0.953499    0.691844    10.50000   -1.50000
H25B  2    0.542397    1.005704    0.653125    10.50000   -1.50000
H25C  2    0.621509    1.126349    0.632075    10.50000   -1.50000
AFIX   0
HKLF 4




REM  mkh142 in P-1 (CF, pale yellow block)
REM R1 =  0.0363 for   10891 Fo > 4sig(Fo)  and  0.0463 for all   12871 data
REM    290 parameters refined using      0 restraints

END

WGHT      0.0498      0.0125

REM Highest difference peak  0.397,  deepest hole -0.701,  1-sigma level  0.042
Q1    1   0.7899  0.7839  0.3813  11.00000  0.05    0.40
Q2    1   0.7543  0.6181  0.5406  11.00000  0.05    0.25
Q3    1   1.0867  0.5077  0.7194  11.00000  0.05    0.21
Q4    1   0.7216  0.8629  0.5383  11.00000  0.05    0.21
Q5    1   0.9556  0.8338  0.4147  11.00000  0.05    0.20
Q6    1   0.8767  0.5000  0.7584  11.00000  0.05    0.20
Q7    1   0.6179  0.7615  0.5781  11.00000  0.05    0.19
Q8    1   0.7551  0.6558  0.4975  11.00000  0.05    0.18
Q9    1   0.7432  0.8480  0.4721  11.00000  0.05    0.18
Q10   1   0.7787  0.6978  0.6212  11.00000  0.05    0.18
Q11   1   1.0234  0.6434  0.6609  11.00000  0.05    0.17
Q12   1   0.7668  0.8217  0.4652  11.00000  0.05    0.17
Q13   1   0.9242  0.9020  0.3360  11.00000  0.05    0.17
Q14   1   0.6403  0.5425  0.8412  11.00000  0.05    0.17
Q15   1   1.1386  0.3815  0.7834  11.00000  0.05    0.16
Q16   1   1.6360 -0.0800  0.8207  11.00000  0.05    0.16
Q17   1   1.0414  1.0205  0.2032  11.00000  0.05    0.16
Q18   1   0.8006  1.1620  0.2386  11.00000  0.05    0.16
Q19   1   0.7400  0.4938  0.5399  11.00000  0.05    0.15
Q20   1   0.9574  0.5721  0.7054  11.00000  0.05    0.15
;
_shelx_res_checksum              23853
_shelx_fab_file
;
    1    0    0     -7.54      0.00
    2    0    0      4.63      0.00
    3    0    0     -1.77      0.00
    4    0    0      0.10      0.00
    5    0    0      0.40      0.00
    6    0    0     -0.27      0.00
    7    0    0     -0.03      0.00
    8    0    0      0.30      0.00
    9    0    0     -0.41      0.00
   10    0    0      0.37      0.00
   11    0    0     -0.28      0.00
   12    0    0      0.21      0.00
   13    0    0     -0.14      0.00
   14    0    0      0.04      0.00
   15    0    0      0.03      0.00
  -14    1    0      0.11      0.00
  -13    1    0     -0.05      0.00
  -12    1    0     -0.05      0.00
  -11    1    0      0.15      0.00
  -10    1    0     -0.28      0.00
   -9    1    0      0.44      0.00
   -8    1    0     -0.52      0.00
   -7    1    0      0.42      0.00
   -6    1    0     -0.13      0.00
   -5    1    0     -0.25      0.00
   -4    1    0      0.41      0.00
   -3    1    0      0.17      0.00
   -2    1    0     -2.00      0.00
   -1    1    0      4.78      0.00
    0    1    0     -7.18      0.00
    1    1    0      7.75      0.00
    2    1    0     -6.16      0.00
    3    1    0      3.52      0.00
    4    1    0     -1.26      0.00
    5    1    0      0.05      0.00
    6    1    0      0.31      0.00
    7    1    0     -0.24      0.00
    8    1    0     -0.01      0.00
    9    1    0      0.24      0.00
   10    1    0     -0.35      0.00
   11    1    0      0.32      0.00
   12    1    0     -0.26      0.00
   13    1    0      0.22      0.00
   14    1    0     -0.17      0.00
   15    1    0      0.10      0.00
  -14    2    0     -0.13      0.00
  -13    2    0      0.15      0.00
  -12    2    0     -0.10      0.00
  -11    2    0      0.01      0.00
  -10    2    0      0.12      0.00
   -9    2    0     -0.32      0.00
   -8    2    0      0.55      0.00
   -7    2    0     -0.67      0.00
   -6    2    0      0.58      0.00
   -5    2    0     -0.26      0.00
   -4    2    0     -0.17      0.00
   -3    2    0      0.42      0.00
   -2    2    0      0.02      0.00
   -1    2    0     -1.50      0.00
    0    2    0      3.63      0.00
    1    2    0     -5.29      0.00
    2    2    0      5.48      0.00
    3    2    0     -4.22      0.00
    4    2    0      2.39      0.00
    5    2    0     -0.92      0.00
    6    2    0      0.11      0.00
    7    2    0      0.17      0.00
    8    2    0     -0.13      0.00
    9    2    0     -0.06      0.00
   10    2    0      0.21      0.00
   11    2    0     -0.25      0.00
   12    2    0      0.22      0.00
   13    2    0     -0.18      0.00
   14    2    0      0.16      0.00
   15    2    0     -0.14      0.00
  -13    3    0     -0.08      0.00
  -12    3    0      0.11      0.00
  -11    3    0     -0.09      0.00
  -10    3    0      0.00      0.00
   -9    3    0      0.16      0.00
   -8    3    0     -0.40      0.00
   -7    3    0      0.66      0.00
   -6    3    0     -0.81      0.00
   -5    3    0      0.74      0.00
   -4    3    0     -0.42      0.00
   -3    3    0     -0.08      0.00
   -2    3    0      0.49      0.00
   -1    3    0     -0.37      0.00
    0    3    0     -0.58      0.00
    1    3    0      2.05      0.00
    2    3    0     -3.21      0.00
    3    3    0      3.42      0.00
    4    3    0     -2.72      0.00
    5    3    0      1.65      0.00
    6    3    0     -0.76      0.00
    7    3    0      0.22      0.00
    8    3    0      0.00      0.00
    9    3    0     -0.01      0.00
   10    3    0     -0.07      0.00
   11    3    0      0.13      0.00
   12    3    0     -0.13      0.00
   13    3    0      0.12      0.00
   14    3    0     -0.10      0.00
   15    3    0      0.09      0.00
   16    3    0     -0.07      0.00
  -12    4    0      0.01      0.00
  -11    4    0      0.05      0.00
  -10    4    0     -0.05      0.00
   -9    4    0     -0.03      0.00
   -8    4    0      0.21      0.00
   -7    4    0     -0.47      0.00
   -6    4    0      0.74      0.00
   -5    4    0     -0.90      0.00
   -4    4    0      0.85      0.00
   -3    4    0     -0.53      0.00
   -2    4    0     -0.04      0.00
   -1    4    0      0.58      0.00
    0    4    0     -0.67      0.00
    1    4    0      0.08      0.00
    2    4    0      0.95      0.00
    3    4    0     -1.83      0.00
    4    4    0      2.10      0.00
    5    4    0     -1.78      0.00
    6    4    0      1.21      0.00
    7    4    0     -0.68      0.00
    8    4    0      0.30      0.00
    9    4    0     -0.10      0.00
   10    4    0      0.02      0.00
   11    4    0     -0.01      0.00
   12    4    0      0.04      0.00
   13    4    0     -0.08      0.00
   14    4    0      0.09      0.00
   15    4    0     -0.06      0.00
  -12    5    0     -0.10      0.00
  -11    5    0      0.03      0.00
  -10    5    0      0.03      0.00
   -9    5    0     -0.02      0.00
   -8    5    0     -0.07      0.00
   -7    5    0      0.24      0.00
   -6    5    0     -0.48      0.00
   -5    5    0      0.73      0.00
   -4    5    0     -0.89      0.00
   -3    5    0      0.85      0.00
   -2    5    0     -0.51      0.00
   -1    5    0     -0.04      0.00
    0    5    0      0.55      0.00
    1    5    0     -0.67      0.00
    2    5    0      0.26      0.00
    3    5    0      0.45      0.00
    4    5    0     -1.07      0.00
    5    5    0      1.32      0.00
    6    5    0     -1.23      0.00
    7    5    0      0.94      0.00
    8    5    0     -0.60      0.00
    9    5    0      0.29      0.00
   10    5    0     -0.06      0.00
   11    5    0     -0.05      0.00
   12    5    0      0.04      0.00
   13    5    0      0.04      0.00
   14    5    0     -0.11      0.00
   15    5    0      0.10      0.00
  -11    6    0     -0.06      0.00
  -10    6    0      0.02      0.00
   -9    6    0      0.01      0.00
   -8    6    0      0.00      0.00
   -7    6    0     -0.07      0.00
   -6    6    0      0.19      0.00
   -5    6    0     -0.39      0.00
   -4    6    0      0.61      0.00
   -3    6    0     -0.76      0.00
   -2    6    0      0.71      0.00
   -1    6    0     -0.40      0.00
    0    6    0     -0.06      0.00
    1    6    0      0.45      0.00
    2    6    0     -0.52      0.00
    3    6    0      0.23      0.00
    4    6    0      0.24      0.00
    5    6    0     -0.66      0.00
    6    6    0      0.89      0.00
    7    6    0     -0.91      0.00
    8    6    0      0.75      0.00
    9    6    0     -0.47      0.00
   10    6    0      0.17      0.00
   11    6    0      0.03      0.00
   12    6    0     -0.08      0.00
   13    6    0      0.01      0.00
   14    6    0      0.09      0.00
   15    6    0     -0.14      0.00
  -10    7    0     -0.05      0.00
   -9    7    0      0.04      0.00
   -8    7    0     -0.01      0.00
   -7    7    0     -0.01      0.00
   -6    7    0      0.00      0.00
   -5    7    0      0.07      0.00
   -4    7    0     -0.24      0.00
   -3    7    0      0.44      0.00
   -2    7    0     -0.58      0.00
   -1    7    0      0.53      0.00
    0    7    0     -0.28      0.00
    1    7    0     -0.07      0.00
    2    7    0      0.34      0.00
    3    7    0     -0.36      0.00
    4    7    0      0.15      0.00
    5    7    0      0.17      0.00
    6    7    0     -0.46      0.00
    7    7    0      0.65      0.00
    8    7    0     -0.69      0.00
    9    7    0      0.56      0.00
   10    7    0     -0.32      0.00
   11    7    0      0.08      0.00
   12    7    0      0.05      0.00
   13    7    0     -0.04      0.00
   14    7    0     -0.05      0.00
   15    7    0      0.13      0.00
   -9    8    0     -0.08      0.00
   -8    8    0      0.05      0.00
   -7    8    0      0.02      0.00
   -6    8    0     -0.08      0.00
   -5    8    0      0.09      0.00
   -4    8    0     -0.02      0.00
   -3    8    0     -0.13      0.00
   -2    8    0      0.32      0.00
   -1    8    0     -0.45      0.00
    0    8    0      0.43      0.00
    1    8    0     -0.24      0.00
    2    8    0     -0.02      0.00
    3    8    0      0.20      0.00
    4    8    0     -0.19      0.00
    5    8    0      0.04      0.00
    6    8    0      0.15      0.00
    7    8    0     -0.32      0.00
    8    8    0      0.45      0.00
    9    8    0     -0.49      0.00
   10    8    0      0.41      0.00
   11    8    0     -0.23      0.00
   12    8    0      0.06      0.00
   13    8    0      0.01      0.00
   14    8    0      0.02      0.00
   15    8    0     -0.09      0.00
   -8    9    0     -0.06      0.00
   -7    9    0     -0.01      0.00
   -6    9    0      0.08      0.00
   -5    9    0     -0.11      0.00
   -4    9    0      0.10      0.00
   -3    9    0     -0.04      0.00
   -2    9    0     -0.09      0.00
   -1    9    0      0.27      0.00
    0    9    0     -0.40      0.00
    1    9    0      0.41      0.00
    2    9    0     -0.26      0.00
    3    9    0      0.06      0.00
    4    9    0      0.07      0.00
    5    9    0     -0.08      0.00
    6    9    0      0.01      0.00
    7    9    0      0.07      0.00
    8    9    0     -0.16      0.00
    9    9    0      0.27      0.00
   10    9    0     -0.34      0.00
   11    9    0      0.31      0.00
   12    9    0     -0.18      0.00
   13    9    0      0.06      0.00
   14    9    0     -0.02      0.00
   15    9    0      0.05      0.00
   -7   10    0      0.01      0.00
   -6   10    0     -0.05      0.00
   -5   10    0      0.06      0.00
   -4   10    0     -0.07      0.00
   -3   10    0      0.07      0.00
   -2   10    0     -0.04      0.00
   -1   10    0     -0.06      0.00
    0   10    0      0.21      0.00
    1   10    0     -0.34      0.00
    2   10    0      0.36      0.00
    3   10    0     -0.25      0.00
    4   10    0      0.09      0.00
    5   10    0      0.02      0.00
    6   10    0     -0.06      0.00
    7   10    0      0.05      0.00
    8   10    0     -0.03      0.00
    9   10    0     -0.03      0.00
   10   10    0      0.14      0.00
   11   10    0     -0.22      0.00
   12   10    0      0.20      0.00
   13   10    0     -0.10      0.00
   14   10    0      0.02      0.00
   15   10    0     -0.02      0.00
   -6   11    0      0.02      0.00
   -5   11    0     -0.02      0.00
   -4   11    0      0.02      0.00
   -3   11    0     -0.05      0.00
   -2   11    0      0.08      0.00
   -1   11    0     -0.08      0.00
    0   11    0     -0.00      0.00
    1   11    0      0.12      0.00
    2   11    0     -0.22      0.00
    3   11    0      0.24      0.00
    4   11    0     -0.17      0.00
    5   11    0      0.05      0.00
    6   11    0      0.02      0.00
    7   11    0     -0.05      0.00
    8   11    0      0.07      0.00
    9   11    0     -0.07      0.00
   10   11    0      0.03      0.00
   11   11    0      0.05      0.00
   12   11    0     -0.09      0.00
   13   11    0      0.05      0.00
   14   11    0      0.01      0.00
   15   11    0     -0.03      0.00
   -5   12    0     -0.00      0.00
   -4   12    0      0.01      0.00
   -3   12    0      0.02      0.00
   -2   12    0     -0.07      0.00
   -1   12    0      0.10      0.00
    0   12    0     -0.08      0.00
    1   12    0      0.03      0.00
    2   12    0      0.04      0.00
    3   12    0     -0.11      0.00
    4   12    0      0.14      0.00
    5   12    0     -0.10      0.00
    6   12    0      0.03      0.00
    7   12    0      0.01      0.00
    8   12    0     -0.03      0.00
    9   12    0      0.05      0.00
   10   12    0     -0.07      0.00
   11   12    0      0.07      0.00
   12   12    0     -0.05      0.00
   13   12    0      0.05      0.00
   14   12    0     -0.07      0.00
   -3   13    0     -0.02      0.00
   -2   13    0      0.04      0.00
   -1   13    0     -0.06      0.00
    0   13    0      0.05      0.00
    1   13    0     -0.04      0.00
    2   13    0      0.03      0.00
    3   13    0      0.02      0.00
    4   13    0     -0.07      0.00
    5   13    0      0.09      0.00
    6   13    0     -0.05      0.00
    7   13    0      0.00      0.00
    8   13    0      0.02      0.00
    9   13    0     -0.01      0.00
   10   13    0      0.01      0.00
   11   13    0     -0.06      0.00
   12   13    0      0.11      0.00
   13   13    0     -0.13      0.00
   -1   14    0      0.01      0.00
    0   14    0     -0.00      0.00
    1   14    0     -0.00      0.00
    2   14    0      0.00      0.00
    3   14    0     -0.01      0.00
    4   14    0      0.03      0.00
    5   14    0     -0.05      0.00
    6   14    0      0.03      0.00
    7   14    0      0.03      0.00
    8   14    0     -0.06      0.00
    9   14    0      0.03      0.00
   10   14    0      0.01      0.00
   11   14    0     -0.00      0.00
   12   14    0     -0.06      0.00
    1   15    0      0.01      0.00
    2   15    0     -0.02      0.00
    3   15    0      0.03      0.00
    4   15    0     -0.03      0.00
    5   15    0      0.02      0.00
    6   15    0      0.01      0.00
    7   15    0     -0.06      0.00
    8   15    0      0.09      0.00
    9   15    0     -0.08      0.00
   10   15    0      0.02      0.00
   11   15    0      0.01      0.00
    6   16    0     -0.03      0.00
  -10  -15    1     -0.01      0.00
   -9  -15    1      0.05      0.00
   -8  -15    1     -0.07      0.00
   -7  -15    1      0.05      0.00
   -6  -15    1     -0.02      0.00
   -5  -15    1     -0.02      0.00
   -4  -15    1      0.04      0.00
   -3  -15    1     -0.03      0.00
   -2  -15    1      0.02      0.00
  -12  -14    1      0.07      0.00
  -11  -14    1     -0.01      0.00
  -10  -14    1     -0.00      0.00
   -9  -14    1     -0.02      0.00
   -8  -14    1      0.05      0.00
   -7  -14    1     -0.03      0.00
   -6  -14    1     -0.01      0.00
   -5  -14    1      0.04      0.00
   -4  -14    1     -0.03      0.00
   -3  -14    1      0.01      0.00
   -2  -14    1     -0.01      0.00
   -1  -14    1      0.01      0.00
    0  -14    1     -0.02      0.00
    1  -14    1      0.02      0.00
  -13  -13    1      0.15      0.00
  -12  -13    1     -0.13      0.00
  -11  -13    1      0.08      0.00
  -10  -13    1     -0.04      0.00
   -9  -13    1      0.02      0.00
   -8  -13    1     -0.03      0.00
   -7  -13    1      0.01      0.00
   -6  -13    1      0.04      0.00
   -5  -13    1     -0.07      0.00
   -4  -13    1      0.05      0.00
   -3  -13    1     -0.00      0.00
   -2  -13    1     -0.03      0.00
   -1  -13    1      0.04      0.00
    0  -13    1     -0.03      0.00
    1  -13    1      0.03      0.00
    2  -13    1     -0.02      0.00
    3  -13    1      0.02      0.00
  -14  -12    1      0.09      0.00
  -13  -12    1     -0.09      0.00
  -12  -12    1      0.09      0.00
  -11  -12    1     -0.10      0.00
  -10  -12    1      0.09      0.00
   -9  -12    1     -0.07      0.00
   -8  -12    1      0.05      0.00
   -7  -12    1     -0.03      0.00
   -6  -12    1     -0.02      0.00
   -5  -12    1      0.07      0.00
   -4  -12    1     -0.10      0.00
   -3  -12    1      0.07      0.00
   -2  -12    1     -0.00      0.00
   -1  -12    1     -0.06      0.00
    0  -12    1      0.09      0.00
    1  -12    1     -0.09      0.00
    2  -12    1      0.07      0.00
    3  -12    1     -0.03      0.00
    4  -12    1     -0.00      0.00
    5  -12    1      0.01      0.00
  -14  -11    1     -0.02      0.00
  -13  -11    1     -0.02      0.00
  -12  -11    1      0.06      0.00
  -11  -11    1     -0.04      0.00
  -10  -11    1     -0.03      0.00
   -9  -11    1      0.08      0.00
   -8  -11    1     -0.08      0.00
   -7  -11    1      0.07      0.00
   -6  -11    1     -0.05      0.00
   -5  -11    1     -0.01      0.00
   -4  -11    1      0.11      0.00
   -3  -11    1     -0.17      0.00
   -2  -11    1      0.16      0.00
   -1  -11    1     -0.07      0.00
    0  -11    1     -0.03      0.00
    1  -11    1      0.10      0.00
    2  -11    1     -0.10      0.00
    3  -11    1      0.06      0.00
    4  -11    1     -0.01      0.00
    5  -11    1      0.00      0.00
    6  -11    1     -0.01      0.00
  -15  -10    1      0.05      0.00
  -14  -10    1     -0.03      0.00
  -13  -10    1      0.09      0.00
  -12  -10    1     -0.18      0.00
  -11  -10    1      0.22      0.00
  -10  -10    1     -0.16      0.00
   -9  -10    1      0.05      0.00
   -8  -10    1      0.03      0.00
   -7  -10    1     -0.06      0.00
   -6  -10    1      0.08      0.00
   -5  -10    1     -0.06      0.00
   -4  -10    1     -0.04      0.00
   -3  -10    1      0.19      0.00
   -2  -10    1     -0.30      0.00
   -1  -10    1      0.29      0.00
    0  -10    1     -0.17      0.00
    1  -10    1      0.03      0.00
    2  -10    1      0.05      0.00
    3  -10    1     -0.07      0.00
    4  -10    1      0.06      0.00
    5  -10    1     -0.05      0.00
    6  -10    1      0.04      0.00
    7  -10    1     -0.02      0.00
  -15   -9    1     -0.08      0.00
  -14   -9    1      0.04      0.00
  -13   -9    1     -0.05      0.00
  -12   -9    1      0.16      0.00
  -11   -9    1     -0.29      0.00
  -10   -9    1      0.34      0.00
   -9   -9    1     -0.28      0.00
   -8   -9    1      0.17      0.00
   -7   -9    1     -0.07      0.00
   -6   -9    1     -0.01      0.00
   -5   -9    1      0.07      0.00
   -4   -9    1     -0.07      0.00
   -3   -9    1     -0.05      0.00
   -2   -9    1      0.24      0.00
   -1   -9    1     -0.38      0.00
    0   -9    1      0.38      0.00
    1   -9    1     -0.25      0.00
    2   -9    1      0.09      0.00
    3   -9    1      0.02      0.00
    4   -9    1     -0.08      0.00
    5   -9    1      0.09      0.00
    6   -9    1     -0.08      0.00
    7   -9    1      0.02      0.00
    8   -9    1      0.04      0.00
  -15   -8    1      0.11      0.00
  -14   -8    1     -0.04      0.00
  -13   -8    1     -0.02      0.00
  -12   -8    1     -0.02      0.00
  -11   -8    1      0.17      0.00
  -10   -8    1     -0.35      0.00
   -9   -8    1      0.44      0.00
   -8   -8    1     -0.42      0.00
   -7   -8    1      0.32      0.00
   -6   -8    1     -0.18      0.00
   -5   -8    1      0.00      0.00
   -4   -8    1      0.15      0.00
   -3   -8    1     -0.17      0.00
   -2   -8    1      0.02      0.00
   -1   -8    1      0.22      0.00
    0   -8    1     -0.39      0.00
    1   -8    1      0.42      0.00
    2   -8    1     -0.30      0.00
    3   -8    1      0.13      0.00
    4   -8    1      0.00      0.00
    5   -8    1     -0.08      0.00
    6   -8    1      0.09      0.00
    7   -8    1     -0.03      0.00
    8   -8    1     -0.05      0.00
    9   -8    1      0.09      0.00
  -15   -7    1     -0.14      0.00
  -14   -7    1      0.07      0.00
  -13   -7    1      0.04      0.00
  -12   -7    1     -0.09      0.00
  -11   -7    1      0.01      0.00
  -10   -7    1      0.20      0.00
   -9   -7    1     -0.45      0.00
   -8   -7    1      0.60      0.00
   -7   -7    1     -0.60      0.00
   -6   -7    1      0.47      0.00
   -5   -7    1     -0.22      0.00
   -4   -7    1     -0.09      0.00
   -3   -7    1      0.32      0.00
   -2   -7    1     -0.33      0.00
   -1   -7    1      0.11      0.00
    0   -7    1      0.21      0.00
    1   -7    1     -0.44      0.00
    2   -7    1      0.49      0.00
    3   -7    1     -0.39      0.00
    4   -7    1      0.21      0.00
    5   -7    1     -0.06      0.00
    6   -7    1     -0.02      0.00
    7   -7    1      0.02      0.00
    8   -7    1      0.03      0.00
    9   -7    1     -0.07      0.00
   10   -7    1      0.07      0.00
  -15   -6    1      0.14      0.00
  -14   -6    1     -0.12      0.00
  -13   -6    1      0.01      0.00
  -12   -6    1      0.11      0.00
  -11   -6    1     -0.12      0.00
  -10   -6    1     -0.04      0.00
   -9   -6    1      0.32      0.00
   -8   -6    1     -0.61      0.00
   -7   -6    1      0.80      0.00
   -6   -6    1     -0.83      0.00
   -5   -6    1      0.66      0.00
   -4   -6    1     -0.28      0.00
   -3   -6    1     -0.18      0.00
   -2   -6    1      0.49      0.00
   -1   -6    1     -0.46      0.00
    0   -6    1      0.13      0.00
    1   -6    1      0.28      0.00
    2   -6    1     -0.56      0.00
    3   -6    1      0.63      0.00
    4   -6    1     -0.53      0.00
    5   -6    1      0.34      0.00
    6   -6    1     -0.16      0.00
    7   -6    1      0.06      0.00
    8   -6    1     -0.03      0.00
    9   -6    1      0.03      0.00
   10   -6    1     -0.04      0.00
   11   -6    1      0.05      0.00
  -15   -5    1     -0.08      0.00
  -14   -5    1      0.12      0.00
  -13   -5    1     -0.07      0.00
  -12   -5    1     -0.04      0.00
  -11   -5    1      0.11      0.00
  -10   -5    1     -0.06      0.00
   -9   -5    1     -0.15      0.00
   -8   -5    1      0.45      0.00
   -7   -5    1     -0.79      0.00
   -6   -5    1      1.10      0.00
   -5   -5    1     -1.24      0.00
   -4   -5    1      1.05      0.00
   -3   -5    1     -0.48      0.00
   -2   -5    1     -0.20      0.00
   -1   -5    1      0.62      0.00
    0   -5    1     -0.55      0.00
    1   -5    1      0.12      0.00
    2   -5    1      0.37      0.00
    3   -5    1     -0.69      0.00
    4   -5    1      0.77      0.00
    5   -5    1     -0.65      0.00
    6   -5    1      0.44      0.00
    7   -5    1     -0.23      0.00
    8   -5    1      0.08      0.00
    9   -5    1     -0.00      0.00
   10   -5    1     -0.02      0.00
   11   -5    1     -0.02      0.00
   12   -5    1      0.07      0.00
  -15   -4    1      0.02      0.00
  -14   -4    1     -0.08      0.00
  -13   -4    1      0.09      0.00
  -12   -4    1     -0.05      0.00
  -11   -4    1     -0.02      0.00
  -10   -4    1      0.05      0.00
   -9   -4    1      0.00      0.00
   -8   -4    1     -0.18      0.00
   -7   -4    1      0.52      0.00
   -6   -4    1     -1.03      0.00
   -5   -4    1      1.61      0.00
   -4   -4    1     -1.97      0.00
   -3   -4    1      1.74      0.00
   -2   -4    1     -0.91      0.00
   -1   -4    1     -0.08      0.00
    0   -4    1      0.65      0.00
    1   -4    1     -0.59      0.00
    2   -4    1      0.11      0.00
    3   -4    1      0.39      0.00
    4   -4    1     -0.72      0.00
    5   -4    1      0.81      0.00
    6   -4    1     -0.70      0.00
    7   -4    1      0.46      0.00
    8   -4    1     -0.23      0.00
    9   -4    1      0.06      0.00
   10   -4    1      0.03      0.00
   11   -4    1     -0.06      0.00
   12   -4    1      0.02      0.00
  -15   -3    1     -0.03      0.00
  -14   -3    1      0.06      0.00
  -13   -3    1     -0.09      0.00
  -12   -3    1      0.12      0.00
  -11   -3    1     -0.11      0.00
  -10   -3    1      0.05      0.00
   -9   -3    1      0.04      0.00
   -8   -3    1     -0.06      0.00
   -7   -3    1     -0.10      0.00
   -6   -3    1      0.57      0.00
   -5   -3    1     -1.41      0.00
   -4   -3    1      2.43      0.00
   -3   -3    1     -3.09      0.00
   -2   -3    1      2.87      0.00
   -1   -3    1     -1.76      0.00
    0   -3    1      0.42      0.00
    1   -3    1      0.41      0.00
    2   -3    1     -0.50      0.00
    3   -3    1      0.13      0.00
    4   -3    1      0.33      0.00
    5   -3    1     -0.65      0.00
    6   -3    1      0.76      0.00
    7   -3    1     -0.65      0.00
    8   -3    1      0.42      0.00
    9   -3    1     -0.19      0.00
   10   -3    1      0.03      0.00
   11   -3    1      0.07      0.00
   12   -3    1     -0.12      0.00
   13   -3    1      0.09      0.00
  -15   -2    1      0.08      0.00
  -14   -2    1     -0.10      0.00
  -13   -2    1      0.13      0.00
  -12   -2    1     -0.19      0.00
  -11   -2    1      0.25      0.00
  -10   -2    1     -0.22      0.00
   -9   -2    1      0.07      0.00
   -8   -2    1      0.14      0.00
   -7   -2    1     -0.24      0.00
   -6   -2    1      0.05      0.00
   -5   -2    1      0.64      0.00
   -4   -2    1     -1.97      0.00
   -3   -2    1      3.63      0.00
   -2   -2    1     -4.78      0.00
   -1   -2    1      4.61      0.00
    0   -2    1     -3.17      0.00
    1   -2    1      1.33      0.00
    2   -2    1     -0.05      0.00
    3   -2    1     -0.36      0.00
    4   -2    1      0.17      0.00
    5   -2    1      0.21      0.00
    6   -2    1     -0.53      0.00
    7   -2    1      0.65      0.00
    8   -2    1     -0.56      0.00
    9   -2    1      0.36      0.00
   10   -2    1     -0.17      0.00
   11   -2    1      0.03      0.00
   12   -2    1      0.09      0.00
   13   -2    1     -0.17      0.00
   14   -2    1      0.16      0.00
  -15   -1    1     -0.08      0.00
  -14   -1    1      0.13      0.00
  -13   -1    1     -0.17      0.00
  -12   -1    1      0.22      0.00
  -11   -1    1     -0.31      0.00
  -10   -1    1      0.37      0.00
   -9   -1    1     -0.28      0.00
   -8   -1    1      0.04      0.00
   -7   -1    1      0.25      0.00
   -6   -1    1     -0.41      0.00
   -5   -1    1      0.18      0.00
   -4   -1    1      0.84      0.00
   -3   -1    1     -2.85      0.00
   -2   -1    1      5.29      0.00
   -1   -1    1     -6.86      0.00
    0   -1    1      6.53      0.00
    1   -1    1     -4.52      0.00
    2   -1    1      2.07      0.00
    3   -1    1     -0.37      0.00
    4   -1    1     -0.27      0.00
    5   -1    1      0.20      0.00
    6   -1    1      0.12      0.00
    7   -1    1     -0.41      0.00
    8   -1    1      0.52      0.00
    9   -1    1     -0.45      0.00
   10   -1    1      0.31      0.00
   11   -1    1     -0.20      0.00
   12   -1    1      0.08      0.00
   13   -1    1      0.06      0.00
   14   -1    1     -0.16      0.00
  -15    0    1      0.01      0.00
  -14    0    1     -0.06      0.00
  -13    0    1      0.13      0.00
  -12    0    1     -0.18      0.00
  -11    0    1      0.27      0.00
  -10    0    1     -0.39      0.00
   -9    0    1      0.45      0.00
   -8    0    1     -0.33      0.00
   -7    0    1      0.05      0.00
   -6    0    1      0.30      0.00
   -5    0    1     -0.53      0.00
   -4    0    1      0.21      0.00
   -3    0    1      1.24      0.00
   -2    0    1     -3.92      0.00
   -1    0    1      6.81      0.00
    1    0    1      7.38      0.00
    2    0    1     -4.81      0.00
    3    0    1      2.12      0.00
    4    0    1     -0.40      0.00
    5    0    1     -0.22      0.00
    6    0    1      0.21      0.00
    7    0    1      0.04      0.00
    8    0    1     -0.29      0.00
    9    0    1      0.39      0.00
   10    0    1     -0.37      0.00
   11    0    1      0.31      0.00
   12    0    1     -0.25      0.00
   13    0    1      0.15      0.00
   14    0    1     -0.02      0.00
  -14    1    1     -0.05      0.00
  -13    1    1      0.01      0.00
  -12    1    1      0.05      0.00
  -11    1    1     -0.13      0.00
  -10    1    1      0.26      0.00
   -9    1    1     -0.44      0.00
   -8    1    1      0.53      0.00
   -7    1    1     -0.44      0.00
   -6    1    1      0.15      0.00
   -5    1    1      0.27      0.00
   -4    1    1     -0.54      0.00
   -3    1    1      0.09      0.00
   -2    1    1      1.63      0.00
   -1    1    1     -4.44      0.00
    0    1    1      7.02      0.00
    1    1    1     -7.83      0.00
    2    1    1      6.47      0.00
    3    1    1     -3.94      0.00
    4    1    1      1.66      0.00
    5    1    1     -0.33      0.00
    6    1    1     -0.16      0.00
    7    1    1      0.18      0.00
    8    1    1      0.01      0.00
    9    1    1     -0.21      0.00
   10    1    1      0.32      0.00
   11    1    1     -0.33      0.00
   12    1    1      0.30      0.00
   13    1    1     -0.27      0.00
   14    1    1      0.19      0.00
   15    1    1     -0.08      0.00
  -13    2    1     -0.10      0.00
  -12    2    1      0.08      0.00
  -11    2    1     -0.02      0.00
  -10    2    1     -0.09      0.00
   -9    2    1      0.29      0.00
   -8    2    1     -0.53      0.00
   -7    2    1      0.67      0.00
   -6    2    1     -0.60      0.00
   -5    2    1      0.30      0.00
   -4    2    1      0.16      0.00
   -3    2    1     -0.46      0.00
   -2    2    1      0.05      0.00
   -1    2    1      1.48      0.00
    0    2    1     -3.74      0.00
    1    2    1      5.53      0.00
    2    2    1     -5.81      0.00
    3    2    1      4.57      0.00
    4    2    1     -2.73      0.00
    5    2    1      1.21      0.00
    6    2    1     -0.31      0.00
    7    2    1     -0.06      0.00
    8    2    1      0.10      0.00
    9    2    1      0.04      0.00
   10    2    1     -0.19      0.00
   11    2    1      0.25      0.00
   12    2    1     -0.25      0.00
   13    2    1      0.24      0.00
   14    2    1     -0.21      0.00
   15    2    1      0.16      0.00
  -13    3    1      0.04      0.00
  -12    3    1     -0.08      0.00
  -11    3    1      0.08      0.00
  -10    3    1     -0.03      0.00
   -9    3    1     -0.12      0.00
   -8    3    1      0.37      0.00
   -7    3    1     -0.65      0.00
   -6    3    1      0.82      0.00
   -5    3    1     -0.78      0.00
   -4    3    1      0.49      0.00
   -3    3    1      0.01      0.00
   -2    3    1     -0.43      0.00
   -1    3    1      0.28      0.00
    0    3    1      0.73      0.00
    1    3    1     -2.24      0.00
    2    3    1      3.42      0.00
    3    3    1     -3.62      0.00
    4    3    1      2.92      0.00
    5    3    1     -1.87      0.00
    6    3    1      0.95      0.00
    7    3    1     -0.36      0.00
    8    3    1      0.07      0.00
    9    3    1     -0.02      0.00
   10    3    1      0.09      0.00
   11    3    1     -0.14      0.00
   12    3    1      0.15      0.00
   13    3    1     -0.15      0.00
   14    3    1      0.15      0.00
   15    3    1     -0.14      0.00
   16    3    1      0.11      0.00
  -13    4    1      0.08      0.00
  -12    4    1     -0.03      0.00
  -11    4    1     -0.03      0.00
  -10    4    1      0.05      0.00
   -9    4    1      0.01      0.00
   -8    4    1     -0.19      0.00
   -7    4    1      0.45      0.00
   -6    4    1     -0.74      0.00
   -5    4    1      0.94      0.00
   -4    4    1     -0.94      0.00
   -3    4    1      0.64      0.00
   -2    4    1     -0.07      0.00
   -1    4    1     -0.47      0.00
    0    4    1      0.58      0.00
    1    4    1      0.00      0.00
    2    4    1     -1.00      0.00
    3    4    1      1.86      0.00
    4    4    1     -2.15      0.00
    5    4    1      1.89      0.00
    6    4    1     -1.36      0.00
    7    4    1      0.82      0.00
    8    4    1     -0.42      0.00
    9    4    1      0.18      0.00
   10    4    1     -0.08      0.00
   11    4    1      0.05      0.00
   12    4    1     -0.06      0.00
   13    4    1      0.08      0.00
   14    4    1     -0.11      0.00
   15    4    1      0.10      0.00
  -12    5    1      0.12      0.00
  -11    5    1     -0.06      0.00
  -10    5    1     -0.02      0.00
   -9    5    1      0.03      0.00
   -8    5    1      0.05      0.00
   -7    5    1     -0.22      0.00
   -6    5    1      0.48      0.00
   -5    5    1     -0.77      0.00
   -4    5    1      0.98      0.00
   -3    5    1     -0.98      0.00
   -2    5    1      0.66      0.00
   -1    5    1     -0.08      0.00
    0    5    1     -0.47      0.00
    1    5    1      0.64      0.00
    2    5    1     -0.28      0.00
    3    5    1     -0.40      0.00
    4    5    1      1.03      0.00
    5    5    1     -1.34      0.00
    6    5    1      1.32      0.00
    7    5    1     -1.07      0.00
    8    5    1      0.74      0.00
    9    5    1     -0.42      0.00
   10    5    1      0.17      0.00
   11    5    1     -0.02      0.00
   12    5    1     -0.02      0.00
   13    5    1     -0.02      0.00
   14    5    1      0.09      0.00
   15    5    1     -0.11      0.00
   16    5    1      0.05      0.00
  -11    6    1      0.09      0.00
  -10    6    1     -0.02      0.00
   -9    6    1     -0.03      0.00
   -8    6    1      0.02      0.00
   -7    6    1      0.05      0.00
   -6    6    1     -0.20      0.00
   -5    6    1      0.42      0.00
   -4    6    1     -0.69      0.00
   -3    6    1      0.88      0.00
   -2    6    1     -0.86      0.00
   -1    6    1      0.54      0.00
    0    6    1     -0.05      0.00
    1    6    1     -0.38      0.00
    2    6    1      0.51      0.00
    3    6    1     -0.27      0.00
    4    6    1     -0.18      0.00
    5    6    1      0.62      0.00
    6    6    1     -0.91      0.00
    7    6    1      0.99      0.00
    8    6    1     -0.87      0.00
    9    6    1      0.62      0.00
   10    6    1     -0.32      0.00
   11    6    1      0.08      0.00
   12    6    1      0.04      0.00
   13    6    1     -0.03      0.00
   14    6    1     -0.06      0.00
   15    6    1      0.12      0.00
   16    6    1     -0.10      0.00
  -10    7    1      0.04      0.00
   -9    7    1     -0.01      0.00
   -8    7    1     -0.01      0.00
   -7    7    1      0.02      0.00
   -6    7    1      0.01      0.00
   -5    7    1     -0.09      0.00
   -4    7    1      0.27      0.00
   -3    7    1     -0.51      0.00
   -2    7    1      0.68      0.00
   -1    7    1     -0.65      0.00
    0    7    1      0.39      0.00
    1    7    1     -0.02      0.00
    2    7    1     -0.29      0.00
    3    7    1      0.36      0.00
    4    7    1     -0.20      0.00
    5    7    1     -0.11      0.00
    6    7    1      0.43      0.00
    7    7    1     -0.67      0.00
    8    7    1      0.76      0.00
    9    7    1     -0.67      0.00
   10    7    1      0.45      0.00
   11    7    1     -0.19      0.00
   12    7    1      0.01      0.00
   13    7    1      0.04      0.00
   14    7    1      0.00      0.00
   15    7    1     -0.09      0.00
   16    7    1      0.13      0.00
   -9    8    1      0.05      0.00
   -8    8    1     -0.04      0.00
   -7    8    1     -0.01      0.00
   -6    8    1      0.06      0.00
   -5    8    1     -0.08      0.00
   -4    8    1      0.02      0.00
   -3    8    1      0.14      0.00
   -2    8    1     -0.36      0.00
   -1    8    1      0.51      0.00
    0    8    1     -0.49      0.00
    1    8    1      0.30      0.00
    2    8    1     -0.02      0.00
    3    8    1     -0.18      0.00
    4    8    1      0.22      0.00
    5    8    1     -0.10      0.00
    6    8    1     -0.09      0.00
    7    8    1      0.30      0.00
    8    8    1     -0.47      0.00
    9    8    1      0.53      0.00
   10    8    1     -0.47      0.00
   11    8    1      0.31      0.00
   12    8    1     -0.12      0.00
   13    8    1      0.00      0.00
   14    8    1      0.02      0.00
   15    8    1      0.04      0.00
   16    8    1     -0.10      0.00
   -9    9    1     -0.07      0.00
   -8    9    1      0.07      0.00
   -7    9    1     -0.02      0.00
   -6    9    1     -0.05      0.00
   -5    9    1      0.11      0.00
   -4    9    1     -0.12      0.00
   -3    9    1      0.06      0.00
   -2    9    1      0.09      0.00
   -1    9    1     -0.28      0.00
    0    9    1      0.42      0.00
    1    9    1     -0.43      0.00
    2    9    1      0.30      0.00
    3    9    1     -0.09      0.00
    4    9    1     -0.06      0.00
    5    9    1      0.09      0.00
    6    9    1     -0.04      0.00
    7    9    1     -0.04      0.00
    8    9    1      0.14      0.00
    9    9    1     -0.25      0.00
   10    9    1      0.34      0.00
   11    9    1     -0.32      0.00
   12    9    1      0.21      0.00
   13    9    1     -0.07      0.00
   14    9    1     -0.01      0.00
   15    9    1     -0.00      0.00
   -8   10    1     -0.05      0.00
   -7   10    1      0.02      0.00
   -6   10    1      0.03      0.00
   -5   10    1     -0.06      0.00
   -4   10    1      0.09      0.00
   -3   10    1     -0.09      0.00
   -2   10    1      0.04      0.00
   -1   10    1      0.07      0.00
    0   10    1     -0.22      0.00
    1   10    1      0.36      0.00
    2   10    1     -0.39      0.00
    3   10    1      0.30      0.00
    4   10    1     -0.14      0.00
    5   10    1      0.01      0.00
    6   10    1      0.04      0.00
    7   10    1     -0.05      0.00
    8   10    1      0.05      0.00
    9   10    1     -0.00      0.00
   10   10    1     -0.11      0.00
   11   10    1      0.21      0.00
   12   10    1     -0.21      0.00
   13   10    1      0.11      0.00
   14   10    1     -0.01      0.00
   15   10    1     -0.02      0.00
   -6   11    1     -0.02      0.00
   -5   11    1      0.01      0.00
   -4   11    1     -0.02      0.00
   -3   11    1      0.04      0.00
   -2   11    1     -0.07      0.00
   -1   11    1      0.06      0.00
    0   11    1      0.02      0.00
    1   11    1     -0.14      0.00
    2   11    1      0.26      0.00
    3   11    1     -0.30      0.00
    4   11    1      0.24      0.00
    5   11    1     -0.11      0.00
    6   11    1      0.02      0.00
    7   11    1      0.03      0.00
    8   11    1     -0.06      0.00
    9   11    1      0.09      0.00
   10   11    1     -0.05      0.00
   11   11    1     -0.04      0.00
   12   11    1      0.11      0.00
   13   11    1     -0.09      0.00
   14   11    1      0.01      0.00
   15   11    1      0.05      0.00
   -5   12    1      0.01      0.00
   -4   12    1     -0.02      0.00
   -3   12    1     -0.01      0.00
   -2   12    1      0.06      0.00
   -1   12    1     -0.10      0.00
    0   12    1      0.08      0.00
    1   12    1     -0.03      0.00
    2   12    1     -0.06      0.00
    3   12    1      0.15      0.00
    4   12    1     -0.19      0.00
    5   12    1      0.15      0.00
    6   12    1     -0.07      0.00
    7   12    1      0.02      0.00
    8   12    1      0.00      0.00
    9   12    1     -0.03      0.00
   10   12    1      0.06      0.00
   11   12    1     -0.05      0.00
   12   12    1      0.01      0.00
   13   12    1      0.02      0.00
   14   12    1      0.01      0.00
   -4   13    1      0.02      0.00
   -3   13    1     -0.01      0.00
   -2   13    1     -0.04      0.00
   -1   13    1      0.08      0.00
    0   13    1     -0.08      0.00
    1   13    1      0.06      0.00
    2   13    1     -0.03      0.00
    3   13    1     -0.02      0.00
    4   13    1      0.10      0.00
    5   13    1     -0.13      0.00
    6   13    1      0.09      0.00
    7   13    1     -0.03      0.00
    8   13    1      0.01      0.00
    9   13    1     -0.03      0.00
   10   13    1      0.02      0.00
   11   13    1      0.02      0.00
   12   13    1     -0.05      0.00
   13   13    1      0.05      0.00
   14   13    1     -0.05      0.00
   -2   14    1      0.02      0.00
   -1   14    1     -0.04      0.00
    0   14    1      0.03      0.00
    1   14    1     -0.02      0.00
    2   14    1      0.01      0.00
    3   14    1      0.00      0.00
    4   14    1     -0.04      0.00
    5   14    1      0.08      0.00
    6   14    1     -0.07      0.00
    7   14    1      0.01      0.00
    8   14    1      0.04      0.00
    9   14    1     -0.01      0.00
   10   14    1     -0.04      0.00
   11   14    1      0.04      0.00
   12   14    1      0.01      0.00
    1   15    1     -0.01      0.00
    2   15    1      0.02      0.00
    3   15    1     -0.02      0.00
    4   15    1      0.02      0.00
    5   15    1     -0.03      0.00
    6   15    1      0.02      0.00
    7   15    1      0.03      0.00
    8   15    1     -0.09      0.00
    9   15    1      0.08      0.00
   10   15    1     -0.01      0.00
   11   15    1     -0.04      0.00
    5   16    1      0.00      0.00
    6   16    1      0.03      0.00
    7   16    1     -0.06      0.00
   -9  -15    2     -0.01      0.00
   -8  -15    2      0.04      0.00
   -7  -15    2     -0.04      0.00
   -6  -15    2      0.01      0.00
   -5  -15    2      0.04      0.00
   -4  -15    2     -0.06      0.00
   -3  -15    2      0.04      0.00
   -2  -15    2     -0.02      0.00
  -12  -14    2     -0.03      0.00
  -11  -14    2     -0.01      0.00
  -10  -14    2      0.03      0.00
   -9  -14    2     -0.01      0.00
   -8  -14    2     -0.02      0.00
   -7  -14    2      0.02      0.00
   -6  -14    2      0.01      0.00
   -5  -14    2     -0.04      0.00
   -4  -14    2      0.05      0.00
   -3  -14    2     -0.03      0.00
   -2  -14    2      0.01      0.00
   -1  -14    2     -0.01      0.00
    0  -14    2      0.04      0.00
    1  -14    2     -0.05      0.00
  -13  -13    2     -0.12      0.00
  -12  -13    2      0.10      0.00
  -11  -13    2     -0.07      0.00
  -10  -13    2      0.04      0.00
   -9  -13    2     -0.02      0.00
   -8  -13    2      0.02      0.00
   -7  -13    2     -0.00      0.00
   -6  -13    2     -0.04      0.00
   -5  -13    2      0.07      0.00
   -4  -13    2     -0.06      0.00
   -3  -13    2      0.01      0.00
   -2  -13    2      0.03      0.00
   -1  -13    2     -0.03      0.00
    0  -13    2      0.01      0.00
    1  -13    2      0.00      0.00
    2  -13    2     -0.01      0.00
  -14  -12    2     -0.08      0.00
  -13  -12    2      0.08      0.00
  -12  -12    2     -0.08      0.00
  -11  -12    2      0.10      0.00
  -10  -12    2     -0.11      0.00
   -9  -12    2      0.09      0.00
   -8  -12    2     -0.06      0.00
   -7  -12    2      0.03      0.00
   -6  -12    2      0.02      0.00
   -5  -12    2     -0.07      0.00
   -4  -12    2      0.08      0.00
   -3  -12    2     -0.04      0.00
   -2  -12    2     -0.03      0.00
   -1  -12    2      0.07      0.00
    0  -12    2     -0.08      0.00
    1  -12    2      0.08      0.00
    2  -12    2     -0.06      0.00
    3  -12    2      0.03      0.00
    4  -12    2      0.00      0.00
  -14  -11    2      0.01      0.00
  -13  -11    2      0.01      0.00
  -12  -11    2     -0.04      0.00
  -11  -11    2      0.02      0.00
  -10  -11    2      0.05      0.00
   -9  -11    2     -0.10      0.00
   -8  -11    2      0.11      0.00
   -7  -11    2     -0.08      0.00
   -6  -11    2      0.05      0.00
   -5  -11    2      0.01      0.00
   -4  -11    2     -0.07      0.00
   -3  -11    2      0.11      0.00
   -2  -11    2     -0.09      0.00
   -1  -11    2      0.02      0.00
    0  -11    2      0.06      0.00
    1  -11    2     -0.11      0.00
    2  -11    2      0.11      0.00
    3  -11    2     -0.07      0.00
    4  -11    2      0.01      0.00
    5  -11    2      0.02      0.00
    6  -11    2     -0.02      0.00
  -14  -10    2      0.04      0.00
  -13  -10    2     -0.07      0.00
  -12  -10    2      0.15      0.00
  -11  -10    2     -0.20      0.00
  -10  -10    2      0.15      0.00
   -9  -10    2     -0.03      0.00
   -8  -10    2     -0.05      0.00
   -7  -10    2      0.08      0.00
   -6  -10    2     -0.09      0.00
   -5  -10    2      0.07      0.00
   -4  -10    2      0.01      0.00
   -3  -10    2     -0.13      0.00
   -2  -10    2      0.22      0.00
   -1  -10    2     -0.22      0.00
    0  -10    2      0.12      0.00
    1  -10    2      0.00      0.00
    2  -10    2     -0.08      0.00
    3  -10    2      0.08      0.00
    4  -10    2     -0.05      0.00
    5  -10    2      0.01      0.00
    6  -10    2     -0.00      0.00
    7  -10    2     -0.00      0.00
  -15   -9    2      0.09      0.00
  -14   -9    2     -0.05      0.00
  -13   -9    2      0.04      0.00
  -12   -9    2     -0.12      0.00
  -11   -9    2      0.25      0.00
  -10   -9    2     -0.31      0.00
   -9   -9    2      0.25      0.00
   -8   -9    2     -0.14      0.00
   -7   -9    2      0.05      0.00
   -6   -9    2      0.03      0.00
   -5   -9    2     -0.08      0.00
   -4   -9    2      0.08      0.00
   -3   -9    2      0.03      0.00
   -2   -9    2     -0.21      0.00
   -1   -9    2      0.33      0.00
    0   -9    2     -0.33      0.00
    1   -9    2      0.22      0.00
    2   -9    2     -0.08      0.00
    3   -9    2     -0.02      0.00
    4   -9    2      0.06      0.00
    5   -9    2     -0.06      0.00
    6   -9    2      0.05      0.00
    7   -9    2     -0.01      0.00
    8   -9    2     -0.03      0.00
  -15   -8    2     -0.10      0.00
  -14   -8    2      0.04      0.00
  -13   -8    2      0.03      0.00
  -12   -8    2     -0.02      0.00
  -11   -8    2     -0.11      0.00
  -10   -8    2      0.28      0.00
   -9   -8    2     -0.38      0.00
   -8   -8    2      0.37      0.00
   -7   -8    2     -0.28      0.00
   -6   -8    2      0.16      0.00
   -5   -8    2     -0.02      0.00
   -4   -8    2     -0.11      0.00
   -3   -8    2      0.13      0.00
   -2   -8    2     -0.00      0.00
   -1   -8    2     -0.21      0.00
    0   -8    2      0.36      0.00
    1   -8    2     -0.38      0.00
    2   -8    2      0.28      0.00
    3   -8    2     -0.14      0.00
    4   -8    2      0.01      0.00
    5   -8    2      0.06      0.00
    6   -8    2     -0.08      0.00
    7   -8    2      0.03      0.00
    8   -8    2      0.04      0.00
    9   -8    2     -0.09      0.00
  -15   -7    2      0.11      0.00
  -14   -7    2     -0.06      0.00
  -13   -7    2     -0.05      0.00
  -12   -7    2      0.13      0.00
  -11   -7    2     -0.09      0.00
  -10   -7    2     -0.10      0.00
   -9   -7    2      0.33      0.00
   -8   -7    2     -0.49      0.00
   -7   -7    2      0.53      0.00
   -6   -7    2     -0.44      0.00
   -5   -7    2      0.24      0.00
   -4   -7    2      0.03      0.00
   -3   -7    2     -0.25      0.00
   -2   -7    2      0.28      0.00
   -1   -7    2     -0.10      0.00
    0   -7    2     -0.17      0.00
    1   -7    2      0.37      0.00
    2   -7    2     -0.43      0.00
    3   -7    2      0.35      0.00
    4   -7    2     -0.20      0.00
    5   -7    2      0.05      0.00
    6   -7    2      0.03      0.00
    7   -7    2     -0.02      0.00
    8   -7    2     -0.04      0.00
    9   -7    2      0.09      0.00
   10   -7    2     -0.09      0.00
  -15   -6    2     -0.10      0.00
  -14   -6    2      0.10      0.00
  -13   -6    2     -0.00      0.00
  -12   -6    2     -0.13      0.00
  -11   -6    2      0.19      0.00
  -10   -6    2     -0.08      0.00
   -9   -6    2     -0.17      0.00
   -8   -6    2      0.46      0.00
   -7   -6    2     -0.67      0.00
   -6   -6    2      0.74      0.00
   -5   -6    2     -0.62      0.00
   -4   -6    2      0.29      0.00
   -3   -6    2      0.13      0.00
   -2   -6    2     -0.42      0.00
   -1   -6    2      0.42      0.00
    0   -6    2     -0.16      0.00
    1   -6    2     -0.18      0.00
    2   -6    2      0.44      0.00
    3   -6    2     -0.53      0.00
    4   -6    2      0.46      0.00
    5   -6    2     -0.29      0.00
    6   -6    2      0.13      0.00
    7   -6    2     -0.05      0.00
    8   -6    2      0.04      0.00
    9   -6    2     -0.06      0.00
   10   -6    2      0.07      0.00
   11   -6    2     -0.05      0.00
  -15   -5    2      0.05      0.00
  -14   -5    2     -0.12      0.00
  -13   -5    2      0.09      0.00
  -12   -5    2      0.04      0.00
  -11   -5    2     -0.15      0.00
  -10   -5    2      0.15      0.00
   -9   -5    2      0.01      0.00
   -8   -5    2     -0.30      0.00
   -7   -5    2      0.63      0.00
   -6   -5    2     -0.94      0.00
   -5   -5    2      1.10      0.00
   -4   -5    2     -0.96      0.00
   -3   -5    2      0.47      0.00
   -2   -5    2      0.15      0.00
   -1   -5    2     -0.53      0.00
    0   -5    2      0.50      0.00
    1   -5    2     -0.16      0.00
    2   -5    2     -0.24      0.00
    3   -5    2      0.53      0.00
    4   -5    2     -0.64      0.00
    5   -5    2      0.56      0.00
    6   -5    2     -0.38      0.00
    7   -5    2      0.20      0.00
    8   -5    2     -0.09      0.00
    9   -5    2      0.04      0.00
   10   -5    2     -0.02      0.00
   11   -5    2      0.02      0.00
  -15   -4    2      0.02      0.00
  -14   -4    2      0.08      0.00
  -13   -4    2     -0.12      0.00
  -12   -4    2      0.07      0.00
  -11   -4    2      0.04      0.00
  -10   -4    2     -0.11      0.00
   -9   -4    2      0.08      0.00
   -8   -4    2      0.07      0.00
   -7   -4    2     -0.37      0.00
   -6   -4    2      0.84      0.00
   -5   -4    2     -1.39      0.00
   -4   -4    2      1.74      0.00
   -3   -4    2     -1.57      0.00
   -2   -4    2      0.84      0.00
   -1   -4    2      0.03      0.00
    0   -4    2     -0.55      0.00
    1   -4    2      0.53      0.00
    2   -4    2     -0.16      0.00
    3   -4    2     -0.26      0.00
    4   -4    2      0.57      0.00
    5   -4    2     -0.69      0.00
    6   -4    2      0.62      0.00
    7   -4    2     -0.42      0.00
    8   -4    2      0.22      0.00
    9   -4    2     -0.08      0.00
   10   -4    2     -0.00      0.00
   11   -4    2      0.05      0.00
   12   -4    2     -0.03      0.00
  -15   -3    2     -0.03      0.00
  -14   -3    2     -0.03      0.00
  -13   -3    2      0.10      0.00
  -12   -3    2     -0.14      0.00
  -11   -3    2      0.11      0.00
  -10   -3    2     -0.02      0.00
   -9   -3    2     -0.08      0.00
   -8   -3    2      0.12      0.00
   -7   -3    2     -0.00      0.00
   -6   -3    2     -0.39      0.00
   -5   -3    2      1.15      0.00
   -4   -3    2     -2.07      0.00
   -3   -3    2      2.67      0.00
   -2   -3    2     -2.46      0.00
   -1   -3    2      1.48      0.00
    0   -3    2     -0.33      0.00
    1   -3    2     -0.37      0.00
    2   -3    2      0.46      0.00
    3   -3    2     -0.17      0.00
    4   -3    2     -0.22      0.00
    5   -3    2      0.54      0.00
    6   -3    2     -0.68      0.00
    7   -3    2      0.60      0.00
    8   -3    2     -0.40      0.00
    9   -3    2      0.21      0.00
   10   -3    2     -0.07      0.00
   11   -3    2     -0.04      0.00
   12   -3    2      0.11      0.00
   13   -3    2     -0.09      0.00
  -15   -2    2     -0.02      0.00
  -14   -2    2      0.04      0.00
  -13   -2    2     -0.09      0.00
  -12   -2    2      0.17      0.00
  -11   -2    2     -0.24      0.00
  -10   -2    2      0.22      0.00
   -9   -2    2     -0.08      0.00
   -8   -2    2     -0.13      0.00
   -7   -2    2      0.27      0.00
   -6   -2    2     -0.16      0.00
   -5   -2    2     -0.42      0.00
   -4   -2    2      1.56      0.00
   -3   -2    2     -2.97      0.00
   -2   -2    2      3.91      0.00
   -1   -2    2     -3.75      0.00
    0   -2    2      2.56      0.00
    1   -2    2     -1.08      0.00
    2   -2    2      0.05      0.00
    3   -2    2      0.30      0.00
    4   -2    2     -0.17      0.00
    5   -2    2     -0.15      0.00
    6   -2    2      0.47      0.00
    7   -2    2     -0.61      0.00
    8   -2    2      0.54      0.00
    9   -2    2     -0.37      0.00
   10   -2    2      0.22      0.00
   11   -2    2     -0.09      0.00
   12   -2    2     -0.05      0.00
   13   -2    2      0.16      0.00
   14   -2    2     -0.15      0.00
  -15   -1    2      0.05      0.00
  -14   -1    2     -0.08      0.00
  -13   -1    2      0.12      0.00
  -12   -1    2     -0.19      0.00
  -11   -1    2      0.30      0.00
  -10   -1    2     -0.39      0.00
   -9   -1    2      0.32      0.00
   -8   -1    2     -0.08      0.00
   -7   -1    2     -0.23      0.00
   -6   -1    2      0.44      0.00
   -5   -1    2     -0.32      0.00
   -4   -1    2     -0.48      0.00
   -3   -1    2      2.12      0.00
   -2   -1    2     -4.16      0.00
   -1   -1    2      5.52      0.00
    0   -1    2     -5.36      0.00
    1   -1    2      3.82      0.00
    2   -1    2     -1.89      0.00
    3   -1    2      0.47      0.00
    4   -1    2      0.14      0.00
    5   -1    2     -0.16      0.00
    6   -1    2     -0.10      0.00
    7   -1    2      0.39      0.00
    8   -1    2     -0.51      0.00
    9   -1    2      0.46      0.00
   10   -1    2     -0.34      0.00
   11   -1    2      0.25      0.00
   12   -1    2     -0.13      0.00
   13   -1    2     -0.03      0.00
   14   -1    2      0.16      0.00
  -14    0    2      0.07      0.00
  -13    0    2     -0.11      0.00
  -12    0    2      0.16      0.00
  -11    0    2     -0.26      0.00
  -10    0    2      0.41      0.00
   -9    0    2     -0.49      0.00
   -8    0    2      0.38      0.00
   -7    0    2     -0.09      0.00
   -6    0    2     -0.28      0.00
   -5    0    2      0.57      0.00
   -4    0    2     -0.42      0.00
   -3    0    2     -0.69      0.00
   -2    0    2      2.92      0.00
   -1    0    2     -5.46      0.00
    0    0    2      6.92      0.00
    1    0    2     -6.43      0.00
    2    0    2      4.44      0.00
    3    0    2     -2.19      0.00
    4    0    2      0.63      0.00
    5    0    2      0.05      0.00
    6    0    2     -0.13      0.00
    7    0    2     -0.07      0.00
    8    0    2      0.29      0.00
    9    0    2     -0.39      0.00
   10    0    2      0.37      0.00
   11    0    2     -0.34      0.00
   12    0    2      0.30      0.00
   13    0    2     -0.19      0.00
   14    0    2      0.02      0.00
   15    0    2      0.09      0.00
  -14    1    2     -0.00      0.00
  -13    1    2      0.03      0.00
  -12    1    2     -0.07      0.00
  -11    1    2      0.13      0.00
  -10    1    2     -0.27      0.00
   -9    1    2      0.45      0.00
   -8    1    2     -0.56      0.00
   -7    1    2      0.48      0.00
   -6    1    2     -0.19      0.00
   -5    1    2     -0.25      0.00
   -4    1    2      0.60      0.00
   -3    1    2     -0.35      0.00
   -2    1    2     -1.07      0.00
   -1    1    2      3.57      0.00
    0    1    2     -6.03      0.00
    1    1    2      7.03      0.00
    2    1    2     -6.08      0.00
    3    1    2      3.96      0.00
    4    1    2     -1.90      0.00
    5    1    2      0.59      0.00
    6    1    2     -0.01      0.00
    7    1    2     -0.09      0.00
    8    1    2     -0.03      0.00
    9    1    2      0.20      0.00
   10    1    2     -0.29      0.00
   11    1    2      0.32      0.00
   12    1    2     -0.33      0.00
   13    1    2      0.31      0.00
   14    1    2     -0.20      0.00
   15    1    2      0.07      0.00
  -13    2    2      0.04      0.00
  -12    2    2     -0.03      0.00
  -11    2    2      0.01      0.00
  -10    2    2      0.08      0.00
   -9    2    2     -0.27      0.00
   -8    2    2      0.52      0.00
   -7    2    2     -0.67      0.00
   -6    2    2      0.62      0.00
   -5    2    2     -0.34      0.00
   -4    2    2     -0.12      0.00
   -3    2    2      0.48      0.00
   -2    2    2     -0.18      0.00
   -1    2    2     -1.21      0.00
    0    2    2      3.35      0.00
    1    2    2     -5.15      0.00
    2    2    2      5.58      0.00
    3    2    2     -4.57      0.00
    4    2    2      2.91      0.00
    5    2    2     -1.46      0.00
    6    2    2      0.53      0.00
    7    2    2     -0.08      0.00
    8    2    2     -0.04      0.00
    9    2    2     -0.04      0.00
   10    2    2      0.17      0.00
   11    2    2     -0.24      0.00
   12    2    2      0.26      0.00
   13    2    2     -0.27      0.00
   14    2    2      0.24      0.00
   15    2    2     -0.16      0.00
  -13    3    2     -0.01      0.00
  -12    3    2      0.04      0.00
  -11    3    2     -0.06      0.00
  -10    3    2      0.04      0.00
   -9    3    2      0.09      0.00
   -8    3    2     -0.33      0.00
   -7    3    2      0.61      0.00
   -6    3    2     -0.80      0.00
   -5    3    2      0.79      0.00
   -4    3    2     -0.53      0.00
   -3    3    2      0.07      0.00
   -2    3    2      0.33      0.00
   -1    3    2     -0.18      0.00
    0    3    2     -0.79      0.00
    1    3    2      2.23      0.00
    2    3    2     -3.36      0.00
    3    3    2      3.59      0.00
    4    3    2     -2.98      0.00
    5    3    2      2.03      0.00
    6    3    2     -1.15      0.00
    7    3    2      0.51      0.00
    8    3    2     -0.15      0.00
    9    3    2      0.05      0.00
   10    3    2     -0.08      0.00
   11    3    2      0.14      0.00
   12    3    2     -0.16      0.00
   13    3    2      0.18      0.00
   14    3    2     -0.18      0.00
   15    3    2      0.15      0.00
   16    3    2     -0.10      0.00
  -12    4    2      0.05      0.00
  -11    4    2      0.01      0.00
  -10    4    2     -0.05      0.00
   -9    4    2      0.01      0.00
   -8    4    2      0.15      0.00
   -7    4    2     -0.41      0.00
   -6    4    2      0.71      0.00
   -5    4    2     -0.93      0.00
   -4    4    2      0.97      0.00
   -3    4    2     -0.72      0.00
   -2    4    2      0.21      0.00
   -1    4    2      0.28      0.00
    0    4    2     -0.38      0.00
    1    4    2     -0.14      0.00
    2    4    2      1.04      0.00
    3    4    2     -1.82      0.00
    4    4    2      2.13      0.00
    5    4    2     -1.95      0.00
    6    4    2      1.48      0.00
    7    4    2     -0.95      0.00
    8    4    2      0.51      0.00
    9    4    2     -0.24      0.00
   10    4    2      0.12      0.00
   11    4    2     -0.07      0.00
   12    4    2      0.07      0.00
   13    4    2     -0.09      0.00
   14    4    2      0.13      0.00
   15    4    2     -0.12      0.00
   16    4    2      0.07      0.00
  -12    5    2     -0.13      0.00
  -11    5    2      0.09      0.00
  -10    5    2     -0.00      0.00
   -9    5    2     -0.04      0.00
   -8    5    2     -0.02      0.00
   -7    5    2      0.19      0.00
   -6    5    2     -0.45      0.00
   -5    5    2      0.76      0.00
   -4    5    2     -1.01      0.00
   -3    5    2      1.05      0.00
   -2    5    2     -0.78      0.00
   -1    5    2      0.24      0.00
    0    5    2      0.29      0.00
    1    5    2     -0.49      0.00
    2    5    2      0.22      0.00
    3    5    2      0.38      0.00
    4    5    2     -0.97      0.00
    5    5    2      1.32      0.00
    6    5    2     -1.36      0.00
    7    5    2      1.16      0.00
    8    5    2     -0.83      0.00
    9    5    2      0.51      0.00
   10    5    2     -0.26      0.00
   11    5    2      0.09      0.00
   12    5    2     -0.00      0.00
   13    5    2      0.02      0.00
   14    5    2     -0.09      0.00
   15    5    2      0.12      0.00
   16    5    2     -0.07      0.00
  -11    6    2     -0.11      0.00
  -10    6    2      0.04      0.00
   -9    6    2      0.04      0.00
   -8    6    2     -0.04      0.00
   -7    6    2     -0.03      0.00
   -6    6    2      0.18      0.00
   -5    6    2     -0.42      0.00
   -4    6    2      0.72      0.00
   -3    6    2     -0.95      0.00
   -2    6    2      0.97      0.00
   -1    6    2     -0.68      0.00
    0    6    2      0.20      0.00
    1    6    2      0.24      0.00
    2    6    2     -0.42      0.00
    3    6    2      0.26      0.00
    4    6    2      0.13      0.00
    5    6    2     -0.57      0.00
    6    6    2      0.90      0.00
    7    6    2     -1.03      0.00
    8    6    2      0.95      0.00
    9    6    2     -0.73      0.00
   10    6    2      0.45      0.00
   11    6    2     -0.19      0.00
   12    6    2      0.02      0.00
   13    6    2      0.03      0.00
   14    6    2      0.03      0.00
   15    6    2     -0.11      0.00
   16    6    2      0.11      0.00
  -10    7    2     -0.03      0.00
   -9    7    2     -0.02      0.00
   -8    7    2      0.04      0.00
   -7    7    2     -0.04      0.00
   -6    7    2     -0.00      0.00
   -5    7    2      0.10      0.00
   -4    7    2     -0.31      0.00
   -3    7    2      0.57      0.00
   -2    7    2     -0.78      0.00
   -1    7    2      0.77      0.00
    0    7    2     -0.52      0.00
    1    7    2      0.15      0.00
    2    7    2      0.18      0.00
    3    7    2     -0.31      0.00
    4    7    2      0.22      0.00
    5    7    2      0.04      0.00
    6    7    2     -0.38      0.00
    7    7    2      0.66      0.00
    8    7    2     -0.80      0.00
    9    7    2      0.76      0.00
   10    7    2     -0.57      0.00
   11    7    2      0.32      0.00
   12    7    2     -0.11      0.00
   13    7    2     -0.02      0.00
   14    7    2      0.02      0.00
   15    7    2      0.05      0.00
   16    7    2     -0.10      0.00
  -10    8    2      0.00      0.00
   -9    8    2     -0.02      0.00
   -8    8    2      0.01      0.00
   -7    8    2      0.01      0.00
   -6    8    2     -0.05      0.00
   -5    8    2      0.07      0.00
   -4    8    2     -0.01      0.00
   -3    8    2     -0.17      0.00
   -2    8    2      0.41      0.00
   -1    8    2     -0.58      0.00
    0    8    2      0.58      0.00
    1    8    2     -0.40      0.00
    2    8    2      0.12      0.00
    3    8    2      0.12      0.00
    4    8    2     -0.22      0.00
    5    8    2      0.15      0.00
    6    8    2      0.03      0.00
    7    8    2     -0.27      0.00
    8    8    2      0.47      0.00
    9    8    2     -0.58      0.00
   10    8    2      0.55      0.00
   11    8    2     -0.41      0.00
   12    8    2      0.22      0.00
   13    8    2     -0.05      0.00
   14    8    2     -0.02      0.00
   15    8    2      0.01      0.00
   16    8    2      0.05      0.00
   -9    9    2      0.03      0.00
   -8    9    2     -0.05      0.00
   -7    9    2      0.03      0.00
   -6    9    2      0.02      0.00
   -5    9    2     -0.10      0.00
   -4    9    2      0.13      0.00
   -3    9    2     -0.07      0.00
   -2    9    2     -0.09      0.00
   -1    9    2      0.30      0.00
    0    9    2     -0.45      0.00
    1    9    2      0.47      0.00
    2    9    2     -0.35      0.00
    3    9    2      0.15      0.00
    4    9    2      0.03      0.00
    5    9    2     -0.10      0.00
    6    9    2      0.07      0.00
    7    9    2      0.02      0.00
    8    9    2     -0.13      0.00
    9    9    2      0.25      0.00
   10    9    2     -0.35      0.00
   11    9    2      0.37      0.00
   12    9    2     -0.27      0.00
   13    9    2      0.12      0.00
   14    9    2     -0.00      0.00
   15    9    2     -0.03      0.00
   16    9    2      0.00      0.00
   -8   10    2      0.05      0.00
   -7   10    2     -0.04      0.00
   -6   10    2      0.01      0.00
   -5   10    2      0.04      0.00
   -4   10    2     -0.09      0.00
   -3   10    2      0.11      0.00
   -2   10    2     -0.05      0.00
   -1   10    2     -0.06      0.00
    0   10    2      0.22      0.00
    1   10    2     -0.36      0.00
    2   10    2      0.42      0.00
    3   10    2     -0.35      0.00
    4   10    2      0.19      0.00
    5   10    2     -0.05      0.00
    6   10    2     -0.03      0.00
    7   10    2      0.05      0.00
    8   10    2     -0.06      0.00
    9   10    2      0.02      0.00
   10   10    2      0.08      0.00
   11   10    2     -0.20      0.00
   12   10    2      0.23      0.00
   13   10    2     -0.14      0.00
   14   10    2      0.02      0.00
   15   10    2      0.05      0.00
   -6   11    2     -0.00      0.00
   -5   11    2      0.00      0.00
   -4   11    2      0.01      0.00
   -3   11    2     -0.05      0.00
   -2   11    2      0.07      0.00
   -1   11    2     -0.06      0.00
    0   11    2     -0.01      0.00
    1   11    2      0.14      0.00
    2   11    2     -0.27      0.00
    3   11    2      0.35      0.00
    4   11    2     -0.30      0.00
    5   11    2      0.17      0.00
    6   11    2     -0.06      0.00
    7   11    2     -0.00      0.00
    8   11    2      0.05      0.00
    9   11    2     -0.10      0.00
   10   11    2      0.09      0.00
   11   11    2      0.02      0.00
   12   11    2     -0.12      0.00
   13   11    2      0.12      0.00
   14   11    2     -0.03      0.00
   15   11    2     -0.05      0.00
   -5   12    2     -0.02      0.00
   -4   12    2      0.04      0.00
   -3   12    2     -0.01      0.00
   -2   12    2     -0.05      0.00
   -1   12    2      0.09      0.00
    0   12    2     -0.10      0.00
    1   12    2      0.05      0.00
    2   12    2      0.05      0.00
    3   12    2     -0.17      0.00
    4   12    2      0.24      0.00
    5   12    2     -0.21      0.00
    6   12    2      0.12      0.00
    7   12    2     -0.06      0.00
    8   12    2      0.03      0.00
    9   12    2      0.01      0.00
   10   12    2     -0.06      0.00
   11   12    2      0.05      0.00
   12   12    2      0.03      0.00
   13   12    2     -0.08      0.00
   14   12    2      0.05      0.00
   15   12    2      0.03      0.00
   -4   13    2     -0.05      0.00
   -3   13    2      0.04      0.00
   -2   13    2      0.02      0.00
   -1   13    2     -0.08      0.00
    0   13    2      0.10      0.00
    1   13    2     -0.10      0.00
    2   13    2      0.07      0.00
    3   13    2      0.01      0.00
    4   13    2     -0.11      0.00
    5   13    2      0.17      0.00
    6   13    2     -0.14      0.00
    7   13    2      0.08      0.00
    8   13    2     -0.06      0.00
    9   13    2      0.07      0.00
   10   13    2     -0.05      0.00
   11   13    2      0.01      0.00
   12   13    2     -0.00      0.00
   13   13    2      0.04      0.00
   14   13    2     -0.05      0.00
   -2   14    2     -0.00      0.00
   -1   14    2      0.04      0.00
    0   14    2     -0.06      0.00
    1   14    2      0.05      0.00
    2   14    2     -0.05      0.00
    3   14    2      0.03      0.00
    4   14    2      0.03      0.00
    5   14    2     -0.10      0.00
    6   14    2      0.11      0.00
    7   14    2     -0.06      0.00
    8   14    2      0.01      0.00
    9   14    2     -0.04      0.00
   10   14    2      0.09      0.00
   11   14    2     -0.09      0.00
   12   14    2      0.04      0.00
    1   15    2     -0.01      0.00
    2   15    2      0.00      0.00
    3   15    2     -0.01      0.00
    4   15    2     -0.00      0.00
    5   15    2      0.04      0.00
    6   15    2     -0.06      0.00
    7   15    2      0.02      0.00
    8   15    2      0.05      0.00
    9   15    2     -0.06      0.00
   10   15    2     -0.02      0.00
   11   15    2      0.09      0.00
    5   16    2     -0.00      0.00
    6   16    2     -0.00      0.00
    7   16    2      0.03      0.00
    8   16    2     -0.07      0.00
   -8  -15    3     -0.01      0.00
   -7  -15    3      0.02      0.00
   -6  -15    3      0.01      0.00
   -5  -15    3     -0.06      0.00
   -4  -15    3      0.07      0.00
   -3  -15    3     -0.05      0.00
  -11  -14    3      0.06      0.00
  -10  -14    3     -0.08      0.00
   -9  -14    3      0.06      0.00
   -8  -14    3     -0.02      0.00
   -7  -14    3     -0.01      0.00
   -6  -14    3     -0.01      0.00
   -5  -14    3      0.05      0.00
   -4  -14    3     -0.07      0.00
   -3  -14    3      0.05      0.00
   -2  -14    3     -0.02      0.00
   -1  -14    3      0.01      0.00
    0  -14    3     -0.03      0.00
  -12  -13    3     -0.04      0.00
  -11  -13    3      0.02      0.00
  -10  -13    3      0.00      0.00
   -9  -13    3     -0.01      0.00
   -8  -13    3      0.01      0.00
   -7  -13    3     -0.01      0.00
   -6  -13    3      0.04      0.00
   -5  -13    3     -0.08      0.00
   -4  -13    3      0.08      0.00
   -3  -13    3     -0.03      0.00
   -2  -13    3     -0.02      0.00
   -1  -13    3      0.02      0.00
    0  -13    3     -0.00      0.00
    1  -13    3     -0.02      0.00
    2  -13    3      0.02      0.00
  -13  -12    3     -0.04      0.00
  -12  -12    3      0.04      0.00
  -11  -12    3     -0.07      0.00
  -10  -12    3      0.10      0.00
   -9  -12    3     -0.09      0.00
   -8  -12    3      0.07      0.00
   -7  -12    3     -0.03      0.00
   -6  -12    3     -0.03      0.00
   -5  -12    3      0.08      0.00
   -4  -12    3     -0.09      0.00
   -3  -12    3      0.04      0.00
   -2  -12    3      0.02      0.00
   -1  -12    3     -0.06      0.00
    0  -12    3      0.06      0.00
    1  -12    3     -0.05      0.00
    2  -12    3      0.05      0.00
    3  -12    3     -0.03      0.00
    4  -12    3     -0.00      0.00
  -14  -11    3     -0.00      0.00
  -13  -11    3     -0.02      0.00
  -12  -11    3      0.05      0.00
  -11  -11    3     -0.02      0.00
  -10  -11    3     -0.06      0.00
   -9  -11    3      0.13      0.00
   -8  -11    3     -0.13      0.00
   -7  -11    3      0.10      0.00
   -6  -11    3     -0.04      0.00
   -5  -11    3     -0.02      0.00
   -4  -11    3      0.07      0.00
   -3  -11    3     -0.08      0.00
   -2  -11    3      0.04      0.00
   -1  -11    3      0.02      0.00
    0  -11    3     -0.06      0.00
    1  -11    3      0.10      0.00
    2  -11    3     -0.11      0.00
    3  -11    3      0.08      0.00
    4  -11    3     -0.02      0.00
    5  -11    3     -0.04      0.00
  -14  -10    3     -0.04      0.00
  -13  -10    3      0.06      0.00
  -12  -10    3     -0.13      0.00
  -11  -10    3      0.17      0.00
  -10  -10    3     -0.11      0.00
   -9  -10    3     -0.00      0.00
   -8  -10    3      0.09      0.00
   -7  -10    3     -0.11      0.00
   -6  -10    3      0.10      0.00
   -5  -10    3     -0.07      0.00
   -4  -10    3      0.01      0.00
   -3  -10    3      0.08      0.00
   -2  -10    3     -0.14      0.00
   -1  -10    3      0.13      0.00
    0  -10    3     -0.06      0.00
    1  -10    3     -0.02      0.00
    2  -10    3      0.09      0.00
    3  -10    3     -0.10      0.00
    4  -10    3      0.05      0.00
    5  -10    3      0.02      0.00
    6  -10    3     -0.05      0.00
    7  -10    3      0.04      0.00
  -15   -9    3     -0.08      0.00
  -14   -9    3      0.04      0.00
  -13   -9    3     -0.02      0.00
  -12   -9    3      0.08      0.00
  -11   -9    3     -0.19      0.00
  -10   -9    3      0.25      0.00
   -9   -9    3     -0.20      0.00
   -8   -9    3      0.09      0.00
   -7   -9    3      0.00      0.00
   -6   -9    3     -0.06      0.00
   -5   -9    3      0.09      0.00
   -4   -9    3     -0.08      0.00
   -3   -9    3     -0.01      0.00
   -2   -9    3      0.15      0.00
   -1   -9    3     -0.25      0.00
    0   -9    3      0.25      0.00
    1   -9    3     -0.17      0.00
    2   -9    3      0.05      0.00
    3   -9    3      0.03      0.00
    4   -9    3     -0.05      0.00
    5   -9    3      0.03      0.00
    6   -9    3      0.00      0.00
    7   -9    3     -0.02      0.00
    8   -9    3      0.03      0.00
  -15   -8    3      0.07      0.00
  -14   -8    3     -0.02      0.00
  -13   -8    3     -0.05      0.00
  -12   -8    3      0.06      0.00
  -11   -8    3      0.04      0.00
  -10   -8    3     -0.19      0.00
   -9   -8    3      0.29      0.00
   -8   -8    3     -0.28      0.00
   -7   -8    3      0.21      0.00
   -6   -8    3     -0.11      0.00
   -5   -8    3      0.01      0.00
   -4   -8    3      0.08      0.00
   -3   -8    3     -0.09      0.00
   -2   -8    3     -0.02      0.00
   -1   -8    3      0.19      0.00
    0   -8    3     -0.31      0.00
    1   -8    3      0.33      0.00
    2   -8    3     -0.25      0.00
    3   -8    3      0.13      0.00
    4   -8    3     -0.02      0.00
    5   -8    3     -0.04      0.00
    6   -8    3      0.05      0.00
    7   -8    3     -0.01      0.00
    8   -8    3     -0.05      0.00
    9   -8    3      0.07      0.00
  -15   -7    3     -0.06      0.00
  -14   -7    3      0.02      0.00
  -13   -7    3      0.09      0.00
  -12   -7    3     -0.18      0.00
  -11   -7    3      0.16      0.00
  -10   -7    3     -0.01      0.00
   -9   -7    3     -0.20      0.00
   -8   -7    3      0.36      0.00
   -7   -7    3     -0.42      0.00
   -6   -7    3      0.37      0.00
   -5   -7    3     -0.22      0.00
   -4   -7    3      0.00      0.00
   -3   -7    3      0.17      0.00
   -2   -7    3     -0.19      0.00
   -1   -7    3      0.05      0.00
    0   -7    3      0.16      0.00
    1   -7    3     -0.33      0.00
    2   -7    3      0.39      0.00
    3   -7    3     -0.33      0.00
    4   -7    3      0.19      0.00
    5   -7    3     -0.05      0.00
    6   -7    3     -0.03      0.00
    7   -7    3      0.02      0.00
    8   -7    3      0.04      0.00
    9   -7    3     -0.10      0.00
   10   -7    3      0.09      0.00
  -15   -6    3      0.05      0.00
  -14   -6    3     -0.05      0.00
  -13   -6    3     -0.03      0.00
  -12   -6    3      0.16      0.00
  -11   -6    3     -0.25      0.00
  -10   -6    3      0.19      0.00
   -9   -6    3      0.03      0.00
   -8   -6    3     -0.30      0.00
   -7   -6    3      0.53      0.00
   -6   -6    3     -0.63      0.00
   -5   -6    3      0.54      0.00
   -4   -6    3     -0.27      0.00
   -3   -6    3     -0.08      0.00
   -2   -6    3      0.32      0.00
   -1   -6    3     -0.34      0.00
    0   -6    3      0.14      0.00
    1   -6    3      0.13      0.00
    2   -6    3     -0.35      0.00
    3   -6    3      0.45      0.00
    4   -6    3     -0.40      0.00
    5   -6    3      0.24      0.00
    6   -6    3     -0.09      0.00
    7   -6    3      0.02      0.00
    8   -6    3     -0.04      0.00
    9   -6    3      0.09      0.00
   10   -6    3     -0.09      0.00
   11   -6    3      0.06      0.00
  -15   -5    3     -0.02      0.00
  -14   -5    3      0.08      0.00
  -13   -5    3     -0.07      0.00
  -12   -5    3     -0.05      0.00
  -11   -5    3      0.18      0.00
  -10   -5    3     -0.22      0.00
   -9   -5    3      0.10      0.00
   -8   -5    3      0.15      0.00
   -7   -5    3     -0.47      0.00
   -6   -5    3      0.77      0.00
   -5   -5    3     -0.92      0.00
   -4   -5    3      0.81      0.00
   -3   -5    3     -0.41      0.00
   -2   -5    3     -0.10      0.00
   -1   -5    3      0.43      0.00
    0   -5    3     -0.42      0.00
    1   -5    3      0.17      0.00
    2   -5    3      0.15      0.00
    3   -5    3     -0.41      0.00
    4   -5    3      0.53      0.00
    5   -5    3     -0.47      0.00
    6   -5    3      0.31      0.00
    7   -5    3     -0.15      0.00
    8   -5    3      0.08      0.00
    9   -5    3     -0.07      0.00
   10   -5    3      0.05      0.00
   11   -5    3     -0.04      0.00
  -15   -4    3     -0.04      0.00
  -14   -4    3     -0.07      0.00
  -13   -4    3      0.13      0.00
  -12   -4    3     -0.09      0.00
  -11   -4    3     -0.04      0.00
  -10   -4    3      0.14      0.00
   -9   -4    3     -0.15      0.00
   -8   -4    3      0.02      0.00
   -7   -4    3      0.24      0.00
   -6   -4    3     -0.65      0.00
   -5   -4    3      1.12      0.00
   -4   -4    3     -1.44      0.00
   -3   -4    3      1.31      0.00
   -2   -4    3     -0.72      0.00
   -1   -4    3      0.01      0.00
    0   -4    3      0.43      0.00
    1   -4    3     -0.45      0.00
    2   -4    3      0.18      0.00
    3   -4    3      0.16      0.00
    4   -4    3     -0.44      0.00
    5   -4    3      0.58      0.00
    6   -4    3     -0.52      0.00
    7   -4    3      0.35      0.00
    8   -4    3     -0.19      0.00
    9   -4    3      0.10      0.00
   10   -4    3     -0.04      0.00
   11   -4    3     -0.01      0.00
   12   -4    3      0.02      0.00
  -15   -3    3      0.06      0.00
  -14   -3    3      0.02      0.00
  -13   -3    3     -0.12      0.00
  -12   -3    3      0.17      0.00
  -11   -3    3     -0.12      0.00
  -10   -3    3      0.01      0.00
   -9   -3    3      0.10      0.00
   -8   -3    3     -0.15      0.00
   -7   -3    3      0.07      0.00
   -6   -3    3      0.25      0.00
   -5   -3    3     -0.88      0.00
   -4   -3    3      1.67      0.00
   -3   -3    3     -2.18      0.00
   -2   -3    3      2.02      0.00
   -1   -3    3     -1.22      0.00
    0   -3    3      0.29      0.00
    1   -3    3      0.29      0.00
    2   -3    3     -0.39      0.00
    3   -3    3      0.19      0.00
    4   -3    3      0.13      0.00
    5   -3    3     -0.42      0.00
    6   -3    3      0.57      0.00
    7   -3    3     -0.52      0.00
    8   -3    3      0.35      0.00
    9   -3    3     -0.21      0.00
   10   -3    3      0.11      0.00
   11   -3    3     -0.01      0.00
   12   -3    3     -0.08      0.00
   13   -3    3      0.07      0.00
  -15   -2    3     -0.03      0.00
  -14   -2    3     -0.00      0.00
  -13   -2    3      0.08      0.00
  -12   -2    3     -0.18      0.00
  -11   -2    3      0.24      0.00
  -10   -2    3     -0.22      0.00
   -9   -2    3      0.08      0.00
   -8   -2    3      0.11      0.00
   -7   -2    3     -0.26      0.00
   -6   -2    3      0.21      0.00
   -5   -2    3      0.24      0.00
   -4   -2    3     -1.17      0.00
   -3   -2    3      2.32      0.00
   -2   -2    3     -3.06      0.00
   -1   -2    3      2.91      0.00
    0   -2    3     -1.98      0.00
    1   -2    3      0.85      0.00
    2   -2    3     -0.06      0.00
    3   -2    3     -0.23      0.00
    4   -2    3      0.17      0.00
    5   -2    3      0.09      0.00
    6   -2    3     -0.38      0.00
    7   -2    3      0.54      0.00
    8   -2    3     -0.49      0.00
    9   -2    3      0.35      0.00
   10   -2    3     -0.23      0.00
   11   -2    3      0.13      0.00
   12   -2    3      0.00      0.00
   13   -2    3     -0.12      0.00
  -15   -1    3     -0.01      0.00
  -14   -1    3      0.03      0.00
  -13   -1    3     -0.07      0.00
  -12   -1    3      0.16      0.00
  -11   -1    3     -0.29      0.00
  -10   -1    3      0.39      0.00
   -9   -1    3     -0.34      0.00
   -8   -1    3      0.12      0.00
   -7   -1    3      0.18      0.00
   -6   -1    3     -0.41      0.00
   -5   -1    3      0.37      0.00
   -4   -1    3      0.22      0.00
   -3   -1    3     -1.48      0.00
   -2   -1    3      3.05      0.00
   -1   -1    3     -4.11      0.00
    0   -1    3      4.05      0.00
    1   -1    3     -2.98      0.00
    2   -1    3      1.58      0.00
    3   -1    3     -0.50      0.00
    4   -1    3     -0.05      0.00
    5   -1    3      0.12      0.00
    6   -1    3      0.08      0.00
    7   -1    3     -0.35      0.00
    8   -1    3      0.47      0.00
    9   -1    3     -0.43      0.00
   10   -1    3      0.34      0.00
   11   -1    3     -0.28      0.00
   12   -1    3      0.18      0.00
   13   -1    3     -0.01      0.00
   14   -1    3     -0.12      0.00
  -14    0    3     -0.05      0.00
  -13    0    3      0.08      0.00
  -12    0    3     -0.13      0.00
  -11    0    3      0.25      0.00
  -10    0    3     -0.41      0.00
   -9    0    3      0.51      0.00
   -8    0    3     -0.43      0.00
   -7    0    3      0.16      0.00
   -6    0    3      0.21      0.00
   -5    0    3     -0.52      0.00
   -4    0    3      0.51      0.00
   -3    0    3      0.25      0.00
   -2    0    3     -1.92      0.00
   -1    0    3      3.92      0.00
    0    0    3     -5.20      0.00
    1    0    3      5.05      0.00
    2    0    3     -3.70      0.00
    3    0    3      2.03      0.00
    4    0    3     -0.75      0.00
    5    0    3      0.09      0.00
    6    0    3      0.06      0.00
    7    0    3      0.09      0.00
    8    0    3     -0.28      0.00
    9    0    3      0.37      0.00
   10    0    3     -0.36      0.00
   11    0    3      0.35      0.00
   12    0    3     -0.33      0.00
   13    0    3      0.22      0.00
   14    0    3     -0.04      0.00
  -14    1    3      0.03      0.00
  -13    1    3     -0.06      0.00
  -12    1    3      0.08      0.00
  -11    1    3     -0.14      0.00
  -10    1    3      0.28      0.00
   -9    1    3     -0.47      0.00
   -8    1    3      0.59      0.00
   -7    1    3     -0.52      0.00
   -6    1    3      0.25      0.00
   -5    1    3      0.17      0.00
   -4    1    3     -0.56      0.00
   -3    1    3      0.51      0.00
   -2    1    3      0.48      0.00
   -1    1    3     -2.44      0.00
    0    1    3      4.54      0.00
    1    1    3     -5.61      0.00
    2    1    3      5.13      0.00
    3    1    3     -3.61      0.00
    4    1    3      1.96      0.00
    5    1    3     -0.78      0.00
    6    1    3      0.18      0.00
    7    1    3     -0.00      0.00
    8    1    3      0.07      0.00
    9    1    3     -0.20      0.00
   10    1    3      0.27      0.00
   11    1    3     -0.30      0.00
   12    1    3      0.34      0.00
   13    1    3     -0.33      0.00
   14    1    3      0.22      0.00
   15    1    3     -0.06      0.00
  -14    2    3     -0.01      0.00
  -13    2    3      0.01      0.00
  -12    2    3     -0.01      0.00
  -11    2    3      0.02      0.00
  -10    2    3     -0.09      0.00
   -9    2    3      0.27      0.00
   -8    2    3     -0.51      0.00
   -7    2    3      0.67      0.00
   -6    2    3     -0.64      0.00
   -5    2    3      0.38      0.00
   -4    2    3      0.05      0.00
   -3    2    3     -0.44      0.00
   -2    2    3      0.31      0.00
   -1    2    3      0.76      0.00
    0    2    3     -2.57      0.00
    1    2    3      4.22      0.00
    2    2    3     -4.80      0.00
    3    2    3      4.16      0.00
    4    2    3     -2.86      0.00
    5    2    3      1.61      0.00
    6    2    3     -0.73      0.00
    7    2    3      0.22      0.00
    8    2    3     -0.04      0.00
    9    2    3      0.06      0.00
   10    2    3     -0.14      0.00
   11    2    3      0.21      0.00
   12    2    3     -0.26      0.00
   13    2    3      0.29      0.00
   14    2    3     -0.25      0.00
   15    2    3      0.15      0.00
  -13    3    3     -0.01      0.00
  -12    3    3     -0.01      0.00
  -11    3    3      0.04      0.00
  -10    3    3     -0.03      0.00
   -9    3    3     -0.08      0.00
   -8    3    3      0.31      0.00
   -7    3    3     -0.58      0.00
   -6    3    3      0.77      0.00
   -5    3    3     -0.78      0.00
   -4    3    3      0.56      0.00
   -3    3    3     -0.15      0.00
   -2    3    3     -0.21      0.00
   -1    3    3      0.12      0.00
    0    3    3      0.69      0.00
    1    3    3     -1.95      0.00
    2    3    3      2.99      0.00
    3    3    3     -3.29      0.00
    4    3    3      2.87      0.00
    5    3    3     -2.09      0.00
    6    3    3      1.30      0.00
    7    3    3     -0.66      0.00
    8    3    3      0.25      0.00
    9    3    3     -0.09      0.00
   10    3    3      0.08      0.00
   11    3    3     -0.11      0.00
   12    3    3      0.15      0.00
   13    3    3     -0.19      0.00
   14    3    3      0.19      0.00
   15    3    3     -0.14      0.00
   16    3    3      0.07      0.00
  -12    4    3     -0.04      0.00
  -11    4    3      0.00      0.00
  -10    4    3      0.04      0.00
   -9    4    3     -0.02      0.00
   -8    4    3     -0.12      0.00
   -7    4    3      0.36      0.00
   -6    4    3     -0.65      0.00
   -5    4    3      0.87      0.00
   -4    4    3     -0.93      0.00
   -3    4    3      0.76      0.00
   -2    4    3     -0.35      0.00
   -1    4    3     -0.06      0.00
    0    4    3      0.15      0.00
    1    4    3      0.26      0.00
    2    4    3     -1.01      0.00
    3    4    3      1.69      0.00
    4    4    3     -2.02      0.00
    5    4    3      1.93      0.00
    6    4    3     -1.57      0.00
    7    4    3      1.07      0.00
    8    4    3     -0.60      0.00
    9    4    3      0.29      0.00
   10    4    3     -0.14      0.00
   11    4    3      0.08      0.00
   12    4    3     -0.06      0.00
   13    4    3      0.09      0.00
   14    4    3     -0.13      0.00
   15    4    3      0.12      0.00
   16    4    3     -0.06      0.00
  -12    5    3      0.11      0.00
  -11    5    3     -0.08      0.00
  -10    5    3      0.01      0.00
   -9    5    3      0.04      0.00
   -8    5    3     -0.00      0.00
   -7    5    3     -0.15      0.00
   -6    5    3      0.39      0.00
   -5    5    3     -0.69      0.00
   -4    5    3      0.96      0.00
   -3    5    3     -1.05      0.00
   -2    5    3      0.86      0.00
   -1    5    3     -0.43      0.00
    0    5    3     -0.04      0.00
    1    5    3      0.26      0.00
    2    5    3     -0.09      0.00
    3    5    3     -0.38      0.00
    4    5    3      0.91      0.00
    5    5    3     -1.28      0.00
    6    5    3      1.38      0.00
    7    5    3     -1.21      0.00
    8    5    3      0.89      0.00
    9    5    3     -0.57      0.00
   10    5    3      0.32      0.00
   11    5    3     -0.14      0.00
   12    5    3      0.02      0.00
   13    5    3     -0.01      0.00
   14    5    3      0.08      0.00
   15    5    3     -0.12      0.00
   16    5    3      0.08      0.00
  -11    6    3      0.12      0.00
  -10    6    3     -0.05      0.00
   -9    6    3     -0.04      0.00
   -8    6    3      0.07      0.00
   -7    6    3     -0.00      0.00
   -6    6    3     -0.14      0.00
   -5    6    3      0.38      0.00
   -4    6    3     -0.69      0.00
   -3    6    3      0.95      0.00
   -2    6    3     -1.02      0.00
   -1    6    3      0.80      0.00
    0    6    3     -0.38      0.00
    1    6    3     -0.04      0.00
    2    6    3      0.26      0.00
    3    6    3     -0.19      0.00
    4    6    3     -0.12      0.00
    5    6    3      0.53      0.00
    6    6    3     -0.87      0.00
    7    6    3      1.02      0.00
    8    6    3     -0.97      0.00
    9    6    3      0.78      0.00
   10    6    3     -0.53      0.00
   11    6    3      0.28      0.00
   12    6    3     -0.08      0.00
   13    6    3     -0.02      0.00
   14    6    3     -0.01      0.00
   15    6    3      0.10      0.00
   16    6    3     -0.11      0.00
  -10    7    3      0.04      0.00
   -9    7    3      0.03      0.00
   -8    7    3     -0.08      0.00
   -7    7    3      0.07      0.00
   -6    7    3     -0.02      0.00
   -5    7    3     -0.09      0.00
   -4    7    3      0.30      0.00
   -3    7    3     -0.59      0.00
   -2    7    3      0.82      0.00
   -1    7    3     -0.85      0.00
    0    7    3      0.65      0.00
    1    7    3     -0.31      0.00
    2    7    3     -0.02      0.00
    3    7    3      0.21      0.00
    4    7    3     -0.19      0.00
    5    7    3     -0.01      0.00
    6    7    3      0.32      0.00
    7    7    3     -0.62      0.00
    8    7    3      0.79      0.00
    9    7    3     -0.80      0.00
   10    7    3      0.66      0.00
   11    7    3     -0.44      0.00
   12    7    3      0.21      0.00
   13    7    3     -0.04      0.00
   14    7    3     -0.02      0.00
   15    7    3     -0.03      0.00
   16    7    3      0.08      0.00
  -10    8    3      0.01      0.00
   -9    8    3     -0.02      0.00
   -8    8    3      0.03      0.00
   -7    8    3     -0.04      0.00
   -6    8    3      0.05      0.00
   -5    8    3     -0.06      0.00
   -4    8    3     -0.00      0.00
   -3    8    3      0.18      0.00
   -2    8    3     -0.44      0.00
   -1    8    3      0.63      0.00
    0    8    3     -0.66      0.00
    1    8    3      0.51      0.00
    2    8    3     -0.26      0.00
    3    8    3     -0.01      0.00
    4    8    3      0.17      0.00
    5    8    3     -0.17      0.00
    6    8    3      0.02      0.00
    7    8    3      0.22      0.00
    8    8    3     -0.45      0.00
    9    8    3      0.60      0.00
   10    8    3     -0.62      0.00
   11    8    3      0.52      0.00
   12    8    3     -0.34      0.00
   13    8    3      0.15      0.00
   14    8    3     -0.02      0.00
   15    8    3     -0.02      0.00
   16    8    3     -0.01      0.00
   -9    9    3      0.01      0.00
   -8    9    3      0.02      0.00
   -7    9    3     -0.03      0.00
   -6    9    3     -0.00      0.00
   -5    9    3      0.07      0.00
   -4    9    3     -0.12      0.00
   -3    9    3      0.07      0.00
   -2    9    3      0.10      0.00
   -1    9    3     -0.31      0.00
    0    9    3      0.48      0.00
    1    9    3     -0.53      0.00
    2    9    3      0.44      0.00
    3    9    3     -0.24      0.00
    4    9    3      0.03      0.00
    5    9    3      0.09      0.00
    6    9    3     -0.09      0.00
    7    9    3      0.01      0.00
    8    9    3      0.12      0.00
    9    9    3     -0.27      0.00
   10    9    3      0.39      0.00
   11    9    3     -0.44      0.00
   12    9    3      0.37      0.00
   13    9    3     -0.22      0.00
   14    9    3      0.07      0.00
   15    9    3      0.02      0.00
   16    9    3     -0.03      0.00
   -8   10    3     -0.02      0.00
   -7   10    3      0.05      0.00
   -6   10    3     -0.04      0.00
   -5   10    3     -0.01      0.00
   -4   10    3      0.08      0.00
   -3   10    3     -0.12      0.00
   -2   10    3      0.07      0.00
   -1   10    3      0.06      0.00
    0   10    3     -0.22      0.00
    1   10    3      0.37      0.00
    2   10    3     -0.45      0.00
    3   10    3      0.41      0.00
    4   10    3     -0.25      0.00
    5   10    3      0.09      0.00
    6   10    3      0.01      0.00
    7   10    3     -0.04      0.00
    8   10    3      0.05      0.00
    9   10    3     -0.02      0.00
   10   10    3     -0.09      0.00
   11   10    3      0.22      0.00
   12   10    3     -0.28      0.00
   13   10    3      0.21      0.00
   14   10    3     -0.07      0.00
   15   10    3     -0.02      0.00
   -7   11    3     -0.01      0.00
   -6   11    3      0.03      0.00
   -5   11    3     -0.03      0.00
   -4   11    3     -0.00      0.00
   -3   11    3      0.05      0.00
   -2   11    3     -0.08      0.00
   -1   11    3      0.07      0.00
    0   11    3     -0.01      0.00
    1   11    3     -0.12      0.00
    2   11    3      0.27      0.00
    3   11    3     -0.38      0.00
    4   11    3      0.35      0.00
    5   11    3     -0.23      0.00
    6   11    3      0.10      0.00
    7   11    3     -0.03      0.00
    8   11    3     -0.03      0.00
    9   11    3      0.10      0.00
   10   11    3     -0.10      0.00
   11   11    3     -0.01      0.00
   12   11    3      0.14      0.00
   13   11    3     -0.16      0.00
   14   11    3      0.07      0.00
   15   11    3      0.04      0.00
   -5   12    3      0.03      0.00
   -4   12    3     -0.06      0.00
   -3   12    3      0.03      0.00
   -2   12    3      0.04      0.00
   -1   12    3     -0.09      0.00
    0   12    3      0.12      0.00
    1   12    3     -0.09      0.00
    2   12    3     -0.02      0.00
    3   12    3      0.17      0.00
    4   12    3     -0.28      0.00
    5   12    3      0.26      0.00
    6   12    3     -0.16      0.00
    7   12    3      0.09      0.00
    8   12    3     -0.06      0.00
    9   12    3      0.00      0.00
   10   12    3      0.07      0.00
   11   12    3     -0.06      0.00
   12   12    3     -0.04      0.00
   13   12    3      0.12      0.00
   14   12    3     -0.09      0.00
   -4   13    3      0.07      0.00
   -3   13    3     -0.07      0.00
   -2   13    3      0.01      0.00
   -1   13    3      0.07      0.00
    0   13    3     -0.12      0.00
    1   13    3      0.15      0.00
    2   13    3     -0.12      0.00
    3   13    3      0.03      0.00
    4   13    3      0.11      0.00
    5   13    3     -0.20      0.00
    6   13    3      0.18      0.00
    7   13    3     -0.12      0.00
    8   13    3      0.10      0.00
    9   13    3     -0.10      0.00
   10   13    3      0.07      0.00
   11   13    3     -0.01      0.00
   12   13    3      0.02      0.00
   13   13    3     -0.09      0.00
   14   13    3      0.12      0.00
   -2   14    3     -0.03      0.00
   -1   14    3     -0.03      0.00
    0   14    3      0.07      0.00
    1   14    3     -0.10      0.00
    2   14    3      0.11      0.00
    3   14    3     -0.10      0.00
    4   14    3      0.01      0.00
    5   14    3      0.11      0.00
    6   14    3     -0.15      0.00
    7   14    3      0.11      0.00
    8   14    3     -0.07      0.00
    9   14    3      0.09      0.00
   10   14    3     -0.13      0.00
   11   14    3      0.11      0.00
   12   14    3     -0.07      0.00
   13   14    3      0.07      0.00
    0   15    3     -0.02      0.00
    1   15    3      0.03      0.00
    2   15    3     -0.04      0.00
    3   15    3      0.06      0.00
    4   15    3     -0.04      0.00
    5   15    3     -0.03      0.00
    6   15    3      0.09      0.00
    7   15    3     -0.07      0.00
    8   15    3      0.01      0.00
    9   15    3      0.00      0.00
   10   15    3      0.07      0.00
   11   15    3     -0.12      0.00
   12   15    3      0.11      0.00
    4   16    3      0.03      0.00
    5   16    3     -0.01      0.00
    6   16    3     -0.02      0.00
    7   16    3      0.02      0.00
    8   16    3      0.03      0.00
    9   16    3     -0.07      0.00
   -5  -15    4      0.07      0.00
  -10  -14    4      0.12      0.00
   -9  -14    4     -0.10      0.00
   -8  -14    4      0.05      0.00
   -7  -14    4     -0.01      0.00
   -6  -14    4      0.02      0.00
   -5  -14    4     -0.06      0.00
   -4  -14    4      0.09      0.00
   -3  -14    4     -0.07      0.00
   -2  -14    4      0.03      0.00
   -1  -14    4     -0.01      0.00
  -12  -13    4     -0.03      0.00
  -11  -13    4      0.04      0.00
  -10  -13    4     -0.05      0.00
   -9  -13    4      0.06      0.00
   -8  -13    4     -0.03      0.00
   -7  -13    4      0.01      0.00
   -6  -13    4     -0.03      0.00
   -5  -13    4      0.07      0.00
   -4  -13    4     -0.09      0.00
   -3  -13    4      0.06      0.00
   -2  -13    4     -0.01      0.00
   -1  -13    4     -0.01      0.00
    0  -13    4      0.01      0.00
    1  -13    4      0.01      0.00
    2  -13    4     -0.01      0.00
  -13  -12    4     -0.00      0.00
  -12  -12    4      0.01      0.00
  -11  -12    4      0.02      0.00
  -10  -12    4     -0.06      0.00
   -9  -12    4      0.07      0.00
   -8  -12    4     -0.06      0.00
   -7  -12    4      0.04      0.00
   -6  -12    4      0.01      0.00
   -5  -12    4     -0.07      0.00
   -4  -12    4      0.10      0.00
   -3  -12    4     -0.07      0.00
   -2  -12    4      0.00      0.00
   -1  -12    4      0.03      0.00
    0  -12    4     -0.04      0.00
    1  -12    4      0.04      0.00
    2  -12    4     -0.05      0.00
    3  -12    4      0.04      0.00
    4  -12    4     -0.00      0.00
  -14  -11    4      0.01      0.00
  -13  -11    4      0.02      0.00
  -12  -11    4     -0.05      0.00
  -11  -11    4      0.03      0.00
  -10  -11    4      0.06      0.00
   -9  -11    4     -0.14      0.00
   -8  -11    4      0.15      0.00
   -7  -11    4     -0.12      0.00
   -6  -11    4      0.05      0.00
   -5  -11    4      0.02      0.00
   -4  -11    4     -0.07      0.00
   -3  -11    4      0.07      0.00
   -2  -11    4     -0.03      0.00
   -1  -11    4     -0.02      0.00
    0  -11    4      0.05      0.00
    1  -11    4     -0.07      0.00
    2  -11    4      0.11      0.00
    3  -11    4     -0.10      0.00
    4  -11    4      0.04      0.00
    5  -11    4      0.04      0.00
  -14  -10    4      0.02      0.00
  -13  -10    4     -0.04      0.00
  -12  -10    4      0.10      0.00
  -11  -10    4     -0.13      0.00
  -10  -10    4      0.08      0.00
   -9  -10    4      0.04      0.00
   -8  -10    4     -0.13      0.00
   -7  -10    4      0.15      0.00
   -6  -10    4     -0.12      0.00
   -5  -10    4      0.07      0.00
   -4  -10    4     -0.00      0.00
   -3  -10    4     -0.05      0.00
   -2  -10    4      0.07      0.00
   -1  -10    4     -0.06      0.00
    0  -10    4      0.03      0.00
    1  -10    4      0.03      0.00
    2  -10    4     -0.09      0.00
    3  -10    4      0.12      0.00
    4  -10    4     -0.07      0.00
    5  -10    4     -0.02      0.00
    6  -10    4      0.09      0.00
  -14   -9    4     -0.03      0.00
  -13   -9    4      0.00      0.00
  -12   -9    4     -0.04      0.00
  -11   -9    4      0.14      0.00
  -10   -9    4     -0.18      0.00
   -9   -9    4      0.13      0.00
   -8   -9    4     -0.02      0.00
   -7   -9    4     -0.06      0.00
   -6   -9    4      0.10      0.00
   -5   -9    4     -0.10      0.00
   -4   -9    4      0.07      0.00
   -3   -9    4     -0.00      0.00
   -2   -9    4     -0.09      0.00
   -1   -9    4      0.15      0.00
    0   -9    4     -0.16      0.00
    1   -9    4      0.11      0.00
    2   -9    4     -0.03      0.00
    3   -9    4     -0.05      0.00
    4   -9    4      0.07      0.00
    5   -9    4     -0.01      0.00
    6   -9    4     -0.05      0.00
    7   -9    4      0.07      0.00
    8   -9    4     -0.05      0.00
  -15   -8    4     -0.05      0.00
  -14   -8    4      0.01      0.00
  -13   -8    4      0.06      0.00
  -12   -8    4     -0.10      0.00
  -11   -8    4      0.03      0.00
  -10   -8    4      0.10      0.00
   -9   -8    4     -0.18      0.00
   -8   -8    4      0.18      0.00
   -7   -8    4     -0.11      0.00
   -6   -8    4      0.04      0.00
   -5   -8    4      0.03      0.00
   -4   -8    4     -0.07      0.00
   -3   -8    4      0.06      0.00
   -2   -8    4      0.02      0.00
   -1   -8    4     -0.14      0.00
    0   -8    4      0.23      0.00
    1   -8    4     -0.26      0.00
    2   -8    4      0.20      0.00
    3   -8    4     -0.10      0.00
    4   -8    4      0.01      0.00
    5   -8    4      0.03      0.00
    6   -8    4     -0.01      0.00
    7   -8    4     -0.03      0.00
    8   -8    4      0.06      0.00
    9   -8    4     -0.06      0.00
  -15   -7    4      0.03      0.00
  -14   -7    4      0.01      0.00
  -13   -7    4     -0.11      0.00
  -12   -7    4      0.21      0.00
  -11   -7    4     -0.22      0.00
  -10   -7    4      0.12      0.00
   -9   -7    4      0.06      0.00
   -8   -7    4     -0.22      0.00
   -7   -7    4      0.28      0.00
   -6   -7    4     -0.26      0.00
   -5   -7    4      0.16      0.00
   -4   -7    4     -0.01      0.00
   -3   -7    4     -0.10      0.00
   -2   -7    4      0.10      0.00
   -1   -7    4     -0.00      0.00
    0   -7    4     -0.14      0.00
    1   -7    4      0.27      0.00
    2   -7    4     -0.33      0.00
    3   -7    4      0.28      0.00
    4   -7    4     -0.16      0.00
    5   -7    4      0.04      0.00
    6   -7    4      0.02      0.00
    7   -7    4     -0.00      0.00
    8   -7    4     -0.05      0.00
    9   -7    4      0.09      0.00
   10   -7    4     -0.08      0.00
  -15   -6    4     -0.01      0.00
  -14   -6    4     -0.01      0.00
  -13   -6    4      0.08      0.00
  -12   -6    4     -0.20      0.00
  -11   -6    4      0.29      0.00
  -10   -6    4     -0.28      0.00
   -9   -6    4      0.11      0.00
   -8   -6    4      0.13      0.00
   -7   -6    4     -0.36      0.00
   -6   -6    4      0.48      0.00
   -5   -6    4     -0.44      0.00
   -4   -6    4      0.24      0.00
   -3   -6    4      0.02      0.00
   -2   -6    4     -0.21      0.00
   -1   -6    4      0.22      0.00
    0   -6    4     -0.09      0.00
    1   -6    4     -0.11      0.00
    2   -6    4      0.30      0.00
    3   -6    4     -0.39      0.00
    4   -6    4      0.34      0.00
    5   -6    4     -0.19      0.00
    6   -6    4      0.05      0.00
    7   -6    4     -0.00      0.00
    8   -6    4      0.04      0.00
    9   -6    4     -0.09      0.00
   10   -6    4      0.10      0.00
  -15   -5    4     -0.01      0.00
  -14   -5    4     -0.04      0.00
  -13   -5    4      0.02      0.00
  -12   -5    4      0.07      0.00
  -11   -5    4     -0.21      0.00
  -10   -5    4      0.28      0.00
   -9   -5    4     -0.21      0.00
   -8   -5    4     -0.01      0.00
   -7   -5    4      0.31      0.00
   -6   -5    4     -0.59      0.00
   -5   -5    4      0.73      0.00
   -4   -5    4     -0.65      0.00
   -3   -5    4      0.33      0.00
   -2   -5    4      0.06      0.00
   -1   -5    4     -0.31      0.00
    0   -5    4      0.33      0.00
    1   -5    4     -0.15      0.00
    2   -5    4     -0.10      0.00
    3   -5    4      0.33      0.00
    4   -5    4     -0.44      0.00
    5   -5    4      0.39      0.00
    6   -5    4     -0.22      0.00
    7   -5    4      0.09      0.00
    8   -5    4     -0.06      0.00
    9   -5    4      0.08      0.00
   10   -5    4     -0.08      0.00
   11   -5    4      0.05      0.00
  -15   -4    4      0.04      0.00
  -14   -4    4      0.06      0.00
  -13   -4    4     -0.12      0.00
  -12   -4    4      0.08      0.00
  -11   -4    4      0.04      0.00
  -10   -4    4     -0.16      0.00
   -9   -4    4      0.20      0.00
   -8   -4    4     -0.10      0.00
   -7   -4    4     -0.12      0.00
   -6   -4    4      0.47      0.00
   -5   -4    4     -0.86      0.00
   -4   -4    4      1.11      0.00
   -3   -4    4     -1.01      0.00
   -2   -4    4      0.57      0.00
   -1   -4    4     -0.02      0.00
    0   -4    4     -0.32      0.00
    1   -4    4      0.36      0.00
    2   -4    4     -0.18      0.00
    3   -4    4     -0.09      0.00
    4   -4    4      0.34      0.00
    5   -4    4     -0.47      0.00
    6   -4    4      0.41      0.00
    7   -4    4     -0.26      0.00
    8   -4    4      0.14      0.00
    9   -4    4     -0.10      0.00
   10   -4    4      0.07      0.00
   11   -4    4     -0.02      0.00
   12   -4    4     -0.00      0.00
  -15   -3    4     -0.07      0.00
  -14   -3    4     -0.02      0.00
  -13   -3    4      0.13      0.00
  -12   -3    4     -0.18      0.00
  -11   -3    4      0.13      0.00
  -10   -3    4     -0.01      0.00
   -9   -3    4     -0.10      0.00
   -8   -3    4      0.16      0.00
   -7   -3    4     -0.11      0.00
   -6   -3    4     -0.13      0.00
   -5   -3    4      0.62      0.00
   -4   -3    4     -1.24      0.00
   -3   -3    4      1.66      0.00
   -2   -3    4     -1.55      0.00
   -1   -3    4      0.96      0.00
    0   -3    4     -0.25      0.00
    1   -3    4     -0.20      0.00
    2   -3    4      0.31      0.00
    3   -3    4     -0.19      0.00
    4   -3    4     -0.06      0.00
    5   -3    4      0.33      0.00
    6   -3    4     -0.46      0.00
    7   -3    4      0.41      0.00
    8   -3    4     -0.28      0.00
    9   -3    4      0.18      0.00
   10   -3    4     -0.13      0.00
   11   -3    4      0.04      0.00
   12   -3    4      0.04      0.00
   13   -3    4     -0.05      0.00
  -15   -2    4      0.06      0.00
  -14   -2    4     -0.02      0.00
  -13   -2    4     -0.08      0.00
  -12   -2    4      0.19      0.00
  -11   -2    4     -0.24      0.00
  -10   -2    4      0.21      0.00
   -9   -2    4     -0.09      0.00
   -8   -2    4     -0.08      0.00
   -7   -2    4      0.23      0.00
   -6   -2    4     -0.23      0.00
   -5   -2    4     -0.09      0.00
   -4   -2    4      0.81      0.00
   -3   -2    4     -1.70      0.00
   -2   -2    4      2.28      0.00
   -1   -2    4     -2.18      0.00
    0   -2    4      1.50      0.00
    1   -2    4     -0.67      0.00
    2   -2    4      0.08      0.00
    3   -2    4      0.18      0.00
    4   -2    4     -0.16      0.00
    5   -2    4     -0.05      0.00
    6   -2    4      0.31      0.00
    7   -2    4     -0.44      0.00
    8   -2    4      0.40      0.00
    9   -2    4     -0.29      0.00
   10   -2    4      0.23      0.00
   11   -2    4     -0.16      0.00
   12   -2    4      0.03      0.00
   13   -2    4      0.08      0.00
  -14   -1    4      0.01      0.00
  -13   -1    4      0.04      0.00
  -12   -1    4     -0.14      0.00
  -11   -1    4      0.27      0.00
  -10   -1    4     -0.36      0.00
   -9   -1    4      0.33      0.00
   -8   -1    4     -0.16      0.00
   -7   -1    4     -0.11      0.00
   -6   -1    4      0.34      0.00
   -5   -1    4     -0.36      0.00
   -4   -1    4     -0.05      0.00
   -3   -1    4      0.97      0.00
   -2   -1    4     -2.12      0.00
   -1   -1    4      2.90      0.00
    0   -1    4     -2.90      0.00
    1   -1    4      2.21      0.00
    2   -1    4     -1.26      0.00
    3   -1    4      0.48      0.00
    4   -1    4     -0.02      0.00
    5   -1    4     -0.09      0.00
    6   -1    4     -0.07      0.00
    7   -1    4      0.30      0.00
    8   -1    4     -0.40      0.00
    9   -1    4      0.36      0.00
   10   -1    4     -0.31      0.00
   11   -1    4      0.28      0.00
   12   -1    4     -0.21      0.00
   13   -1    4      0.05      0.00
   14   -1    4      0.08      0.00
  -14    0    4      0.03      0.00
  -13    0    4     -0.05      0.00
  -12    0    4      0.10      0.00
  -11    0    4     -0.21      0.00
  -10    0    4      0.38      0.00
   -9    0    4     -0.50      0.00
   -8    0    4      0.45      0.00
   -7    0    4     -0.22      0.00
   -6    0    4     -0.11      0.00
   -5    0    4      0.41      0.00
   -4    0    4     -0.48      0.00
   -3    0    4      0.01      0.00
   -2    0    4      1.12      0.00
   -1    0    4     -2.55      0.00
    0    0    4      3.57      0.00
    1    0    4     -3.64      0.00
    2    0    4      2.87      0.00
    3    0    4     -1.75      0.00
    4    0    4      0.78      0.00
    5    0    4     -0.19      0.00
    6    0    4      0.01      0.00
    7    0    4     -0.11      0.00
    8    0    4      0.27      0.00
    9    0    4     -0.32      0.00
   10    0    4      0.31      0.00
   11    0    4     -0.32      0.00
   12    0    4      0.33      0.00
   13    0    4     -0.25      0.00
   14    0    4      0.08      0.00
  -14    1    4     -0.04      0.00
  -13    1    4      0.06      0.00
  -12    1    4     -0.08      0.00
  -11    1    4      0.13      0.00
  -10    1    4     -0.26      0.00
   -9    1    4      0.46      0.00
   -8    1    4     -0.59      0.00
   -7    1    4      0.55      0.00
   -6    1    4     -0.31      0.00
   -5    1    4     -0.05      0.00
   -4    1    4      0.43      0.00
   -3    1    4     -0.53      0.00
   -2    1    4     -0.04      0.00
   -1    1    4      1.39      0.00
    0    1    4     -2.99      0.00
    1    1    4      4.00      0.00
    2    1    4     -3.94      0.00
    3    1    4      3.02      0.00
    4    1    4     -1.84      0.00
    5    1    4      0.88      0.00
    6    1    4     -0.30      0.00
    7    1    4      0.09      0.00
    8    1    4     -0.12      0.00
    9    1    4      0.19      0.00
   10    1    4     -0.23      0.00
   11    1    4      0.26      0.00
   12    1    4     -0.33      0.00
   13    1    4      0.34      0.00
   14    1    4     -0.23      0.00
   15    1    4      0.07      0.00
  -13    2    4     -0.04      0.00
  -12    2    4      0.05      0.00
  -11    2    4     -0.05      0.00
  -10    2    4      0.10      0.00
   -9    2    4     -0.27      0.00
   -8    2    4      0.50      0.00
   -7    2    4     -0.66      0.00
   -6    2    4      0.65      0.00
   -5    2    4     -0.43      0.00
   -4    2    4      0.05      0.00
   -3    2    4      0.34      0.00
   -2    2    4     -0.39      0.00
   -1    2    4     -0.29      0.00
    0    2    4      1.63      0.00
    1    2    4     -3.01      0.00
    2    2    4      3.70      0.00
    3    2    4     -3.45      0.00
    4    2    4      2.60      0.00
    5    2    4     -1.64      0.00
    6    2    4      0.86      0.00
    7    2    4     -0.36      0.00
    8    2    4      0.13      0.00
    9    2    4     -0.09      0.00
   10    2    4      0.12      0.00
   11    2    4     -0.16      0.00
   12    2    4      0.23      0.00
   13    2    4     -0.29      0.00
   14    2    4      0.25      0.00
   15    2    4     -0.14      0.00
  -13    3    4      0.01      0.00
  -12    3    4     -0.01      0.00
  -11    3    4     -0.01      0.00
  -10    3    4      0.01      0.00
   -9    3    4      0.07      0.00
   -8    3    4     -0.28      0.00
   -7    3    4      0.54      0.00
   -6    3    4     -0.73      0.00
   -5    3    4      0.75      0.00
   -4    3    4     -0.57      0.00
   -3    3    4      0.23      0.00
   -2    3    4      0.11      0.00
   -1    3    4     -0.11      0.00
    0    3    4     -0.45      0.00
    1    3    4      1.44      0.00
    2    3    4     -2.35      0.00
    3    3    4      2.75      0.00
    4    3    4     -2.57      0.00
    5    3    4      2.04      0.00
    6    3    4     -1.39      0.00
    7    3    4      0.80      0.00
    8    3    4     -0.37      0.00
    9    3    4      0.15      0.00
   10    3    4     -0.08      0.00
   11    3    4      0.09      0.00
   12    3    4     -0.12      0.00
   13    3    4      0.18      0.00
   14    3    4     -0.19      0.00
   15    3    4      0.12      0.00
  -12    4    4      0.02      0.00
  -11    4    4      0.01      0.00
  -10    4    4     -0.04      0.00
   -9    4    4      0.02      0.00
   -8    4    4      0.09      0.00
   -7    4    4     -0.32      0.00
   -6    4    4      0.58      0.00
   -5    4    4     -0.79      0.00
   -4    4    4      0.87      0.00
   -3    4    4     -0.75      0.00
   -2    4    4      0.46      0.00
   -1    4    4     -0.14      0.00
    0    4    4      0.03      0.00
    1    4    4     -0.30      0.00
    2    4    4      0.87      0.00
    3    4    4     -1.45      0.00
    4    4    4      1.80      0.00
    5    4    4     -1.84      0.00
    6    4    4      1.59      0.00
    7    4    4     -1.16      0.00
    8    4    4      0.70      0.00
    9    4    4     -0.36      0.00
   10    4    4      0.18      0.00
   11    4    4     -0.08      0.00
   12    4    4      0.05      0.00
   13    4    4     -0.08      0.00
   14    4    4      0.12      0.00
   15    4    4     -0.11      0.00
   16    4    4      0.03      0.00
  -12    5    4     -0.07      0.00
  -11    5    4      0.05      0.00
  -10    5    4      0.01      0.00
   -9    5    4     -0.05      0.00
   -8    5    4      0.02      0.00
   -7    5    4      0.11      0.00
   -6    5    4     -0.33      0.00
   -5    5    4      0.60      0.00
   -4    5    4     -0.85      0.00
   -3    5    4      0.98      0.00
   -2    5    4     -0.89      0.00
   -1    5    4      0.59      0.00
    0    5    4     -0.22      0.00
    1    5    4     -0.01      0.00
    2    5    4     -0.05      0.00
    3    5    4      0.38      0.00
    4    5    4     -0.83      0.00
    5    5    4      1.21      0.00
    6    5    4     -1.36      0.00
    7    5    4      1.23      0.00
    8    5    4     -0.94      0.00
    9    5    4      0.62      0.00
   10    5    4     -0.37      0.00
   11    5    4      0.17      0.00
   12    5    4     -0.04      0.00
   13    5    4      0.00      0.00
   14    5    4     -0.06      0.00
   15    5    4      0.11      0.00
   16    5    4     -0.07      0.00
  -11    6    4     -0.10      0.00
  -10    6    4      0.04      0.00
   -9    6    4      0.05      0.00
   -8    6    4     -0.08      0.00
   -7    6    4      0.04      0.00
   -6    6    4      0.09      0.00
   -5    6    4     -0.31      0.00
   -4    6    4      0.60      0.00
   -3    6    4     -0.87      0.00
   -2    6    4      0.99      0.00
   -1    6    4     -0.88      0.00
    0    6    4      0.56      0.00
    1    6    4     -0.19      0.00
    2    6    4     -0.05      0.00
    3    6    4      0.07      0.00
    4    6    4      0.15      0.00
    5    6    4     -0.50      0.00
    6    6    4      0.83      0.00
    7    6    4     -0.98      0.00
    8    6    4      0.95      0.00
    9    6    4     -0.78      0.00
   10    6    4      0.57      0.00
   11    6    4     -0.34      0.00
   12    6    4      0.12      0.00
   13    6    4      0.01      0.00
   14    6    4     -0.00      0.00
   15    6    4     -0.08      0.00
   16    6    4      0.11      0.00
  -10    7    4     -0.04      0.00
   -9    7    4     -0.04      0.00
   -8    7    4      0.10      0.00
   -7    7    4     -0.10      0.00
   -6    7    4      0.05      0.00
   -5    7    4      0.06      0.00
   -4    7    4     -0.26      0.00
   -3    7    4      0.54      0.00
   -2    7    4     -0.79      0.00
   -1    7    4      0.88      0.00
    0    7    4     -0.75      0.00
    1    7    4      0.48      0.00
    2    7    4     -0.17      0.00
    3    7    4     -0.05      0.00
    4    7    4      0.11      0.00
    5    7    4      0.02      0.00
    6    7    4     -0.28      0.00
    7    7    4      0.55      0.00
    8    7    4     -0.73      0.00
    9    7    4      0.77      0.00
   10    7    4     -0.69      0.00
   11    7    4      0.52      0.00
   12    7    4     -0.29      0.00
   13    7    4      0.09      0.00
   14    7    4      0.00      0.00
   15    7    4      0.02      0.00
   16    7    4     -0.08      0.00
   -9    8    4      0.04      0.00
   -8    8    4     -0.07      0.00
   -7    8    4      0.07      0.00
   -6    8    4     -0.07      0.00
   -5    8    4      0.06      0.00
   -4    8    4     -0.00      0.00
   -3    8    4     -0.17      0.00
   -2    8    4      0.42      0.00
   -1    8    4     -0.64      0.00
    0    8    4      0.72      0.00
    1    8    4     -0.62      0.00
    2    8    4      0.41      0.00
    3    8    4     -0.14      0.00
    4    8    4     -0.06      0.00
    5    8    4      0.13      0.00
    6    8    4     -0.04      0.00
    7    8    4     -0.17      0.00
    8    8    4      0.39      0.00
    9    8    4     -0.57      0.00
   10    8    4      0.64      0.00
   11    8    4     -0.60      0.00
   12    8    4      0.45      0.00
   13    8    4     -0.25      0.00
   14    8    4      0.09      0.00
   15    8    4     -0.01      0.00
   16    8    4      0.01      0.00
   -9    9    4     -0.04      0.00
   -8    9    4      0.02      0.00
   -7    9    4      0.00      0.00
   -6    9    4     -0.00      0.00
   -5    9    4     -0.05      0.00
   -4    9    4      0.09      0.00
   -3    9    4     -0.06      0.00
   -2    9    4     -0.09      0.00
   -1    9    4      0.31      0.00
    0    9    4     -0.50      0.00
    1    9    4      0.59      0.00
    2    9    4     -0.54      0.00
    3    9    4      0.36      0.00
    4    9    4     -0.13      0.00
    5    9    4     -0.04      0.00
    6    9    4      0.08      0.00
    7    9    4     -0.02      0.00
    8    9    4     -0.10      0.00
    9    9    4      0.26      0.00
   10    9    4     -0.42      0.00
   11    9    4      0.50      0.00
   12    9    4     -0.47      0.00
   13    9    4      0.34      0.00
   14    9    4     -0.17      0.00
   15    9    4      0.05      0.00
   16    9    4      0.02      0.00
   -8   10    4     -0.01      0.00
   -7   10    4     -0.04      0.00
   -6   10    4      0.07      0.00
   -5   10    4     -0.03      0.00
   -4   10    4     -0.05      0.00
   -3   10    4      0.11      0.00
   -2   10    4     -0.07      0.00
   -1   10    4     -0.05      0.00
    0   10    4      0.21      0.00
    1   10    4     -0.38      0.00
    2   10    4      0.49      0.00
    3   10    4     -0.48      0.00
    4   10    4      0.33      0.00
    5   10    4     -0.14      0.00
    6   10    4      0.03      0.00
    7   10    4      0.02      0.00
    8   10    4     -0.02      0.00
    9   10    4     -0.01      0.00
   10   10    4      0.12      0.00
   11   10    4     -0.27      0.00
   12   10    4      0.35      0.00
   13   10    4     -0.31      0.00
   14   10    4      0.17      0.00
   15   10    4     -0.05      0.00
   16   10    4     -0.01      0.00
   -7   11    4      0.00      0.00
   -6   11    4     -0.05      0.00
   -5   11    4      0.07      0.00
   -4   11    4     -0.03      0.00
   -3   11    4     -0.04      0.00
   -2   11    4      0.08      0.00
   -1   11    4     -0.07      0.00
    0   11    4      0.02      0.00
    1   11    4      0.10      0.00
    2   11    4     -0.27      0.00
    3   11    4      0.41      0.00
    4   11    4     -0.40      0.00
    5   11    4      0.27      0.00
    6   11    4     -0.14      0.00
    7   11    4      0.06      0.00
    8   11    4     -0.00      0.00
    9   11    4     -0.07      0.00
   10   11    4      0.08      0.00
   11   11    4      0.03      0.00
   12   11    4     -0.18      0.00
   13   11    4      0.22      0.00
   14   11    4     -0.13      0.00
   15   11    4      0.02      0.00
   -5   12    4     -0.04      0.00
   -4   12    4      0.07      0.00
   -3   12    4     -0.04      0.00
   -2   12    4     -0.02      0.00
   -1   12    4      0.09      0.00
    0   12    4     -0.13      0.00
    1   12    4      0.12      0.00
    2   12    4     -0.01      0.00
    3   12    4     -0.17      0.00
    4   12    4      0.30      0.00
    5   12    4     -0.29      0.00
    6   12    4      0.19      0.00
    7   12    4     -0.12      0.00
    8   12    4      0.09      0.00
    9   12    4     -0.02      0.00
   10   12    4     -0.06      0.00
   11   12    4      0.07      0.00
   12   12    4      0.04      0.00
   13   12    4     -0.15      0.00
   14   12    4      0.12      0.00
   -4   13    4     -0.07      0.00
   -3   13    4      0.09      0.00
   -2   13    4     -0.03      0.00
   -1   13    4     -0.06      0.00
    0   13    4      0.14      0.00
    1   13    4     -0.19      0.00
    2   13    4      0.18      0.00
    3   13    4     -0.07      0.00
    4   13    4     -0.10      0.00
    5   13    4      0.20      0.00
    6   13    4     -0.19      0.00
    7   13    4      0.14      0.00
    8   13    4     -0.13      0.00
    9   13    4      0.13      0.00
   10   13    4     -0.07      0.00
   11   13    4     -0.00      0.00
   12   13    4     -0.02      0.00
   13   13    4      0.11      0.00
   14   13    4     -0.15      0.00
   -2   14    4      0.06      0.00
   -1   14    4      0.01      0.00
    0   14    4     -0.08      0.00
    1   14    4      0.14      0.00
    2   14    4     -0.19      0.00
    3   14    4      0.17      0.00
    4   14    4     -0.06      0.00
    5   14    4     -0.09      0.00
    6   14    4      0.16      0.00
    7   14    4     -0.14      0.00
    8   14    4      0.12      0.00
    9   14    4     -0.15      0.00
   10   14    4      0.16      0.00
   11   14    4     -0.12      0.00
   12   14    4      0.06      0.00
   13   14    4     -0.09      0.00
    0   15    4      0.02      0.00
    1   15    4     -0.05      0.00
    2   15    4      0.09      0.00
    3   15    4     -0.13      0.00
    4   15    4      0.10      0.00
    5   15    4     -0.00      0.00
    6   15    4     -0.10      0.00
    7   15    4      0.11      0.00
    8   15    4     -0.07      0.00
    9   15    4      0.07      0.00
   10   15    4     -0.12      0.00
   11   15    4      0.15      0.00
   12   15    4     -0.12      0.00
    4   16    4     -0.07      0.00
    5   16    4      0.04      0.00
    6   16    4      0.03      0.00
    7   16    4     -0.06      0.00
    8   16    4      0.02      0.00
    9   16    4      0.02      0.00
   10   16    4      0.02      0.00
   -9  -14    5      0.12      0.00
   -8  -14    5     -0.07      0.00
   -7  -14    5      0.02      0.00
   -6  -14    5     -0.02      0.00
   -5  -14    5      0.06      0.00
   -4  -14    5     -0.09      0.00
   -3  -14    5      0.07      0.00
   -2  -14    5     -0.03      0.00
  -11  -13    5     -0.07      0.00
  -10  -13    5      0.09      0.00
   -9  -13    5     -0.09      0.00
   -8  -13    5      0.06      0.00
   -7  -13    5     -0.02      0.00
   -6  -13    5      0.02      0.00
   -5  -13    5     -0.06      0.00
   -4  -13    5      0.10      0.00
   -3  -13    5     -0.08      0.00
   -2  -13    5      0.04      0.00
   -1  -13    5      0.00      0.00
    0  -13    5     -0.02      0.00
    1  -13    5      0.02      0.00
  -12  -12    5     -0.03      0.00
  -11  -12    5      0.01      0.00
  -10  -12    5      0.02      0.00
   -9  -12    5     -0.04      0.00
   -8  -12    5      0.05      0.00
   -7  -12    5     -0.05      0.00
   -6  -12    5      0.01      0.00
   -5  -12    5      0.05      0.00
   -4  -12    5     -0.10      0.00
   -3  -12    5      0.09      0.00
   -2  -12    5     -0.04      0.00
   -1  -12    5     -0.00      0.00
    0  -12    5      0.02      0.00
    1  -12    5     -0.04      0.00
    2  -12    5      0.06      0.00
    3  -12    5     -0.06      0.00
  -13  -11    5     -0.01      0.00
  -12  -11    5      0.05      0.00
  -11  -11    5     -0.03      0.00
  -10  -11    5     -0.04      0.00
   -9  -11    5      0.13      0.00
   -8  -11    5     -0.16      0.00
   -7  -11    5      0.14      0.00
   -6  -11    5     -0.08      0.00
   -5  -11    5     -0.00      0.00
   -4  -11    5      0.07      0.00
   -3  -11    5     -0.08      0.00
   -2  -11    5      0.04      0.00
   -1  -11    5     -0.00      0.00
    0  -11    5     -0.02      0.00
    1  -11    5      0.05      0.00
    2  -11    5     -0.10      0.00
    3  -11    5      0.12      0.00
    4  -11    5     -0.07      0.00
    5  -11    5     -0.02      0.00
  -14  -10    5      0.01      0.00
  -13  -10    5      0.00      0.00
  -12  -10    5     -0.06      0.00
  -11  -10    5      0.10      0.00
  -10  -10    5     -0.06      0.00
   -9  -10    5     -0.06      0.00
   -8  -10    5      0.15      0.00
   -7  -10    5     -0.18      0.00
   -6  -10    5      0.14      0.00
   -5  -10    5     -0.07      0.00
   -4  -10    5      0.00      0.00
   -3  -10    5      0.04      0.00
   -2  -10    5     -0.04      0.00
   -1  -10    5      0.02      0.00
    0  -10    5     -0.02      0.00
    1  -10    5     -0.01      0.00
    2  -10    5      0.08      0.00
    3  -10    5     -0.13      0.00
    4  -10    5      0.11      0.00
    5  -10    5     -0.00      0.00
    6  -10    5     -0.09      0.00
  -14   -9    5      0.02      0.00
  -13   -9    5      0.02      0.00
  -12   -9    5      0.01      0.00
  -11   -9    5     -0.08      0.00
  -10   -9    5      0.13      0.00
   -9   -9    5     -0.08      0.00
   -8   -9    5     -0.03      0.00
   -7   -9    5      0.11      0.00
   -6   -9    5     -0.13      0.00
   -5   -9    5      0.11      0.00
   -4   -9    5     -0.07      0.00
   -3   -9    5      0.02      0.00
   -2   -9    5      0.03      0.00
   -1   -9    5     -0.06      0.00
    0   -9    5      0.08      0.00
    1   -9    5     -0.07      0.00
    2   -9    5      0.01      0.00
    3   -9    5      0.07      0.00
    4   -9    5     -0.09      0.00
    5   -9    5      0.02      0.00
    6   -9    5      0.07      0.00
    7   -9    5     -0.10      0.00
  -14   -8    5     -0.02      0.00
  -13   -8    5     -0.05      0.00
  -12   -8    5      0.11      0.00
  -11   -8    5     -0.07      0.00
  -10   -8    5     -0.03      0.00
   -9   -8    5      0.10      0.00
   -8   -8    5     -0.09      0.00
   -7   -8    5      0.03      0.00
   -6   -8    5      0.03      0.00
   -5   -8    5     -0.07      0.00
   -4   -8    5      0.08      0.00
   -3   -8    5     -0.05      0.00
   -2   -8    5     -0.01      0.00
   -1   -8    5      0.08      0.00
    0   -8    5     -0.14      0.00
    1   -8    5      0.16      0.00
    2   -8    5     -0.14      0.00
    3   -8    5      0.06      0.00
    4   -8    5      0.01      0.00
    5   -8    5     -0.02      0.00
    6   -8    5     -0.03      0.00
    7   -8    5      0.07      0.00
    8   -8    5     -0.07      0.00
    9   -8    5      0.03      0.00
  -14   -7    5     -0.01      0.00
  -13   -7    5      0.09      0.00
  -12   -7    5     -0.19      0.00
  -11   -7    5      0.24      0.00
  -10   -7    5     -0.19      0.00
   -9   -7    5      0.05      0.00
   -8   -7    5      0.08      0.00
   -7   -7    5     -0.15      0.00
   -6   -7    5      0.14      0.00
   -5   -7    5     -0.08      0.00
   -4   -7    5     -0.00      0.00
   -3   -7    5      0.05      0.00
   -2   -7    5     -0.04      0.00
   -1   -7    5     -0.03      0.00
    0   -7    5      0.12      0.00
    1   -7    5     -0.20      0.00
    2   -7    5      0.24      0.00
    3   -7    5     -0.21      0.00
    4   -7    5      0.12      0.00
    5   -7    5     -0.03      0.00
    6   -7    5      0.00      0.00
    7   -7    5     -0.03      0.00
    8   -7    5      0.06      0.00
    9   -7    5     -0.06      0.00
   10   -7    5      0.05      0.00
  -15   -6    5     -0.00      0.00
  -14   -6    5      0.03      0.00
  -13   -6    5     -0.10      0.00
  -12   -6    5      0.20      0.00
  -11   -6    5     -0.30      0.00
  -10   -6    5      0.33      0.00
   -9   -6    5     -0.23      0.00
   -8   -6    5      0.03      0.00
   -7   -6    5      0.18      0.00
   -6   -6    5     -0.31      0.00
   -5   -6    5      0.31      0.00
   -4   -6    5     -0.18      0.00
   -3   -6    5      0.02      0.00
   -2   -6    5      0.09      0.00
   -1   -6    5     -0.10      0.00
    0   -6    5      0.02      0.00
    1   -6    5      0.11      0.00
    2   -6    5     -0.25      0.00
    3   -6    5      0.32      0.00
    4   -6    5     -0.27      0.00
    5   -6    5      0.14      0.00
    6   -6    5     -0.03      0.00
    7   -6    5      0.01      0.00
    8   -6    5     -0.04      0.00
    9   -6    5      0.07      0.00
   10   -6    5     -0.07      0.00
  -15   -5    5      0.01      0.00
  -14   -5    5     -0.00      0.00
  -13   -5    5      0.03      0.00
  -12   -5    5     -0.10      0.00
  -11   -5    5      0.21      0.00
  -10   -5    5     -0.30      0.00
   -9   -5    5      0.29      0.00
   -8   -5    5     -0.13      0.00
   -7   -5    5     -0.13      0.00
   -6   -5    5      0.39      0.00
   -5   -5    5     -0.54      0.00
   -4   -5    5      0.49      0.00
   -3   -5    5     -0.26      0.00
   -2   -5    5     -0.01      0.00
   -1   -5    5      0.19      0.00
    0   -5    5     -0.20      0.00
    1   -5    5      0.09      0.00
    2   -5    5      0.09      0.00
    3   -5    5     -0.27      0.00
    4   -5    5      0.36      0.00
    5   -5    5     -0.30      0.00
    6   -5    5      0.15      0.00
    7   -5    5     -0.04      0.00
    8   -5    5      0.04      0.00
    9   -5    5     -0.08      0.00
   10   -5    5      0.08      0.00
   11   -5    5     -0.05      0.00
  -15   -4    5     -0.02      0.00
  -14   -4    5     -0.04      0.00
  -13   -4    5      0.08      0.00
  -12   -4    5     -0.05      0.00
  -11   -4    5     -0.04      0.00
  -10   -4    5      0.16      0.00
   -9   -4    5     -0.23      0.00
   -8   -4    5      0.18      0.00
   -7   -4    5      0.01      0.00
   -6   -4    5     -0.30      0.00
   -5   -4    5      0.61      0.00
   -4   -4    5     -0.80      0.00
   -3   -4    5      0.73      0.00
   -2   -4    5     -0.41      0.00
   -1   -4    5      0.03      0.00
    0   -4    5      0.22      0.00
    1   -4    5     -0.26      0.00
    2   -4    5      0.14      0.00
    3   -4    5      0.07      0.00
    4   -4    5     -0.27      0.00
    5   -4    5      0.37      0.00
    6   -4    5     -0.30      0.00
    7   -4    5      0.16      0.00
    8   -4    5     -0.09      0.00
    9   -4    5      0.09      0.00
   10   -4    5     -0.09      0.00
   11   -4    5      0.04      0.00
   12   -4    5     -0.01      0.00
  -15   -3    5      0.05      0.00
  -14   -3    5      0.03      0.00
  -13   -3    5     -0.13      0.00
  -12   -3    5      0.17      0.00
  -11   -3    5     -0.13      0.00
  -10   -3    5      0.01      0.00
   -9   -3    5      0.10      0.00
   -8   -3    5     -0.16      0.00
   -7   -3    5      0.13      0.00
   -6   -3    5      0.04      0.00
   -5   -3    5     -0.40      0.00
   -4   -3    5      0.85      0.00
   -3   -3    5     -1.16      0.00
   -2   -3    5      1.11      0.00
   -1   -3    5     -0.71      0.00
    0   -3    5      0.21      0.00
    1   -3    5      0.13      0.00
    2   -3    5     -0.25      0.00
    3   -3    5      0.17      0.00
    4   -3    5      0.03      0.00
    5   -3    5     -0.25      0.00
    6   -3    5      0.36      0.00
    7   -3    5     -0.30      0.00
    8   -3    5      0.19      0.00
    9   -3    5     -0.14      0.00
   10   -3    5      0.13      0.00
   11   -3    5     -0.07      0.00
   12   -3    5     -0.02      0.00
  -15   -2    5     -0.07      0.00
  -14   -2    5      0.02      0.00
  -13   -2    5      0.08      0.00
  -12   -2    5     -0.18      0.00
  -11   -2    5      0.22      0.00
  -10   -2    5     -0.19      0.00
   -9   -2    5      0.08      0.00
   -8   -2    5      0.06      0.00
   -7   -2    5     -0.18      0.00
   -6   -2    5      0.22      0.00
   -5   -2    5     -0.02      0.00
   -4   -2    5     -0.48      0.00
   -3   -2    5      1.14      0.00
   -2   -2    5     -1.59      0.00
   -1   -2    5      1.56      0.00
    0   -2    5     -1.10      0.00
    1   -2    5      0.52      0.00
    2   -2    5     -0.09      0.00
    3   -2    5     -0.13      0.00
    4   -2    5      0.14      0.00
    5   -2    5      0.03      0.00
    6   -2    5     -0.24      0.00
    7   -2    5      0.35      0.00
    8   -2    5     -0.30      0.00
    9   -2    5      0.22      0.00
   10   -2    5     -0.20      0.00
   11   -2    5      0.16      0.00
   12   -2    5     -0.05      0.00
   13   -2    5     -0.05      0.00
  -14   -1    5     -0.04      0.00
  -13   -1    5     -0.01      0.00
  -12   -1    5      0.11      0.00
  -11   -1    5     -0.22      0.00
  -10   -1    5      0.30      0.00
   -9   -1    5     -0.29      0.00
   -8   -1    5      0.17      0.00
   -7   -1    5      0.04      0.00
   -6   -1    5     -0.26      0.00
   -5   -1    5      0.33      0.00
   -4   -1    5     -0.07      0.00
   -3   -1    5     -0.56      0.00
   -2   -1    5      1.37      0.00
   -1   -1    5     -1.95      0.00
    0   -1    5      2.01      0.00
    1   -1    5     -1.59      0.00
    2   -1    5      0.98      0.00
    3   -1    5     -0.43      0.00
    4   -1    5      0.06      0.00
    5   -1    5      0.05      0.00
    6   -1    5      0.07      0.00
    7   -1    5     -0.25      0.00
    8   -1    5      0.32      0.00
    9   -1    5     -0.28      0.00
   10   -1    5      0.25      0.00
   11   -1    5     -0.26      0.00
   12   -1    5      0.20      0.00
   13   -1    5     -0.06      0.00
   14   -1    5     -0.05      0.00
  -14    0    5     -0.00      0.00
  -13    0    5      0.01      0.00
  -12    0    5     -0.06      0.00
  -11    0    5      0.16      0.00
  -10    0    5     -0.31      0.00
   -9    0    5      0.44      0.00
   -8    0    5     -0.43      0.00
   -7    0    5      0.26      0.00
   -6    0    5      0.01      0.00
   -5    0    5     -0.29      0.00
   -4    0    5      0.40      0.00
   -3    0    5     -0.15      0.00
   -2    0    5     -0.57      0.00
   -1    0    5      1.53      0.00
    0    0    5     -2.29      0.00
    1    0    5      2.48      0.00
    2    0    5     -2.12      0.00
    3    0    5      1.44      0.00
    4    0    5     -0.74      0.00
    5    0    5      0.25      0.00
    6    0    5     -0.06      0.00
    7    0    5      0.13      0.00
    8    0    5     -0.24      0.00
    9    0    5      0.27      0.00
   10    0    5     -0.25      0.00
   11    0    5      0.27      0.00
   12    0    5     -0.30      0.00
   13    0    5      0.23      0.00
   14    0    5     -0.09      0.00
  -14    1    5      0.04      0.00
  -13    1    5     -0.05      0.00
  -12    1    5      0.06      0.00
  -11    1    5     -0.10      0.00
  -10    1    5      0.22      0.00
   -9    1    5     -0.41      0.00
   -8    1    5      0.56      0.00
   -7    1    5     -0.55      0.00
   -6    1    5      0.37      0.00
   -5    1    5     -0.06      0.00
   -4    1    5     -0.27      0.00
   -3    1    5      0.45      0.00
   -2    1    5     -0.20      0.00
   -1    1    5     -0.62      0.00
    0    1    5      1.72      0.00
    1    1    5     -2.58      0.00
    2    1    5      2.80      0.00
    3    1    5     -2.38      0.00
    4    1    5      1.63      0.00
    5    1    5     -0.89      0.00
    6    1    5      0.38      0.00
    7    1    5     -0.17      0.00
    8    1    5      0.15      0.00
    9    1    5     -0.18      0.00
   10    1    5      0.18      0.00
   11    1    5     -0.21      0.00
   12    1    5      0.29      0.00
   13    1    5     -0.31      0.00
   14    1    5      0.22      0.00
   15    1    5     -0.09      0.00
  -13    2    5      0.05      0.00
  -12    2    5     -0.05      0.00
  -11    2    5      0.05      0.00
  -10    2    5     -0.09      0.00
   -9    2    5      0.24      0.00
   -8    2    5     -0.46      0.00
   -7    2    5      0.63      0.00
   -6    2    5     -0.65      0.00
   -5    2    5      0.48      0.00
   -4    2    5     -0.16      0.00
   -3    2    5     -0.20      0.00
   -2    2    5      0.38      0.00
   -1    2    5     -0.06      0.00
    0    2    5     -0.79      0.00
    1    2    5      1.85      0.00
    2    2    5     -2.56      0.00
    3    2    5      2.65      0.00
    4    2    5     -2.22      0.00
    5    2    5      1.56      0.00
    6    2    5     -0.92      0.00
    7    2    5      0.46      0.00
    8    2    5     -0.22      0.00
    9    2    5      0.13      0.00
   10    2    5     -0.10      0.00
   11    2    5      0.12      0.00
   12    2    5     -0.19      0.00
   13    2    5      0.26      0.00
   14    2    5     -0.24      0.00
   15    2    5      0.14      0.00
  -13    3    5     -0.01      0.00
  -12    3    5      0.02      0.00
  -11    3    5     -0.01      0.00
  -10    3    5      0.00      0.00
   -9    3    5     -0.07      0.00
   -8    3    5      0.25      0.00
   -7    3    5     -0.50      0.00
   -6    3    5      0.69      0.00
   -5    3    5     -0.72      0.00
   -4    3    5      0.58      0.00
   -3    3    5     -0.30      0.00
   -2    3    5     -0.01      0.00
   -1    3    5      0.12      0.00
    0    3    5      0.18      0.00
    1    3    5     -0.86      0.00
    2    3    5      1.61      0.00
    3    3    5     -2.09      0.00
    4    3    5      2.15      0.00
    5    3    5     -1.87      0.00
    6    3    5      1.39      0.00
    7    3    5     -0.88      0.00
    8    3    5      0.47      0.00
    9    3    5     -0.22      0.00
   10    3    5      0.11      0.00
   11    3    5     -0.07      0.00
   12    3    5      0.09      0.00
   13    3    5     -0.16      0.00
   14    3    5      0.18      0.00
   15    3    5     -0.11      0.00
  -12    4    5      0.01      0.00
  -11    4    5     -0.02      0.00
  -10    4    5      0.04      0.00
   -9    4    5     -0.03      0.00
   -8    4    5     -0.07      0.00
   -7    4    5      0.27      0.00
   -6    4    5     -0.52      0.00
   -5    4    5      0.71      0.00
   -4    4    5     -0.78      0.00
   -3    4    5      0.71      0.00
   -2    4    5     -0.51      0.00
   -1    4    5      0.27      0.00
    0    4    5     -0.13      0.00
    1    4    5      0.25      0.00
    2    4    5     -0.63      0.00
    3    4    5      1.11      0.00
    4    4    5     -1.50      0.00
    5    4    5      1.66      0.00
    6    4    5     -1.55      0.00
    7    4    5      1.20      0.00
    8    4    5     -0.79      0.00
    9    4    5      0.45      0.00
   10    4    5     -0.23      0.00
   11    4    5      0.10      0.00
   12    4    5     -0.04      0.00
   13    4    5      0.07      0.00
   14    4    5     -0.11      0.00
   15    4    5      0.09      0.00
   16    4    5     -0.01      0.00
  -12    5    5      0.02      0.00
  -11    5    5     -0.01      0.00
  -10    5    5     -0.03      0.00
   -9    5    5      0.06      0.00
   -8    5    5     -0.03      0.00
   -7    5    5     -0.08      0.00
   -6    5    5      0.27      0.00
   -5    5    5     -0.51      0.00
   -4    5    5      0.73      0.00
   -3    5    5     -0.86      0.00
   -2    5    5      0.86      0.00
   -1    5    5     -0.69      0.00
    0    5    5      0.42      0.00
    1    5    5     -0.19      0.00
    2    5    5      0.14      0.00
    3    5    5     -0.34      0.00
    4    5    5      0.71      0.00
    5    5    5     -1.10      0.00
    6    5    5      1.30      0.00
    7    5    5     -1.23      0.00
    8    5    5      0.97      0.00
    9    5    5     -0.67      0.00
   10    5    5      0.43      0.00
   11    5    5     -0.22      0.00
   12    5    5      0.06      0.00
   13    5    5      0.00      0.00
   14    5    5      0.04      0.00
   15    5    5     -0.09      0.00
   16    5    5      0.05      0.00
  -11    6    5      0.06      0.00
  -10    6    5     -0.01      0.00
   -9    6    5     -0.06      0.00
   -8    6    5      0.09      0.00
   -7    6    5     -0.05      0.00
   -6    6    5     -0.05      0.00
   -5    6    5      0.23      0.00
   -4    6    5     -0.48      0.00
   -3    6    5      0.75      0.00
   -2    6    5     -0.91      0.00
   -1    6    5      0.90      0.00
    0    6    5     -0.71      0.00
    1    6    5      0.41      0.00
    2    6    5     -0.15      0.00
    3    6    5      0.05      0.00
    4    6    5     -0.18      0.00
    5    6    5      0.47      0.00
    6    6    5     -0.77      0.00
    7    6    5      0.93      0.00
    8    6    5     -0.91      0.00
    9    6    5      0.77      0.00
   10    6    5     -0.60      0.00
   11    6    5      0.39      0.00
   12    6    5     -0.17      0.00
   13    6    5      0.00      0.00
   14    6    5      0.02      0.00
   15    6    5      0.06      0.00
   16    6    5     -0.10      0.00
  -10    7    5      0.04      0.00
   -9    7    5      0.05      0.00
   -8    7    5     -0.12      0.00
   -7    7    5      0.13      0.00
   -6    7    5     -0.08      0.00
   -5    7    5     -0.02      0.00
   -4    7    5      0.19      0.00
   -3    7    5     -0.45      0.00
   -2    7    5      0.71      0.00
   -1    7    5     -0.85      0.00
    0    7    5      0.82      0.00
    1    7    5     -0.63      0.00
    2    7    5      0.36      0.00
    3    7    5     -0.11      0.00
    4    7    5     -0.00      0.00
    5    7    5     -0.06      0.00
    6    7    5      0.26      0.00
    7    7    5     -0.48      0.00
    8    7    5      0.64      0.00
    9    7    5     -0.70      0.00
   10    7    5      0.67      0.00
   11    7    5     -0.55      0.00
   12    7    5      0.34      0.00
   13    7    5     -0.13      0.00
   14    7    5      0.00      0.00
   15    7    5     -0.01      0.00
   16    7    5      0.07      0.00
   -9    8    5     -0.04      0.00
   -8    8    5      0.10      0.00
   -7    8    5     -0.11      0.00
   -6    8    5      0.10      0.00
   -5    8    5     -0.07      0.00
   -4    8    5      0.02      0.00
   -3    8    5      0.13      0.00
   -2    8    5     -0.37      0.00
   -1    8    5      0.60      0.00
    0    8    5     -0.73      0.00
    1    8    5      0.71      0.00
    2    8    5     -0.55      0.00
    3    8    5      0.31      0.00
    4    8    5     -0.08      0.00
    5    8    5     -0.05      0.00
    6    8    5      0.03      0.00
    7    8    5      0.11      0.00
    8    8    5     -0.30      0.00
    9    8    5      0.49      0.00
   10    8    5     -0.60      0.00
   11    8    5      0.61      0.00
   12    8    5     -0.50      0.00
   13    8    5      0.32      0.00
   14    8    5     -0.14      0.00
   15    8    5      0.04      0.00
   16    8    5     -0.02      0.00
   -9    9    5      0.05      0.00
   -8    9    5     -0.05      0.00
   -7    9    5      0.04      0.00
   -6    9    5     -0.02      0.00
   -5    9    5      0.03      0.00
   -4    9    5     -0.07      0.00
   -3    9    5      0.05      0.00
   -2    9    5      0.07      0.00
   -1    9    5     -0.28      0.00
    0    9    5      0.49      0.00
    1    9    5     -0.62      0.00
    2    9    5      0.62      0.00
    3    9    5     -0.48      0.00
    4    9    5      0.26      0.00
    5    9    5     -0.06      0.00
    6    9    5     -0.04      0.00
    7    9    5      0.03      0.00
    8    9    5      0.06      0.00
    9    9    5     -0.22      0.00
   10    9    5      0.40      0.00
   11    9    5     -0.53      0.00
   12    9    5      0.53      0.00
   13    9    5     -0.43      0.00
   14    9    5      0.28      0.00
   15    9    5     -0.13      0.00
   16    9    5      0.03      0.00
   -8   10    5      0.03      0.00
   -7   10    5      0.02      0.00
   -6   10    5     -0.07      0.00
   -5   10    5      0.06      0.00
   -4   10    5      0.01      0.00
   -3   10    5     -0.07      0.00
   -2   10    5      0.06      0.00
   -1   10    5      0.04      0.00
    0   10    5     -0.20      0.00
    1   10    5      0.39      0.00
    2   10    5     -0.53      0.00
    3   10    5      0.54      0.00
    4   10    5     -0.42      0.00
    5   10    5      0.23      0.00
    6   10    5     -0.09      0.00
    7   10    5      0.02      0.00
    8   10    5      0.00      0.00
    9   10    5      0.02      0.00
   10   10    5     -0.14      0.00
   11   10    5      0.31      0.00
   12   10    5     -0.42      0.00
   13   10    5      0.40      0.00
   14   10    5     -0.29      0.00
   15   10    5      0.16      0.00
   16   10    5     -0.06      0.00
   -6   11    5      0.07      0.00
   -5   11    5     -0.11      0.00
   -4   11    5      0.07      0.00
   -3   11    5      0.01      0.00
   -2   11    5     -0.06      0.00
   -1   11    5      0.06      0.00
    0   11    5     -0.01      0.00
    1   11    5     -0.10      0.00
    2   11    5      0.28      0.00
    3   11    5     -0.43      0.00
    4   11    5      0.44      0.00
    5   11    5     -0.33      0.00
    6   11    5      0.20      0.00
    7   11    5     -0.12      0.00
    8   11    5      0.05      0.00
    9   11    5      0.03      0.00
   10   11    5     -0.04      0.00
   11   11    5     -0.07      0.00
   12   11    5      0.22      0.00
   13   11    5     -0.28      0.00
   14   11    5      0.20      0.00
   15   11    5     -0.10      0.00
   -5   12    5      0.07      0.00
   -4   12    5     -0.10      0.00
   -3   12    5      0.07      0.00
   -2   12    5      0.00      0.00
   -1   12    5     -0.07      0.00
    0   12    5      0.12      0.00
    1   12    5     -0.12      0.00
    2   12    5      0.01      0.00
    3   12    5      0.17      0.00
    4   12    5     -0.31      0.00
    5   12    5      0.31      0.00
    6   12    5     -0.22      0.00
    7   12    5      0.15      0.00
    8   12    5     -0.12      0.00
    9   12    5      0.05      0.00
   10   12    5      0.05      0.00
   11   12    5     -0.05      0.00
   12   12    5     -0.06      0.00
   13   12    5      0.16      0.00
   14   12    5     -0.14      0.00
   -4   13    5      0.08      0.00
   -3   13    5     -0.10      0.00
   -2   13    5      0.05      0.00
   -1   13    5      0.03      0.00
    0   13    5     -0.13      0.00
    1   13    5      0.20      0.00
    2   13    5     -0.21      0.00
    3   13    5      0.09      0.00
    4   13    5      0.08      0.00
    5   13    5     -0.19      0.00
    6   13    5      0.18      0.00
    7   13    5     -0.14      0.00
    8   13    5      0.15      0.00
    9   13    5     -0.15      0.00
   10   13    5      0.08      0.00
   11   13    5      0.01      0.00
   12   13    5      0.00      0.00
   13   13    5     -0.10      0.00
   14   13    5      0.14      0.00
   -2   14    5     -0.07      0.00
   -1   14    5      0.01      0.00
    0   14    5      0.08      0.00
    1   14    5     -0.17      0.00
    2   14    5      0.23      0.00
    3   14    5     -0.22      0.00
    4   14    5      0.10      0.00
    5   14    5      0.05      0.00
    6   14    5     -0.13      0.00
    7   14    5      0.13      0.00
    8   14    5     -0.15      0.00
    9   14    5      0.19      0.00
   10   14    5     -0.19      0.00
   11   14    5      0.11      0.00
   12   14    5     -0.04      0.00
   13   14    5      0.06      0.00
    0   15    5     -0.02      0.00
    1   15    5      0.07      0.00
    2   15    5     -0.14      0.00
    3   15    5      0.19      0.00
    4   15    5     -0.17      0.00
    5   15    5      0.05      0.00
    6   15    5      0.06      0.00
    7   15    5     -0.11      0.00
    8   15    5      0.11      0.00
    9   15    5     -0.14      0.00
   10   15    5      0.18      0.00
   11   15    5     -0.17      0.00
   12   15    5      0.10      0.00
    3   16    5     -0.09      0.00
    4   16    5      0.13      0.00
    5   16    5     -0.09      0.00
    6   16    5     -0.00      0.00
    7   16    5      0.06      0.00
    8   16    5     -0.05      0.00
    9   16    5      0.04      0.00
   10   16    5     -0.08      0.00
   11   16    5      0.13      0.00
   -8  -14    6      0.08      0.00
   -7  -14    6     -0.04      0.00
   -6  -14    6      0.03      0.00
   -5  -14    6     -0.06      0.00
   -4  -14    6      0.07      0.00
   -3  -14    6     -0.06      0.00
  -10  -13    6     -0.09      0.00
   -9  -13    6      0.10      0.00
   -8  -13    6     -0.07      0.00
   -7  -13    6      0.03      0.00
   -6  -13    6     -0.02      0.00
   -5  -13    6      0.05      0.00
   -4  -13    6     -0.08      0.00
   -3  -13    6      0.08      0.00
   -2  -13    6     -0.04      0.00
   -1  -13    6      0.01      0.00
    0  -13    6      0.02      0.00
  -12  -12    6      0.01      0.00
  -11  -12    6     -0.01      0.00
  -10  -12    6     -0.00      0.00
   -9  -12    6      0.02      0.00
   -8  -12    6     -0.04      0.00
   -7  -12    6      0.05      0.00
   -6  -12    6     -0.03      0.00
   -5  -12    6     -0.03      0.00
   -4  -12    6      0.08      0.00
   -3  -12    6     -0.09      0.00
   -2  -12    6      0.05      0.00
   -1  -12    6     -0.02      0.00
    0  -12    6     -0.01      0.00
    1  -12    6      0.05      0.00
    2  -12    6     -0.07      0.00
  -12  -11    6     -0.01      0.00
  -11  -11    6      0.02      0.00
  -10  -11    6      0.03      0.00
   -9  -11    6     -0.11      0.00
   -8  -11    6      0.16      0.00
   -7  -11    6     -0.16      0.00
   -6  -11    6      0.11      0.00
   -5  -11    6     -0.03      0.00
   -4  -11    6     -0.05      0.00
   -3  -11    6      0.07      0.00
   -2  -11    6     -0.05      0.00
   -1  -11    6      0.02      0.00
    0  -11    6     -0.01      0.00
    1  -11    6     -0.03      0.00
    2  -11    6      0.09      0.00
    3  -11    6     -0.13      0.00
    4  -11    6      0.09      0.00
  -13  -10    6      0.05      0.00
  -12  -10    6      0.01      0.00
  -11  -10    6     -0.06      0.00
  -10  -10    6      0.04      0.00
   -9  -10    6      0.06      0.00
   -8  -10    6     -0.16      0.00
   -7  -10    6      0.20      0.00
   -6  -10    6     -0.17      0.00
   -5  -10    6      0.09      0.00
   -4  -10    6     -0.01      0.00
   -3  -10    6     -0.03      0.00
   -2  -10    6      0.02      0.00
   -1  -10    6     -0.01      0.00
    0  -10    6      0.02      0.00
    1  -10    6     -0.01      0.00
    2  -10    6     -0.06      0.00
    3  -10    6      0.14      0.00
    4  -10    6     -0.13      0.00
    5  -10    6      0.04      0.00
    6  -10    6      0.05      0.00
  -14   -9    6      0.01      0.00
  -13   -9    6     -0.05      0.00
  -12   -9    6      0.04      0.00
  -11   -9    6      0.03      0.00
  -10   -9    6     -0.09      0.00
   -9   -9    6      0.05      0.00
   -8   -9    6      0.04      0.00
   -7   -9    6     -0.13      0.00
   -6   -9    6      0.15      0.00
   -5   -9    6     -0.12      0.00
   -4   -9    6      0.07      0.00
   -3   -9    6     -0.02      0.00
   -2   -9    6      0.00      0.00
   -1   -9    6      0.00      0.00
    0   -9    6     -0.02      0.00
    1   -9    6      0.04      0.00
    2   -9    6     -0.00      0.00
    3   -9    6     -0.07      0.00
    4   -9    6      0.11      0.00
    5   -9    6     -0.04      0.00
    6   -9    6     -0.06      0.00
    7   -9    6      0.09      0.00
  -14   -8    6      0.03      0.00
  -13   -8    6      0.04      0.00
  -12   -8    6     -0.10      0.00
  -11   -8    6      0.09      0.00
  -10   -8    6     -0.02      0.00
   -9   -8    6     -0.05      0.00
   -8   -8    6      0.04      0.00
   -7   -8    6      0.01      0.00
   -6   -8    6     -0.07      0.00
   -5   -8    6      0.10      0.00
   -4   -8    6     -0.08      0.00
   -3   -8    6      0.04      0.00
   -2   -8    6     -0.01      0.00
   -1   -8    6     -0.02      0.00
    0   -8    6      0.05      0.00
    1   -8    6     -0.08      0.00
    2   -8    6      0.07      0.00
    3   -8    6     -0.02      0.00
    4   -8    6     -0.03      0.00
    5   -8    6      0.02      0.00
    6   -8    6      0.06      0.00
    7   -8    6     -0.10      0.00
    8   -8    6      0.07      0.00
  -14   -7    6     -0.01      0.00
  -13   -7    6     -0.05      0.00
  -12   -7    6      0.15      0.00
  -11   -7    6     -0.22      0.00
  -10   -7    6      0.21      0.00
   -9   -7    6     -0.12      0.00
   -8   -7    6      0.01      0.00
   -7   -7    6      0.04      0.00
   -6   -7    6     -0.04      0.00
   -5   -7    6     -0.00      0.00
   -4   -7    6      0.03      0.00
   -3   -7    6     -0.03      0.00
   -2   -7    6      0.00      0.00
   -1   -7    6      0.04      0.00
    0   -7    6     -0.07      0.00
    1   -7    6      0.12      0.00
    2   -7    6     -0.15      0.00
    3   -7    6      0.13      0.00
    4   -7    6     -0.07      0.00
    5   -7    6      0.02      0.00
    6   -7    6     -0.04      0.00
    7   -7    6      0.07      0.00
    8   -7    6     -0.07      0.00
    9   -7    6      0.03      0.00
  -14   -6    6     -0.03      0.00
  -13   -6    6      0.07      0.00
  -12   -6    6     -0.15      0.00
  -11   -6    6      0.25      0.00
  -10   -6    6     -0.33      0.00
   -9   -6    6      0.30      0.00
   -8   -6    6     -0.16      0.00
   -7   -6    6     -0.02      0.00
   -6   -6    6      0.15      0.00
   -5   -6    6     -0.17      0.00
   -4   -6    6      0.11      0.00
   -3   -6    6     -0.03      0.00
   -2   -6    6     -0.01      0.00
   -1   -6    6      0.00      0.00
    0   -6    6      0.04      0.00
    1   -6    6     -0.10      0.00
    2   -6    6      0.18      0.00
    3   -6    6     -0.23      0.00
    4   -6    6      0.19      0.00
    5   -6    6     -0.09      0.00
    6   -6    6      0.03      0.00
    7   -6    6     -0.03      0.00
    8   -6    6      0.06      0.00
    9   -6    6     -0.05      0.00
   10   -6    6      0.03      0.00
  -14   -5    6      0.02      0.00
  -13   -5    6     -0.06      0.00
  -12   -5    6      0.10      0.00
  -11   -5    6     -0.18      0.00
  -10   -5    6      0.28      0.00
   -9   -5    6     -0.33      0.00
   -8   -5    6      0.25      0.00
   -7   -5    6     -0.04      0.00
   -6   -5    6     -0.20      0.00
   -5   -5    6      0.35      0.00
   -4   -5    6     -0.34      0.00
   -3   -5    6      0.21      0.00
   -2   -5    6     -0.04      0.00
   -1   -5    6     -0.06      0.00
    0   -5    6      0.08      0.00
    1   -5    6     -0.01      0.00
    2   -5    6     -0.11      0.00
    3   -5    6      0.23      0.00
    4   -5    6     -0.28      0.00
    5   -5    6      0.21      0.00
    6   -5    6     -0.09      0.00
    7   -5    6      0.03      0.00
    8   -5    6     -0.04      0.00
    9   -5    6      0.06      0.00
   10   -5    6     -0.05      0.00
   11   -5    6      0.03      0.00
  -14   -4    6      0.03      0.00
  -13   -4    6     -0.03      0.00
  -12   -4    6      0.01      0.00
  -11   -4    6      0.04      0.00
  -10   -4    6     -0.14      0.00
   -9   -4    6      0.24      0.00
   -8   -4    6     -0.25      0.00
   -7   -4    6      0.11      0.00
   -6   -4    6      0.14      0.00
   -5   -4    6     -0.40      0.00
   -4   -4    6      0.55      0.00
   -3   -4    6     -0.51      0.00
   -2   -4    6      0.31      0.00
   -1   -4    6     -0.05      0.00
    0   -4    6     -0.11      0.00
    1   -4    6      0.15      0.00
    2   -4    6     -0.07      0.00
    3   -4    6     -0.08      0.00
    4   -4    6      0.23      0.00
    5   -4    6     -0.28      0.00
    6   -4    6      0.20      0.00
    7   -4    6     -0.09      0.00
    8   -4    6      0.05      0.00
    9   -4    6     -0.08      0.00
   10   -4    6      0.08      0.00
   11   -4    6     -0.03      0.00
   12   -4    6      0.01      0.00
  -14   -3    6     -0.03      0.00
  -13   -3    6      0.10      0.00
  -12   -3    6     -0.13      0.00
  -11   -3    6      0.10      0.00
  -10   -3    6     -0.01      0.00
   -9   -3    6     -0.10      0.00
   -8   -3    6      0.17      0.00
   -7   -3    6     -0.16      0.00
   -6   -3    6      0.03      0.00
   -5   -3    6      0.22      0.00
   -4   -3    6     -0.54      0.00
   -3   -3    6      0.76      0.00
   -2   -3    6     -0.74      0.00
   -1   -3    6      0.49      0.00
    0   -3    6     -0.16      0.00
    1   -3    6     -0.08      0.00
    2   -3    6      0.17      0.00
    4   -3    6     -0.04      0.00
    5   -3    6      0.20      0.00
    6   -3    6     -0.26      0.00
    7   -3    6      0.20      0.00
    8   -3    6     -0.12      0.00
    9   -3    6      0.11      0.00
   10   -3    6     -0.12      0.00
   11   -3    6      0.07      0.00
   12   -3    6      0.01      0.00
  -14   -2    6     -0.02      0.00
  -13   -2    6     -0.07      0.00
  -12   -2    6      0.15      0.00
  -11   -2    6     -0.18      0.00
  -10   -2    6      0.14      0.00
   -9   -2    6     -0.06      0.00
   -8   -2    6     -0.05      0.00
   -7   -2    6      0.15      0.00
   -6   -2    6     -0.19      0.00
   -5   -2    6      0.08      0.00
   -4   -2    6      0.23      0.00
   -3   -2    6     -0.67      0.00
   -2   -2    6      1.00      0.00
   -1   -2    6     -1.03      0.00
    0   -2    6      0.76      0.00
    1   -2    6     -0.39      0.00
    2   -2    6      0.07      0.00
    3   -2    6      0.10      0.00
    4   -2    6     -0.11      0.00
    5   -2    6     -0.03      0.00
    6   -2    6      0.19      0.00
    7   -2    6     -0.26      0.00
    8   -2    6      0.21      0.00
    9   -2    6     -0.17      0.00
   10   -2    6      0.18      0.00
   11   -2    6     -0.15      0.00
   12   -2    6      0.06      0.00
   13   -2    6      0.04      0.00
  -14   -1    6      0.05      0.00
  -13   -1    6     -0.01      0.00
  -12   -1    6     -0.08      0.00
  -11   -1    6      0.17      0.00
  -10   -1    6     -0.23      0.00
   -9   -1    6      0.23      0.00
   -8   -1    6     -0.15      0.00
   -7   -1    6     -0.00      0.00
   -6   -1    6      0.17      0.00
   -5   -1    6     -0.27      0.00
   -4   -1    6      0.16      0.00
   -3   -1    6      0.24      0.00
   -2   -1    6     -0.79      0.00
   -1   -1    6      1.22      0.00
    0   -1    6     -1.32      0.00
    1   -1    6      1.11      0.00
    2   -1    6     -0.74      0.00
    3   -1    6      0.36      0.00
    4   -1    6     -0.08      0.00
    5   -1    6     -0.01      0.00
    6   -1    6     -0.08      0.00
    7   -1    6      0.21      0.00
    8   -1    6     -0.25      0.00
    9   -1    6      0.22      0.00
   10   -1    6     -0.21      0.00
   11   -1    6      0.23      0.00
   12   -1    6     -0.18      0.00
   13   -1    6      0.05      0.00
  -14    0    6     -0.02      0.00
  -13    0    6      0.03      0.00
  -12    0    6      0.01      0.00
  -11    0    6     -0.09      0.00
  -10    0    6      0.22      0.00
   -9    0    6     -0.33      0.00
   -8    0    6      0.37      0.00
   -7    0    6     -0.27      0.00
   -6    0    6      0.06      0.00
   -5    0    6      0.17      0.00
   -4    0    6     -0.31      0.00
   -3    0    6      0.22      0.00
   -2    0    6      0.20      0.00
   -1    0    6     -0.82      0.00
    0    0    6      1.37      0.00
    1    0    6     -1.62      0.00
    2    0    6      1.51      0.00
    3    0    6     -1.13      0.00
    4    0    6      0.66      0.00
    5    0    6     -0.28      0.00
    6    0    6      0.12      0.00
    7    0    6     -0.15      0.00
    8    0    6      0.22      0.00
    9    0    6     -0.21      0.00
   10    0    6      0.20      0.00
   11    0    6     -0.23      0.00
   12    0    6      0.26      0.00
   13    0    6     -0.20      0.00
   14    0    6      0.07      0.00
  -13    1    6      0.02      0.00
  -12    1    6     -0.01      0.00
  -11    1    6      0.04      0.00
  -10    1    6     -0.14      0.00
   -9    1    6      0.31      0.00
   -8    1    6     -0.47      0.00
   -7    1    6      0.51      0.00
   -6    1    6     -0.40      0.00
   -5    1    6      0.16      0.00
   -4    1    6      0.12      0.00
   -3    1    6     -0.33      0.00
   -2    1    6      0.29      0.00
   -1    1    6      0.14      0.00
    0    1    6     -0.85      0.00
    1    1    6      1.53      0.00
    2    1    6     -1.89      0.00
    3    1    6      1.80      0.00
    4    1    6     -1.38      0.00
    5    1    6      0.85      0.00
    6    1    6     -0.43      0.00
    7    1    6      0.23      0.00
    8    1    6     -0.18      0.00
    9    1    6      0.16      0.00
   10    1    6     -0.14      0.00
   11    1    6      0.16      0.00
   12    1    6     -0.24      0.00
   13    1    6      0.27      0.00
   14    1    6     -0.19      0.00
  -13    2    6     -0.05      0.00
  -12    2    6      0.04      0.00
  -11    2    6     -0.03      0.00
  -10    2    6      0.06      0.00
   -9    2    6     -0.18      0.00
   -8    2    6      0.39      0.00
   -7    2    6     -0.57      0.00
   -6    2    6      0.62      0.00
   -5    2    6     -0.51      0.00
   -4    2    6      0.26      0.00
   -3    2    6      0.06      0.00
   -2    2    6     -0.30      0.00
   -1    2    6      0.25      0.00
    0    2    6      0.21      0.00
    1    2    6     -0.95      0.00
    2    2    6      1.62      0.00
    3    2    6     -1.92      0.00
    4    2    6      1.80      0.00
    5    2    6     -1.39      0.00
    6    2    6      0.90      0.00
    7    2    6     -0.51      0.00
    8    2    6      0.28      0.00
    9    2    6     -0.16      0.00
   10    2    6      0.08      0.00
   11    2    6     -0.07      0.00
   12    2    6      0.14      0.00
   13    2    6     -0.23      0.00
   14    2    6      0.22      0.00
   15    2    6     -0.13      0.00
  -13    3    6      0.01      0.00
  -12    3    6     -0.02      0.00
  -11    3    6      0.01      0.00
  -10    3    6     -0.00      0.00
   -9    3    6      0.05      0.00
   -8    3    6     -0.20      0.00
   -7    3    6      0.43      0.00
   -6    3    6     -0.63      0.00
   -5    3    6      0.68      0.00
   -4    3    6     -0.58      0.00
   -3    3    6      0.35      0.00
   -2    3    6     -0.07      0.00
   -1    3    6     -0.12      0.00
    0    3    6      0.04      0.00
    1    3    6      0.36      0.00
    2    3    6     -0.94      0.00
    3    3    6      1.45      0.00
    4    3    6     -1.69      0.00
    5    3    6      1.61      0.00
    6    3    6     -1.30      0.00
    7    3    6      0.90      0.00
    8    3    6     -0.54      0.00
    9    3    6      0.28      0.00
   10    3    6     -0.12      0.00
   11    3    6      0.05      0.00
   12    3    6     -0.06      0.00
   13    3    6      0.14      0.00
   14    3    6     -0.17      0.00
   15    3    6      0.12      0.00
  -12    4    6     -0.03      0.00
  -11    4    6      0.04      0.00
  -10    4    6     -0.04      0.00
   -9    4    6      0.03      0.00
   -8    4    6      0.05      0.00
   -7    4    6     -0.23      0.00
   -6    4    6      0.45      0.00
   -5    4    6     -0.63      0.00
   -4    4    6      0.70      0.00
   -3    4    6     -0.66      0.00
   -2    4    6      0.51      0.00
   -1    4    6     -0.32      0.00
    0    4    6      0.16      0.00
    1    4    6     -0.15      0.00
    2    4    6      0.36      0.00
    3    4    6     -0.75      0.00
    4    4    6      1.16      0.00
    5    4    6     -1.42      0.00
    6    4    6      1.42      0.00
    7    4    6     -1.18      0.00
    8    4    6      0.84      0.00
    9    4    6     -0.52      0.00
   10    4    6      0.29      0.00
   11    4    6     -0.12      0.00
   12    4    6      0.05      0.00
   13    4    6     -0.06      0.00
   14    4    6      0.11      0.00
   15    4    6     -0.09      0.00
   16    4    6      0.01      0.00
  -12    5    6      0.02      0.00
  -11    5    6     -0.04      0.00
  -10    5    6      0.06      0.00
   -9    5    6     -0.07      0.00
   -8    5    6      0.03      0.00
   -7    5    6      0.06      0.00
   -6    5    6     -0.23      0.00
   -5    5    6      0.42      0.00
   -4    5    6     -0.61      0.00
   -3    5    6      0.74      0.00
   -2    5    6     -0.78      0.00
   -1    5    6      0.71      0.00
    0    5    6     -0.52      0.00
    1    5    6      0.30      0.00
    2    5    6     -0.17      0.00
    3    5    6      0.25      0.00
    4    5    6     -0.55      0.00
    5    5    6      0.93      0.00
    6    5    6     -1.18      0.00
    7    5    6      1.19      0.00
    8    5    6     -0.99      0.00
    9    5    6      0.73      0.00
   10    5    6     -0.49      0.00
   11    5    6      0.28      0.00
   12    5    6     -0.11      0.00
   13    5    6      0.02      0.00
   14    5    6     -0.04      0.00
   15    5    6      0.08      0.00
   16    5    6     -0.05      0.00
  -11    6    6     -0.01      0.00
  -10    6    6     -0.03      0.00
   -9    6    6      0.08      0.00
   -8    6    6     -0.09      0.00
   -7    6    6      0.05      0.00
   -6    6    6      0.03      0.00
   -5    6    6     -0.18      0.00
   -4    6    6      0.38      0.00
   -3    6    6     -0.61      0.00
   -2    6    6      0.80      0.00
   -1    6    6     -0.87      0.00
    0    6    6      0.79      0.00
    1    6    6     -0.56      0.00
    2    6    6      0.29      0.00
    3    6    6     -0.12      0.00
    4    6    6      0.17      0.00
    5    6    6     -0.41      0.00
    6    6    6      0.70      0.00
    7    6    6     -0.88      0.00
    8    6    6      0.88      0.00
    9    6    6     -0.78      0.00
   10    6    6      0.63      0.00
   11    6    6     -0.45      0.00
   12    6    6      0.23      0.00
   13    6    6     -0.04      0.00
   14    6    6     -0.02      0.00
   15    6    6     -0.03      0.00
   16    6    6      0.08      0.00
  -10    7    6     -0.02      0.00
   -9    7    6     -0.06      0.00
   -8    7    6      0.13      0.00
   -7    7    6     -0.13      0.00
   -6    7    6      0.09      0.00
   -5    7    6     -0.01      0.00
   -4    7    6     -0.12      0.00
   -3    7    6      0.34      0.00
   -2    7    6     -0.59      0.00
   -1    7    6      0.79      0.00
    0    7    6     -0.85      0.00
    1    7    6      0.74      0.00
    2    7    6     -0.51      0.00
    3    7    6      0.25      0.00
    4    7    6     -0.09      0.00
    5    7    6      0.09      0.00
    6    7    6     -0.23      0.00
    7    7    6      0.41      0.00
    8    7    6     -0.56      0.00
    9    7    6      0.64      0.00
   10    7    6     -0.64      0.00
   11    7    6      0.57      0.00
   12    7    6     -0.39      0.00
   13    7    6      0.16      0.00
   14    7    6     -0.01      0.00
   15    7    6     -0.01      0.00
   16    7    6     -0.05      0.00
   -9    8    6      0.04      0.00
   -8    8    6     -0.12      0.00
   -7    8    6      0.14      0.00
   -6    8    6     -0.12      0.00
   -5    8    6      0.08      0.00
   -4    8    6     -0.04      0.00
   -3    8    6     -0.08      0.00
   -2    8    6      0.28      0.00
   -1    8    6     -0.52      0.00
    0    8    6      0.71      0.00
    1    8    6     -0.76      0.00
    2    8    6      0.66      0.00
    3    8    6     -0.45      0.00
    4    8    6      0.22      0.00
    5    8    6     -0.04      0.00
    6    8    6     -0.01      0.00
    7    8    6     -0.05      0.00
    8    8    6      0.20      0.00
    9    8    6     -0.38      0.00
   10    8    6      0.53      0.00
   11    8    6     -0.58      0.00
   12    8    6      0.51      0.00
   13    8    6     -0.34      0.00
   14    8    6      0.17      0.00
   15    8    6     -0.05      0.00
   16    8    6      0.02      0.00
   -8    9    6      0.08      0.00
   -7    9    6     -0.08      0.00
   -6    9    6      0.05      0.00
   -5    9    6     -0.04      0.00
   -4    9    6      0.06      0.00
   -3    9    6     -0.05      0.00
   -2    9    6     -0.04      0.00
   -1    9    6      0.22      0.00
    0    9    6     -0.44      0.00
    1    9    6      0.62      0.00
    2    9    6     -0.68      0.00
    3    9    6      0.59      0.00
    4    9    6     -0.40      0.00
    5    9    6      0.19      0.00
    6    9    6     -0.03      0.00
    7    9    6     -0.04      0.00
    8    9    6      0.00      0.00
    9    9    6      0.14      0.00
   10    9    6     -0.33      0.00
   11    9    6      0.49      0.00
   12    9    6     -0.53      0.00
   13    9    6      0.46      0.00
   14    9    6     -0.33      0.00
   15    9    6      0.19      0.00
   16    9    6     -0.07      0.00
   -8   10    6     -0.05      0.00
   -7   10    6      0.01      0.00
   -6   10    6      0.04      0.00
   -5   10    6     -0.07      0.00
   -4   10    6      0.02      0.00
   -3   10    6      0.04      0.00
   -2   10    6     -0.05      0.00
   -1   10    6     -0.02      0.00
    0   10    6      0.17      0.00
    1   10    6     -0.37      0.00
    2   10    6      0.54      0.00
    3   10    6     -0.60      0.00
    4   10    6      0.51      0.00
    5   10    6     -0.34      0.00
    6   10    6      0.19      0.00
    7   10    6     -0.07      0.00
    8   10    6     -0.00      0.00
    9   10    6     -0.00      0.00
   10   10    6      0.12      0.00
   11   10    6     -0.30      0.00
   12   10    6      0.43      0.00
   13   10    6     -0.43      0.00
   14   10    6      0.35      0.00
   15   10    6     -0.25      0.00
   16   10    6      0.14      0.00
   -6   11    6     -0.07      0.00
   -5   11    6      0.13      0.00
   -4   11    6     -0.11      0.00
   -3   11    6      0.04      0.00
   -2   11    6      0.02      0.00
   -1   11    6     -0.04      0.00
    0   11    6      0.00      0.00
    1   11    6      0.10      0.00
    2   11    6     -0.27      0.00
    3   11    6      0.43      0.00
    4   11    6     -0.48      0.00
    5   11    6      0.39      0.00
    6   11    6     -0.28      0.00
    7   11    6      0.19      0.00
    8   11    6     -0.09      0.00
    9   11    6     -0.00      0.00
   10   11    6      0.02      0.00
   11   11    6      0.09      0.00
   12   11    6     -0.25      0.00
   13   11    6      0.31      0.00
   14   11    6     -0.26      0.00
   15   11    6      0.18      0.00
   -5   12    6     -0.09      0.00
   -4   12    6      0.13      0.00
   -3   12    6     -0.10      0.00
   -2   12    6      0.03      0.00
   -1   12    6      0.02      0.00
    0   12    6     -0.07      0.00
    1   12    6      0.08      0.00
    2   12    6     -0.00      0.00
    3   12    6     -0.17      0.00
    4   12    6      0.31      0.00
    5   12    6     -0.32      0.00
    6   12    6      0.25      0.00
    7   12    6     -0.19      0.00
    8   12    6      0.16      0.00
    9   12    6     -0.07      0.00
   10   12    6     -0.03      0.00
   11   12    6      0.04      0.00
   12   12    6      0.07      0.00
   13   12    6     -0.18      0.00
   14   12    6      0.16      0.00
   -4   13    6     -0.08      0.00
   -3   13    6      0.11      0.00
   -2   13    6     -0.07      0.00
   -1   13    6     -0.00      0.00
    0   13    6      0.09      0.00
    1   13    6     -0.17      0.00
    2   13    6      0.19      0.00
    3   13    6     -0.09      0.00
    4   13    6     -0.07      0.00
    5   13    6      0.18      0.00
    6   13    6     -0.17      0.00
    7   13    6      0.15      0.00
    8   13    6     -0.16      0.00
    9   13    6      0.16      0.00
   10   13    6     -0.08      0.00
   11   13    6     -0.01      0.00
   12   13    6      0.01      0.00
   13   13    6      0.08      0.00
   14   13    6     -0.12      0.00
   -2   14    6      0.08      0.00
   -1   14    6     -0.02      0.00
    0   14    6     -0.06      0.00
    1   14    6      0.15      0.00
    2   14    6     -0.23      0.00
    3   14    6      0.22      0.00
    4   14    6     -0.12      0.00
    5   14    6     -0.02      0.00
    6   14    6      0.09      0.00
    7   14    6     -0.11      0.00
    8   14    6      0.15      0.00
    9   14    6     -0.21      0.00
   10   14    6      0.20      0.00
   11   14    6     -0.10      0.00
   12   14    6      0.02      0.00
   13   14    6     -0.03      0.00
    0   15    6      0.02      0.00
    1   15    6     -0.08      0.00
    2   15    6      0.16      0.00
    3   15    6     -0.21      0.00
    4   15    6      0.20      0.00
    5   15    6     -0.10      0.00
    6   15    6     -0.01      0.00
    7   15    6      0.07      0.00
    8   15    6     -0.12      0.00
    9   15    6      0.18      0.00
   10   15    6     -0.23      0.00
   11   15    6      0.19      0.00
   12   15    6     -0.09      0.00
    3   16    6      0.11      0.00
    4   16    6     -0.16      0.00
    5   16    6      0.13      0.00
    6   16    6     -0.05      0.00
    7   16    6     -0.02      0.00
    8   16    6      0.06      0.00
    9   16    6     -0.09      0.00
   10   16    6      0.15      0.00
   11   16    6     -0.17      0.00
   -4  -14    7     -0.03      0.00
   -9  -13    7     -0.08      0.00
   -8  -13    7      0.08      0.00
   -7  -13    7     -0.06      0.00
   -6  -13    7      0.04      0.00
   -5  -13    7     -0.05      0.00
   -4  -13    7      0.06      0.00
   -3  -13    7     -0.05      0.00
   -2  -13    7      0.03      0.00
   -1  -13    7     -0.01      0.00
    0  -13    7     -0.01      0.00
  -11  -12    7     -0.02      0.00
  -10  -12    7      0.02      0.00
   -9  -12    7     -0.02      0.00
   -8  -12    7      0.02      0.00
   -7  -12    7     -0.03      0.00
   -6  -12    7      0.02      0.00
   -5  -12    7      0.02      0.00
   -4  -12    7     -0.06      0.00
   -3  -12    7      0.07      0.00
   -2  -12    7     -0.04      0.00
   -1  -12    7      0.02      0.00
    0  -12    7      0.01      0.00
    1  -12    7     -0.04      0.00
    2  -12    7      0.07      0.00
  -12  -11    7     -0.04      0.00
  -11  -11    7      0.02      0.00
  -10  -11    7     -0.05      0.00
   -9  -11    7      0.10      0.00
   -8  -11    7     -0.14      0.00
   -7  -11    7      0.15      0.00
   -6  -11    7     -0.12      0.00
   -5  -11    7      0.04      0.00
   -4  -11    7      0.03      0.00
   -3  -11    7     -0.06      0.00
   -2  -11    7      0.04      0.00
   -1  -11    7     -0.02      0.00
    0  -11    7      0.02      0.00
    1  -11    7      0.01      0.00
    2  -11    7     -0.07      0.00
    3  -11    7      0.12      0.00
    4  -11    7     -0.09      0.00
  -12  -10    7      0.06      0.00
  -11  -10    7      0.00      0.00
  -10  -10    7     -0.01      0.00
   -9  -10    7     -0.06      0.00
   -8  -10    7      0.15      0.00
   -7  -10    7     -0.20      0.00
   -6  -10    7      0.18      0.00
   -5  -10    7     -0.10      0.00
   -4  -10    7      0.02      0.00
   -3  -10    7      0.02      0.00
   -2  -10    7     -0.01      0.00
   -1  -10    7     -0.00      0.00
    0  -10    7     -0.02      0.00
    1  -10    7      0.02      0.00
    2  -10    7      0.03      0.00
    3  -10    7     -0.12      0.00
    4  -10    7      0.14      0.00
    5  -10    7     -0.06      0.00
  -13   -9    7      0.08      0.00
  -12   -9    7     -0.09      0.00
  -11   -9    7      0.02      0.00
  -10   -9    7      0.05      0.00
   -9   -9    7     -0.04      0.00
   -8   -9    7     -0.04      0.00
   -7   -9    7      0.12      0.00
   -6   -9    7     -0.16      0.00
   -5   -9    7      0.13      0.00
   -4   -9    7     -0.06      0.00
   -3   -9    7      0.02      0.00
   -2   -9    7     -0.02      0.00
   -1   -9    7      0.03      0.00
    0   -9    7     -0.01      0.00
    1   -9    7     -0.02      0.00
    2   -9    7      0.01      0.00
    3   -9    7      0.06      0.00
    4   -9    7     -0.11      0.00
    5   -9    7      0.06      0.00
    6   -9    7      0.03      0.00
    7   -9    7     -0.06      0.00
  -14   -8    7     -0.03      0.00
  -13   -8    7     -0.03      0.00
  -12   -8    7      0.10      0.00
  -11   -8    7     -0.10      0.00
  -10   -8    7      0.03      0.00
   -9   -8    7      0.04      0.00
   -8   -8    7     -0.04      0.00
   -7   -8    7     -0.02      0.00
   -6   -8    7      0.08      0.00
   -5   -8    7     -0.11      0.00
   -4   -8    7      0.09      0.00
   -3   -8    7     -0.04      0.00
   -2   -8    7      0.02      0.00
   -1   -8    7     -0.02      0.00
    0   -8    7      0.02      0.00
    1   -8    7      0.01      0.00
    2   -8    7     -0.03      0.00
    3   -8    7     -0.00      0.00
    4   -8    7      0.04      0.00
    5   -8    7     -0.02      0.00
    6   -8    7     -0.06      0.00
    7   -8    7      0.09      0.00
    8   -8    7     -0.05      0.00
  -14   -7    7      0.04      0.00
  -13   -7    7     -0.00      0.00
  -12   -7    7     -0.09      0.00
  -11   -7    7      0.17      0.00
  -10   -7    7     -0.19      0.00
   -9   -7    7      0.12      0.00
   -8   -7    7     -0.04      0.00
   -7   -7    7      0.00      0.00
   -6   -7    7     -0.02      0.00
   -5   -7    7      0.05      0.00
   -4   -7    7     -0.07      0.00
   -3   -7    7      0.04      0.00
   -2   -7    7      0.00      0.00
   -1   -7    7     -0.03      0.00
    0   -7    7      0.03      0.00
    1   -7    7     -0.04      0.00
    2   -7    7      0.06      0.00
    3   -7    7     -0.05      0.00
    4   -7    7      0.02      0.00
    5   -7    7     -0.02      0.00
    6   -7    7      0.07      0.00
    7   -7    7     -0.11      0.00
    8   -7    7      0.08      0.00
    9   -7    7     -0.00      0.00
  -14   -6    7      0.00      0.00
  -13   -6    7     -0.02      0.00
  -12   -6    7      0.08      0.00
  -11   -6    7     -0.17      0.00
  -10   -6    7      0.27      0.00
   -9   -6    7     -0.29      0.00
   -8   -6    7      0.21      0.00
   -7   -6    7     -0.08      0.00
   -6   -6    7     -0.02      0.00
   -5   -6    7      0.05      0.00
   -4   -6    7     -0.03      0.00
   -3   -6    7      0.01      0.00
   -2   -6    7     -0.02      0.00
   -1   -6    7      0.05      0.00
    0   -6    7     -0.06      0.00
    1   -6    7      0.08      0.00
    2   -6    7     -0.11      0.00
    3   -6    7      0.13      0.00
    4   -6    7     -0.10      0.00
    5   -6    7      0.06      0.00
    6   -6    7     -0.05      0.00
    7   -6    7      0.08      0.00
    8   -6    7     -0.09      0.00
    9   -6    7      0.04      0.00
   10   -6    7      0.01      0.00
  -14   -5    7     -0.02      0.00
  -13   -5    7      0.05      0.00
  -12   -5    7     -0.07      0.00
  -11   -5    7      0.12      0.00
  -10   -5    7     -0.22      0.00
   -9   -5    7      0.32      0.00
   -8   -5    7     -0.31      0.00
   -7   -5    7      0.17      0.00
   -6   -5    7      0.03      0.00
   -5   -5    7     -0.17      0.00
   -4   -5    7      0.21      0.00
   -3   -5    7     -0.15      0.00
   -2   -5    7      0.07      0.00
   -1   -5    7     -0.03      0.00
    0   -5    7      0.03      0.00
    1   -5    7     -0.05      0.00
    2   -5    7      0.11      0.00
    3   -5    7     -0.18      0.00
    4   -5    7      0.19      0.00
    5   -5    7     -0.13      0.00
    6   -5    7      0.06      0.00
    7   -5    7     -0.04      0.00
    8   -5    7      0.07      0.00
    9   -5    7     -0.06      0.00
   10   -5    7      0.02      0.00
   11   -5    7      0.01      0.00
  -14   -4    7     -0.02      0.00
  -13   -4    7     -0.01      0.00
  -12   -4    7      0.02      0.00
  -11   -4    7     -0.03      0.00
  -10   -4    7      0.10      0.00
   -9   -4    7     -0.21      0.00
   -8   -4    7      0.28      0.00
   -7   -4    7     -0.21      0.00
   -6   -4    7      0.01      0.00
   -5   -4    7      0.21      0.00
   -4   -4    7     -0.35      0.00
   -3   -4    7      0.35      0.00
   -2   -4    7     -0.24      0.00
   -1   -4    7      0.09      0.00
    0   -4    7      0.01      0.00
    1   -4    7     -0.04      0.00
    2   -4    7     -0.01      0.00
    3   -4    7      0.10      0.00
    4   -4    7     -0.19      0.00
    5   -4    7      0.19      0.00
    6   -4    7     -0.12      0.00
    7   -4    7      0.05      0.00
    8   -4    7     -0.05      0.00
    9   -4    7      0.07      0.00
   10   -4    7     -0.06      0.00
   11   -4    7      0.01      0.00
  -14   -3    7      0.04      0.00
  -13   -3    7     -0.06      0.00
  -12   -3    7      0.07      0.00
  -11   -3    7     -0.06      0.00
  -10   -3    7      0.01      0.00
   -9   -3    7      0.08      0.00
   -8   -3    7     -0.18      0.00
   -7   -3    7      0.20      0.00
   -6   -3    7     -0.10      0.00
   -5   -3    7     -0.09      0.00
   -4   -3    7      0.31      0.00
   -3   -3    7     -0.47      0.00
   -2   -3    7      0.48      0.00
   -1   -3    7     -0.34      0.00
    0   -3    7      0.14      0.00
    1   -3    7      0.02      0.00
    2   -3    7     -0.09      0.00
    3   -3    7      0.05      0.00
    4   -3    7      0.06      0.00
    5   -3    7     -0.16      0.00
    6   -3    7      0.17      0.00
    7   -3    7     -0.11      0.00
    8   -3    7      0.07      0.00
    9   -3    7     -0.09      0.00
   10   -3    7      0.11      0.00
   11   -3    7     -0.06      0.00
   12   -3    7     -0.01      0.00
  -14   -2    7      0.00      0.00
  -13   -2    7      0.06      0.00
  -12   -2    7     -0.11      0.00
  -11   -2    7      0.13      0.00
  -10   -2    7     -0.10      0.00
   -9   -2    7      0.03      0.00
   -8   -2    7      0.06      0.00
   -7   -2    7     -0.13      0.00
   -6   -2    7      0.17      0.00
   -5   -2    7     -0.11      0.00
   -4   -2    7     -0.07      0.00
   -3   -2    7      0.34      0.00
   -2   -2    7     -0.57      0.00
   -1   -2    7      0.63      0.00
    0   -2    7     -0.50      0.00
    1   -2    7      0.27      0.00
    2   -2    7     -0.06      0.00
    3   -2    7     -0.06      0.00
    4   -2    7      0.06      0.00
    5   -2    7      0.04      0.00
    6   -2    7     -0.15      0.00
    7   -2    7      0.18      0.00
    8   -2    7     -0.14      0.00
    9   -2    7      0.13      0.00
   10   -2    7     -0.16      0.00
   11   -2    7      0.14      0.00
   12   -2    7     -0.05      0.00
   13   -2    7     -0.04      0.00
  -14   -1    7     -0.06      0.00
  -13   -1    7      0.02      0.00
  -12   -1    7      0.05      0.00
  -11   -1    7     -0.11      0.00
  -10   -1    7      0.15      0.00
   -9   -1    7     -0.15      0.00
   -8   -1    7      0.10      0.00
   -7   -1    7     -0.01      0.00
   -6   -1    7     -0.11      0.00
   -5   -1    7      0.20      0.00
   -4   -1    7     -0.19      0.00
   -3   -1    7     -0.01      0.00
   -2   -1    7      0.35      0.00
   -1   -1    7     -0.67      0.00
    0   -1    7      0.81      0.00
    1   -1    7     -0.73      0.00
    2   -1    7      0.51      0.00
    3   -1    7     -0.27      0.00
    4   -1    7      0.08      0.00
    5   -1    7     -0.02      0.00
    6   -1    7      0.09      0.00
    7   -1    7     -0.18      0.00
    8   -1    7      0.20      0.00
    9   -1    7     -0.18      0.00
   10   -1    7      0.19      0.00
   11   -1    7     -0.21      0.00
   12   -1    7      0.16      0.00
   13   -1    7     -0.03      0.00
  -14    0    7      0.04      0.00
  -13    0    7     -0.06      0.00
  -12    0    7      0.03      0.00
  -11    0    7      0.04      0.00
  -10    0    7     -0.12      0.00
   -9    0    7      0.22      0.00
   -8    0    7     -0.27      0.00
   -7    0    7      0.23      0.00
   -6    0    7     -0.11      0.00
   -5    0    7     -0.07      0.00
   -4    0    7      0.23      0.00
   -3    0    7     -0.25      0.00
   -2    0    7      0.05      0.00
   -1    0    7      0.33      0.00
    0    0    7     -0.73      0.00
    1    0    7      0.99      0.00
    2    0    7     -1.02      0.00
    3    0    7      0.84      0.00
    4    0    7     -0.55      0.00
    5    0    7      0.28      0.00
    6    0    7     -0.15      0.00
    7    0    7      0.17      0.00
    8    0    7     -0.20      0.00
    9    0    7      0.18      0.00
   10    0    7     -0.18      0.00
   11    0    7      0.22      0.00
   12    0    7     -0.24      0.00
   13    0    7      0.16      0.00
   14    0    7     -0.04      0.00
  -13    1    7      0.02      0.00
  -12    1    7     -0.03      0.00
  -11    1    7      0.01      0.00
  -10    1    7      0.06      0.00
   -9    1    7     -0.20      0.00
   -8    1    7      0.35      0.00
   -7    1    7     -0.43      0.00
   -6    1    7      0.39      0.00
   -5    1    7     -0.22      0.00
   -4    1    7     -0.00      0.00
   -3    1    7      0.22      0.00
   -2    1    7     -0.30      0.00
   -1    1    7      0.13      0.00
    0    1    7      0.30      0.00
    1    1    7     -0.82      0.00
    2    1    7      1.20      0.00
    3    1    7     -1.30      0.00
    4    1    7      1.10      0.00
    5    1    7     -0.76      0.00
    6    1    7      0.44      0.00
    7    1    7     -0.26      0.00
    8    1    7      0.20      0.00
    9    1    7     -0.16      0.00
   10    1    7      0.12      0.00
   11    1    7     -0.14      0.00
   12    1    7      0.21      0.00
   13    1    7     -0.23      0.00
   14    1    7      0.15      0.00
  -13    2    7      0.03      0.00
  -12    2    7     -0.01      0.00
  -11    2    7     -0.00      0.00
  -10    2    7     -0.02      0.00
   -9    2    7      0.11      0.00
   -8    2    7     -0.29      0.00
   -7    2    7      0.48      0.00
   -6    2    7     -0.57      0.00
   -5    2    7      0.51      0.00
   -4    2    7     -0.32      0.00
   -3    2    7      0.06      0.00
   -2    2    7      0.20      0.00
   -1    2    7     -0.31      0.00
    0    2    7      0.12      0.00
    1    2    7      0.36      0.00
    2    2    7     -0.93      0.00
    3    2    7      1.32      0.00
    4    2    7     -1.40      0.00
    5    2    7      1.18      0.00
    6    2    7     -0.83      0.00
    7    2    7      0.52      0.00
    8    2    7     -0.31      0.00
    9    2    7      0.17      0.00
   10    2    7     -0.07      0.00
   11    2    7      0.05      0.00
   12    2    7     -0.11      0.00
   13    2    7      0.20      0.00
   14    2    7     -0.20      0.00
   15    2    7      0.12      0.00
  -13    3    7     -0.01      0.00
  -12    3    7      0.00      0.00
  -11    3    7      0.01      0.00
  -10    3    7     -0.01      0.00
   -9    3    7     -0.02      0.00
   -8    3    7      0.15      0.00
   -7    3    7     -0.35      0.00
   -6    3    7      0.55      0.00
   -5    3    7     -0.63      0.00
   -4    3    7      0.57      0.00
   -3    3    7     -0.38      0.00
   -2    3    7      0.13      0.00
   -1    3    7      0.10      0.00
    0    3    7     -0.17      0.00
    1    3    7     -0.02      0.00
    2    3    7      0.45      0.00
    3    3    7     -0.93      0.00
    4    3    7      1.26      0.00
    5    3    7     -1.32      0.00
    6    3    7      1.15      0.00
    7    3    7     -0.85      0.00
    8    3    7      0.55      0.00
    9    3    7     -0.30      0.00
   10    3    7      0.12      0.00
   11    3    7     -0.02      0.00
   12    3    7      0.03      0.00
   13    3    7     -0.11      0.00
   14    3    7      0.16      0.00
   15    3    7     -0.12      0.00
  -12    4    7      0.04      0.00
  -11    4    7     -0.05      0.00
  -10    4    7      0.05      0.00
   -9    4    7     -0.03      0.00
   -8    4    7     -0.03      0.00
   -7    4    7      0.17      0.00
   -6    4    7     -0.38      0.00
   -5    4    7      0.56      0.00
   -4    4    7     -0.63      0.00
   -3    4    7      0.59      0.00
   -2    4    7     -0.48      0.00
   -1    4    7      0.31      0.00
    0    4    7     -0.13      0.00
    1    4    7      0.04      0.00
    2    4    7     -0.14      0.00
    3    4    7      0.44      0.00
    4    4    7     -0.83      0.00
    5    4    7      1.13      0.00
    6    4    7     -1.22      0.00
    7    4    7      1.09      0.00
    8    4    7     -0.82      0.00
    9    4    7      0.54      0.00
   10    4    7     -0.31      0.00
   11    4    7      0.13      0.00
   12    4    7     -0.04      0.00
   13    4    7      0.05      0.00
   14    4    7     -0.10      0.00
   15    4    7      0.10      0.00
   16    4    7     -0.03      0.00
  -12    5    7     -0.05      0.00
  -11    5    7      0.07      0.00
  -10    5    7     -0.08      0.00
   -9    5    7      0.07      0.00
   -8    5    7     -0.03      0.00
   -7    5    7     -0.05      0.00
   -6    5    7      0.18      0.00
   -5    5    7     -0.35      0.00
   -4    5    7      0.51      0.00
   -3    5    7     -0.62      0.00
   -2    5    7      0.68      0.00
   -1    5    7     -0.65      0.00
    0    5    7      0.53      0.00
    1    5    7     -0.32      0.00
    2    5    7      0.15      0.00
    3    5    7     -0.15      0.00
    4    5    7      0.37      0.00
    5    5    7     -0.73      0.00
    6    5    7      1.02      0.00
    7    5    7     -1.09      0.00
    8    5    7      0.96      0.00
    9    5    7     -0.75      0.00
   10    5    7      0.54      0.00
   11    5    7     -0.34      0.00
   12    5    7      0.16      0.00
   13    5    7     -0.05      0.00
   14    5    7      0.04      0.00
   15    5    7     -0.07      0.00
   16    5    7      0.05      0.00
  -11    6    7     -0.02      0.00
  -10    6    7      0.06      0.00
   -9    6    7     -0.08      0.00
   -8    6    7      0.08      0.00
   -7    6    7     -0.04      0.00
   -6    6    7     -0.03      0.00
   -5    6    7      0.14      0.00
   -4    6    7     -0.29      0.00
   -3    6    7      0.48      0.00
   -2    6    7     -0.67      0.00
   -1    6    7      0.79      0.00
    0    6    7     -0.79      0.00
    1    6    7      0.62      0.00
    2    6    7     -0.36      0.00
    3    6    7      0.15      0.00
    4    6    7     -0.12      0.00
    5    6    7      0.32      0.00
    6    6    7     -0.60      0.00
    7    6    7      0.81      0.00
    8    6    7     -0.85      0.00
    9    6    7      0.78      0.00
   10    6    7     -0.67      0.00
   11    6    7      0.52      0.00
   12    6    7     -0.32      0.00
   13    6    7      0.11      0.00
   14    6    7     -0.01      0.00
   15    6    7      0.02      0.00
   16    6    7     -0.06      0.00
  -10    7    7      0.01      0.00
   -9    7    7      0.06      0.00
   -8    7    7     -0.11      0.00
   -7    7    7      0.11      0.00
   -6    7    7     -0.07      0.00
   -5    7    7      0.02      0.00
   -4    7    7      0.07      0.00
   -3    7    7     -0.24      0.00
   -2    7    7      0.48      0.00
   -1    7    7     -0.70      0.00
    0    7    7      0.82      0.00
    1    7    7     -0.79      0.00
    2    7    7      0.60      0.00
    3    7    7     -0.34      0.00
    4    7    7      0.14      0.00
    5    7    7     -0.09      0.00
    6    7    7      0.19      0.00
    7    7    7     -0.36      0.00
    8    7    7      0.50      0.00
    9    7    7     -0.60      0.00
   10    7    7      0.64      0.00
   11    7    7     -0.59      0.00
   12    7    7      0.45      0.00
   13    7    7     -0.23      0.00
   14    7    7      0.04      0.00
   15    7    7      0.02      0.00
   16    7    7      0.02      0.00
   -9    8    7     -0.02      0.00
   -8    8    7      0.11      0.00
   -7    8    7     -0.15      0.00
   -6    8    7      0.12      0.00
   -5    8    7     -0.08      0.00
   -4    8    7      0.04      0.00
   -3    8    7      0.04      0.00
   -2    8    7     -0.21      0.00
   -1    8    7      0.44      0.00
    0    8    7     -0.66      0.00
    1    8    7      0.77      0.00
    2    8    7     -0.73      0.00
    3    8    7      0.56      0.00
    4    8    7     -0.32      0.00
    5    8    7      0.11      0.00
    6    8    7     -0.00      0.00
    7    8    7      0.01      0.00
    8    8    7     -0.12      0.00
    9    8    7      0.30      0.00
   10    8    7     -0.47      0.00
   11    8    7      0.54      0.00
   12    8    7     -0.50      0.00
   13    8    7      0.35      0.00
   14    8    7     -0.18      0.00
   15    8    7      0.05      0.00
   16    8    7     -0.00      0.00
   -8    9    7     -0.08      0.00
   -7    9    7      0.11      0.00
   -6    9    7     -0.09      0.00
   -5    9    7      0.05      0.00
   -4    9    7     -0.04      0.00
   -3    9    7      0.04      0.00
   -2    9    7      0.02      0.00
   -1    9    7     -0.17      0.00
    0    9    7      0.39      0.00
    1    9    7     -0.60      0.00
    2    9    7      0.71      0.00
    3    9    7     -0.68      0.00
    4    9    7      0.52      0.00
    5    9    7     -0.30      0.00
    6    9    7      0.10      0.00
    7    9    7      0.04      0.00
    8    9    7     -0.07      0.00
    9    9    7     -0.05      0.00
   10    9    7      0.25      0.00
   11    9    7     -0.42      0.00
   12    9    7      0.47      0.00
   13    9    7     -0.42      0.00
   14    9    7      0.32      0.00
   15    9    7     -0.20      0.00
   16    9    7      0.08      0.00
   -8   10    7      0.05      0.00
   -7   10    7     -0.05      0.00
   -6   10    7      0.01      0.00
   -5   10    7      0.04      0.00
   -4   10    7     -0.03      0.00
   -3   10    7     -0.01      0.00
   -2   10    7      0.03      0.00
   -1   10    7      0.02      0.00
    0   10    7     -0.15      0.00
    1   10    7      0.34      0.00
    2   10    7     -0.53      0.00
    3   10    7      0.63      0.00
    4   10    7     -0.59      0.00
    5   10    7      0.46      0.00
    6   10    7     -0.29      0.00
    7   10    7      0.12      0.00
    8   10    7      0.01      0.00
    9   10    7     -0.04      0.00
   10   10    7     -0.07      0.00
   11   10    7      0.25      0.00
   12   10    7     -0.37      0.00
   13   10    7      0.39      0.00
   14   10    7     -0.35      0.00
   15   10    7      0.28      0.00
   16   10    7     -0.18      0.00
   -6   11    7      0.04      0.00
   -5   11    7     -0.11      0.00
   -4   11    7      0.11      0.00
   -3   11    7     -0.06      0.00
   -2   11    7      0.01      0.00
   -1   11    7      0.01      0.00
    0   11    7      0.02      0.00
    1   11    7     -0.10      0.00
    2   11    7      0.26      0.00
    3   11    7     -0.42      0.00
    4   11    7      0.50      0.00
    5   11    7     -0.46      0.00
    6   11    7      0.38      0.00
    7   11    7     -0.27      0.00
    8   11    7      0.13      0.00
    9   11    7      0.00      0.00
   10   11    7     -0.04      0.00
   11   11    7     -0.07      0.00
   12   11    7      0.22      0.00
   13   11    7     -0.29      0.00
   14   11    7      0.26      0.00
   15   11    7     -0.21      0.00
   -5   12    7      0.10      0.00
   -4   12    7     -0.13      0.00
   -3   12    7      0.11      0.00
   -2   12    7     -0.06      0.00
   -1   12    7      0.02      0.00
    0   12    7      0.02      0.00
    1   12    7     -0.04      0.00
    2   12    7     -0.02      0.00
    3   12    7      0.15      0.00
    4   12    7     -0.29      0.00
    5   12    7      0.34      0.00
    6   12    7     -0.31      0.00
    7   12    7      0.26      0.00
    8   12    7     -0.20      0.00
    9   12    7      0.09      0.00
   10   12    7      0.03      0.00
   11   12    7     -0.04      0.00
   12   12    7     -0.07      0.00
   13   12    7      0.17      0.00
   14   12    7     -0.15      0.00
   -4   13    7      0.09      0.00
   -3   13    7     -0.11      0.00
   -2   13    7      0.08      0.00
   -1   13    7     -0.03      0.00
    0   13    7     -0.03      0.00
    1   13    7      0.10      0.00
    2   13    7     -0.13      0.00
    3   13    7      0.07      0.00
    4   13    7      0.06      0.00
    5   13    7     -0.16      0.00
    6   13    7      0.18      0.00
    7   13    7     -0.17      0.00
    8   13    7      0.18      0.00
    9   13    7     -0.16      0.00
   10   13    7      0.07      0.00
   11   13    7      0.02      0.00
   12   13    7     -0.01      0.00
   13   13    7     -0.07      0.00
   14   13    7      0.09      0.00
   -2   14    7     -0.07      0.00
   -1   14    7      0.03      0.00
    0   14    7      0.03      0.00
    1   14    7     -0.11      0.00
    2   14    7      0.18      0.00
    3   14    7     -0.19      0.00
    4   14    7      0.11      0.00
    5   14    7     -0.01      0.00
    6   14    7     -0.06      0.00
    7   14    7      0.09      0.00
    8   14    7     -0.14      0.00
    9   14    7      0.20      0.00
   10   14    7     -0.19      0.00
   11   14    7      0.09      0.00
   12   14    7     -0.01      0.00
   13   14    7      0.01      0.00
    0   15    7     -0.02      0.00
    1   15    7      0.07      0.00
    2   15    7     -0.13      0.00
    3   15    7      0.18      0.00
    4   15    7     -0.18      0.00
    5   15    7      0.12      0.00
    6   15    7     -0.04      0.00
    7   15    7     -0.03      0.00
    8   15    7      0.10      0.00
    9   15    7     -0.19      0.00
   10   15    7      0.25      0.00
   11   15    7     -0.20      0.00
   12   15    7      0.08      0.00
    3   16    7     -0.10      0.00
    4   16    7      0.15      0.00
    5   16    7     -0.15      0.00
    6   16    7      0.10      0.00
    7   16    7     -0.03      0.00
    8   16    7     -0.03      0.00
    9   16    7      0.12      0.00
   10   16    7     -0.19      0.00
   11   16    7      0.20      0.00
   -8  -13    8     -0.07      0.00
   -7  -13    8      0.08      0.00
   -6  -13    8     -0.07      0.00
   -5  -13    8      0.05      0.00
   -4  -13    8     -0.02      0.00
   -3  -13    8      0.00      0.00
   -2  -13    8      0.00      0.00
  -10  -12    8     -0.07      0.00
   -9  -12    8      0.05      0.00
   -8  -12    8     -0.01      0.00
   -7  -12    8     -0.01      0.00
   -6  -12    8      0.03      0.00
   -5  -12    8     -0.04      0.00
   -4  -12    8      0.05      0.00
   -3  -12    8     -0.03      0.00
   -2  -12    8      0.02      0.00
   -1  -12    8     -0.01      0.00
    0  -12    8      0.00      0.00
    1  -12    8      0.02      0.00
  -12  -11    8      0.08      0.00
  -11  -11    8     -0.07      0.00
  -10  -11    8      0.09      0.00
   -9  -11    8     -0.11      0.00
   -8  -11    8      0.13      0.00
   -7  -11    8     -0.12      0.00
   -6  -11    8      0.08      0.00
   -5  -11    8     -0.02      0.00
   -4  -11    8     -0.03      0.00
   -3  -11    8      0.04      0.00
   -2  -11    8     -0.02      0.00
   -1  -11    8      0.01      0.00
    0  -11    8     -0.02      0.00
    1  -11    8      0.00      0.00
    2  -11    8      0.04      0.00
    3  -11    8     -0.08      0.00
  -12  -10    8     -0.11      0.00
  -11  -10    8      0.06      0.00
  -10  -10    8     -0.04      0.00
   -9  -10    8      0.08      0.00
   -8  -10    8     -0.14      0.00
   -7  -10    8      0.17      0.00
   -6  -10    8     -0.15      0.00
   -5  -10    8      0.09      0.00
   -4  -10    8     -0.01      0.00
   -3  -10    8     -0.02      0.00
   -2  -10    8      0.00      0.00
   -1  -10    8      0.01      0.00
    0  -10    8      0.01      0.00
    1  -10    8     -0.03      0.00
    2  -10    8     -0.01      0.00
    3  -10    8      0.08      0.00
    4  -10    8     -0.11      0.00
    5  -10    8      0.06      0.00
  -13   -9    8     -0.11      0.00
  -12   -9    8      0.13      0.00
  -11   -9    8     -0.07      0.00
  -10   -9    8     -0.01      0.00
   -9   -9    8      0.02      0.00
   -8   -9    8      0.04      0.00
   -7   -9    8     -0.11      0.00
   -6   -9    8      0.14      0.00
   -5   -9    8     -0.11      0.00
   -4   -9    8      0.05      0.00
   -3   -9    8     -0.01      0.00
   -2   -9    8      0.02      0.00
   -1   -9    8     -0.05      0.00
    0   -9    8      0.04      0.00
    1   -9    8      0.01      0.00
    2   -9    8     -0.02      0.00
    3   -9    8     -0.04      0.00
    4   -9    8      0.09      0.00
    5   -9    8     -0.07      0.00
    6   -9    8     -0.00      0.00
  -13   -8    8      0.03      0.00
  -12   -8    8     -0.11      0.00
  -11   -8    8      0.11      0.00
  -10   -8    8     -0.04      0.00
   -9   -8    8     -0.03      0.00
   -8   -8    8      0.04      0.00
   -7   -8    8      0.01      0.00
   -6   -8    8     -0.07      0.00
   -5   -8    8      0.10      0.00
   -4   -8    8     -0.08      0.00
   -3   -8    8      0.04      0.00
   -2   -8    8     -0.02      0.00
   -1   -8    8      0.04      0.00
    0   -8    8     -0.06      0.00
    1   -8    8      0.03      0.00
    2   -8    8     -0.00      0.00
    3   -8    8      0.01      0.00
    4   -8    8     -0.04      0.00
    5   -8    8      0.02      0.00
    6   -8    8      0.04      0.00
    7   -8    8     -0.07      0.00
  -14   -7    8     -0.05      0.00
  -13   -7    8      0.04      0.00
  -12   -7    8      0.04      0.00
  -11   -7    8     -0.13      0.00
  -10   -7    8      0.14      0.00
   -9   -7    8     -0.09      0.00
   -8   -7    8      0.02      0.00
   -7   -7    8      0.00      0.00
   -6   -7    8      0.03      0.00
   -5   -7    8     -0.07      0.00
   -4   -7    8      0.08      0.00
   -3   -7    8     -0.05      0.00
   -2   -7    8      0.01      0.00
   -1   -7    8      0.01      0.00
    0   -7    8      0.00      0.00
    1   -7    8     -0.02      0.00
    2   -7    8      0.01      0.00
    3   -7    8     -0.01      0.00
    4   -7    8      0.01      0.00
    5   -7    8      0.02      0.00
    6   -7    8     -0.09      0.00
    7   -7    8      0.13      0.00
    8   -7    8     -0.08      0.00
    9   -7    8     -0.01      0.00
  -14   -6    8      0.01      0.00
  -13   -6    8     -0.02      0.00
  -12   -6    8     -0.01      0.00
  -11   -6    8      0.09      0.00
  -10   -6    8     -0.19      0.00
   -9   -6    8      0.23      0.00
   -8   -6    8     -0.18      0.00
   -7   -6    8      0.10      0.00
   -6   -6    8     -0.04      0.00
   -5   -6    8      0.02      0.00
   -4   -6    8     -0.04      0.00
   -3   -6    8      0.03      0.00
   -2   -6    8      0.01      0.00
   -1   -6    8     -0.05      0.00
    0   -6    8      0.07      0.00
    1   -6    8     -0.05      0.00
    2   -6    8      0.04      0.00
    3   -6    8     -0.04      0.00
    4   -6    8      0.03      0.00
    5   -6    8     -0.03      0.00
    6   -6    8      0.08      0.00
    7   -6    8     -0.13      0.00
    8   -6    8      0.12      0.00
    9   -6    8     -0.03      0.00
   10   -6    8     -0.04      0.00
  -14   -5    8      0.01      0.00
  -13   -5    8     -0.04      0.00
  -12   -5    8      0.03      0.00
  -11   -5    8     -0.05      0.00
  -10   -5    8      0.14      0.00
   -9   -5    8     -0.25      0.00
   -8   -5    8      0.29      0.00
   -7   -5    8     -0.21      0.00
   -6   -5    8      0.08      0.00
   -5   -5    8      0.04      0.00
   -4   -5    8     -0.08      0.00
   -3   -5    8      0.08      0.00
   -2   -5    8     -0.06      0.00
   -1   -5    8      0.07      0.00
    0   -5    8     -0.08      0.00
    1   -5    8      0.09      0.00
    2   -5    8     -0.10      0.00
    3   -5    8      0.11      0.00
    4   -5    8     -0.10      0.00
    5   -5    8      0.07      0.00
    6   -5    8     -0.05      0.00
    7   -5    8      0.08      0.00
    8   -5    8     -0.11      0.00
    9   -5    8      0.07      0.00
   10   -5    8      0.00      0.00
   11   -5    8     -0.03      0.00
  -14   -4    8      0.02      0.00
  -13   -4    8      0.03      0.00
  -12   -4    8     -0.04      0.00
  -11   -4    8      0.01      0.00
  -10   -4    8     -0.04      0.00
   -9   -4    8      0.15      0.00
   -8   -4    8     -0.26      0.00
   -7   -4    8      0.25      0.00
   -6   -4    8     -0.12      0.00
   -5   -4    8     -0.06      0.00
   -4   -4    8      0.19      0.00
   -3   -4    8     -0.23      0.00
   -2   -4    8      0.19      0.00
   -1   -4    8     -0.12      0.00
    0   -4    8      0.07      0.00
    1   -4    8     -0.05      0.00
    2   -4    8      0.07      0.00
    3   -4    8     -0.11      0.00
    4   -4    8      0.14      0.00
    5   -4    8     -0.12      0.00
    6   -4    8      0.06      0.00
    7   -4    8     -0.04      0.00
    8   -4    8      0.07      0.00
    9   -4    8     -0.08      0.00
   10   -4    8      0.04      0.00
   11   -4    8      0.01      0.00
  -14   -3    8     -0.05      0.00
  -13   -3    8      0.03      0.00
  -12   -3    8     -0.02      0.00
  -11   -3    8      0.04      0.00
  -10   -3    8     -0.03      0.00
   -9   -3    8     -0.05      0.00
   -8   -3    8      0.16      0.00
   -7   -3    8     -0.21      0.00
   -6   -3    8      0.16      0.00
   -5   -3    8     -0.01      0.00
   -4   -3    8     -0.16      0.00
   -3   -3    8      0.29      0.00
   -2   -3    8     -0.32      0.00
   -1   -3    8      0.26      0.00
    0   -3    8     -0.15      0.00
    1   -3    8      0.04      0.00
    2   -3    8      0.00      0.00
    3   -3    8      0.02      0.00
    4   -3    8     -0.08      0.00
    5   -3    8      0.12      0.00
    6   -3    8     -0.10      0.00
    7   -3    8      0.06      0.00
    8   -3    8     -0.06      0.00
    9   -3    8      0.09      0.00
   10   -3    8     -0.09      0.00
   11   -3    8      0.03      0.00
   12   -3    8      0.02      0.00
  -14   -2    8      0.02      0.00
  -13   -2    8     -0.05      0.00
  -12   -2    8      0.08      0.00
  -11   -2    8     -0.09      0.00
  -10   -2    8      0.08      0.00
   -9   -2    8     -0.03      0.00
   -8   -2    8     -0.06      0.00
   -7   -2    8      0.13      0.00
   -6   -2    8     -0.15      0.00
   -5   -2    8      0.11      0.00
   -4   -2    8     -0.01      0.00
   -3   -2    8     -0.14      0.00
   -2   -2    8      0.30      0.00
   -1   -2    8     -0.38      0.00
    0   -2    8      0.33      0.00
    1   -2    8     -0.20      0.00
    2   -2    8      0.07      0.00
    3   -2    8      0.02      0.00
    4   -2    8     -0.02      0.00
    5   -2    8     -0.04      0.00
    6   -2    8      0.10      0.00
    7   -2    8     -0.11      0.00
    8   -2    8      0.10      0.00
    9   -2    8     -0.12      0.00
   10   -2    8      0.15      0.00
   11   -2    8     -0.12      0.00
   12   -2    8      0.03      0.00
  -14   -1    8      0.05      0.00
  -13   -1    8     -0.01      0.00
  -12   -1    8     -0.04      0.00
  -11   -1    8      0.08      0.00
  -10   -1    8     -0.10      0.00
   -9   -1    8      0.09      0.00
   -8   -1    8     -0.05      0.00
   -7   -1    8     -0.00      0.00
   -6   -1    8      0.07      0.00
   -5   -1    8     -0.13      0.00
   -4   -1    8      0.17      0.00
   -3   -1    8     -0.11      0.00
   -2   -1    8     -0.07      0.00
   -1   -1    8      0.30      0.00
    0   -1    8     -0.44      0.00
    1   -1    8      0.45      0.00
    2   -1    8     -0.34      0.00
    3   -1    8      0.18      0.00
    4   -1    8     -0.07      0.00
    5   -1    8      0.03      0.00
    6   -1    8     -0.07      0.00
    7   -1    8      0.13      0.00
    8   -1    8     -0.15      0.00
    9   -1    8      0.16      0.00
   10   -1    8     -0.19      0.00
   11   -1    8      0.20      0.00
   12   -1    8     -0.13      0.00
   13   -1    8      0.02      0.00
  -13    0    8      0.07      0.00
  -12    0    8     -0.04      0.00
  -11    0    8     -0.01      0.00
  -10    0    8      0.07      0.00
   -9    0    8     -0.12      0.00
   -8    0    8      0.17      0.00
   -7    0    8     -0.17      0.00
   -6    0    8      0.11      0.00
   -5    0    8     -0.00      0.00
   -4    0    8     -0.13      0.00
   -3    0    8      0.23      0.00
   -2    0    8     -0.20      0.00
   -1    0    8     -0.01      0.00
    0    0    8      0.30      0.00
    1    0    8     -0.54      0.00
    2    0    8      0.63      0.00
    3    0    8     -0.57      0.00
    4    0    8      0.41      0.00
    5    0    8     -0.24      0.00
    6    0    8      0.16      0.00
    7    0    8     -0.16      0.00
    8    0    8      0.17      0.00
    9    0    8     -0.17      0.00
   10    0    8      0.19      0.00
   11    0    8     -0.23      0.00
   12    0    8      0.23      0.00
   13    0    8     -0.13      0.00
   14    0    8      0.01      0.00
  -13    1    8     -0.05      0.00
  -12    1    8      0.07      0.00
  -11    1    8     -0.05      0.00
  -10    1    8     -0.01      0.00
   -9    1    8      0.11      0.00
   -8    1    8     -0.23      0.00
   -7    1    8      0.33      0.00
   -6    1    8     -0.34      0.00
   -5    1    8      0.25      0.00
   -4    1    8     -0.09      0.00
   -3    1    8     -0.12      0.00
   -2    1    8      0.28      0.00
   -1    1    8     -0.27      0.00
    0    1    8      0.04      0.00
    1    1    8      0.33      0.00
    2    1    8     -0.69      0.00
    3    1    8      0.86      0.00
    4    1    8     -0.82      0.00
    5    1    8      0.62      0.00
    6    1    8     -0.41      0.00
    7    1    8      0.27      0.00
    8    1    8     -0.20      0.00
    9    1    8      0.15      0.00
   10    1    8     -0.13      0.00
   11    1    8      0.16      0.00
   12    1    8     -0.22      0.00
   13    1    8      0.22      0.00
   14    1    8     -0.12      0.00
  -13    2    8      0.00      0.00
  -12    2    8     -0.04      0.00
  -11    2    8      0.05      0.00
  -10    2    8     -0.02      0.00
   -9    2    8     -0.05      0.00
   -8    2    8      0.19      0.00
   -7    2    8     -0.37      0.00
   -6    2    8      0.48      0.00
   -5    2    8     -0.48      0.00
   -4    2    8      0.36      0.00
   -3    2    8     -0.15      0.00
   -2    2    8     -0.11      0.00
   -1    2    8      0.30      0.00
    0    2    8     -0.29      0.00
    1    2    8      0.00      0.00
    2    2    8      0.44      0.00
    3    2    8     -0.84      0.00
    4    2    8      1.02      0.00
    5    2    8     -0.94      0.00
    6    2    8      0.72      0.00
    7    2    8     -0.49      0.00
    8    2    8      0.31      0.00
    9    2    8     -0.17      0.00
   10    2    8      0.07      0.00
   11    2    8     -0.05      0.00
   12    2    8      0.12      0.00
   13    2    8     -0.19      0.00
   14    2    8      0.18      0.00
   15    2    8     -0.10      0.00
  -12    3    8      0.02      0.00
  -11    3    8     -0.03      0.00
  -10    3    8      0.03      0.00
   -9    3    8     -0.00      0.00
   -8    3    8     -0.09      0.00
   -7    3    8      0.26      0.00
   -6    3    8     -0.45      0.00
   -5    3    8      0.57      0.00
   -4    3    8     -0.54      0.00
   -3    3    8      0.40      0.00
   -2    3    8     -0.18      0.00
   -1    3    8     -0.06      0.00
    0    3    8      0.22      0.00
    1    3    8     -0.17      0.00
    2    3    8     -0.13      0.00
    3    3    8      0.54      0.00
    4    3    8     -0.89      0.00
    5    3    8      1.03      0.00
    6    3    8     -0.95      0.00
    7    3    8      0.74      0.00
    8    3    8     -0.51      0.00
    9    3    8      0.29      0.00
   10    3    8     -0.11      0.00
   11    3    8      0.01      0.00
   12    3    8     -0.01      0.00
   13    3    8      0.10      0.00
   14    3    8     -0.15      0.00
   15    3    8      0.12      0.00
  -12    4    8     -0.04      0.00
  -11    4    8      0.06      0.00
  -10    4    8     -0.06      0.00
   -9    4    8      0.04      0.00
   -8    4    8      0.00      0.00
   -7    4    8     -0.11      0.00
   -6    4    8      0.29      0.00
   -5    4    8     -0.48      0.00
   -4    4    8      0.56      0.00
   -3    4    8     -0.54      0.00
   -2    4    8      0.43      0.00
   -1    4    8     -0.28      0.00
    0    4    8      0.10      0.00
    1    4    8      0.03      0.00
    2    4    8     -0.01      0.00
    3    4    8     -0.21      0.00
    4    4    8      0.55      0.00
    5    4    8     -0.85      0.00
    6    4    8      0.99      0.00
    7    4    8     -0.93      0.00
    8    4    8      0.74      0.00
    9    4    8     -0.50      0.00
   10    4    8      0.29      0.00
   11    4    8     -0.11      0.00
   12    4    8      0.02      0.00
   13    4    8     -0.03      0.00
   14    4    8      0.09      0.00
   15    4    8     -0.11      0.00
  -11    5    8     -0.08      0.00
  -10    5    8      0.09      0.00
   -9    5    8     -0.07      0.00
   -8    5    8      0.03      0.00
   -7    5    8      0.02      0.00
   -6    5    8     -0.13      0.00
   -5    5    8      0.28      0.00
   -4    5    8     -0.43      0.00
   -3    5    8      0.52      0.00
   -2    5    8     -0.56      0.00
   -1    5    8      0.55      0.00
    0    5    8     -0.47      0.00
    1    5    8      0.30      0.00
    2    5    8     -0.11      0.00
    3    5    8      0.06      0.00
    4    5    8     -0.22      0.00
    5    5    8      0.53      0.00
    6    5    8     -0.82      0.00
    7    5    8      0.94      0.00
    8    5    8     -0.87      0.00
    9    5    8      0.71      0.00
   10    5    8     -0.53      0.00
   11    5    8      0.35      0.00
   12    5    8     -0.18      0.00
   13    5    8      0.07      0.00
   14    5    8     -0.05      0.00
   15    5    8      0.07      0.00
   16    5    8     -0.06      0.00
  -11    6    8      0.04      0.00
  -10    6    8     -0.07      0.00
   -9    6    8      0.08      0.00
   -8    6    8     -0.05      0.00
   -7    6    8      0.02      0.00
   -6    6    8      0.02      0.00
   -5    6    8     -0.10      0.00
   -4    6    8      0.22      0.00
   -3    6    8     -0.38      0.00
   -2    6    8      0.54      0.00
   -1    6    8     -0.67      0.00
    0    6    8      0.71      0.00
    1    6    8     -0.61      0.00
    2    6    8      0.38      0.00
    3    6    8     -0.14      0.00
    4    6    8      0.06      0.00
    5    6    8     -0.21      0.00
    6    6    8      0.48      0.00
    7    6    8     -0.71      0.00
    8    6    8      0.79      0.00
    9    6    8     -0.75      0.00
   10    6    8      0.67      0.00
   11    6    8     -0.56      0.00
   12    6    8      0.39      0.00
   13    6    8     -0.19      0.00
   14    6    8      0.05      0.00
   15    6    8     -0.02      0.00
   16    6    8      0.04      0.00
  -10    7    8     -0.00      0.00
   -9    7    8     -0.04      0.00
   -8    7    8      0.07      0.00
   -7    7    8     -0.06      0.00
   -6    7    8      0.04      0.00
   -5    7    8     -0.01      0.00
   -4    7    8     -0.04      0.00
   -3    7    8      0.17      0.00
   -2    7    8     -0.37      0.00
   -1    7    8      0.59      0.00
    0    7    8     -0.76      0.00
    1    7    8      0.78      0.00
    2    7    8     -0.63      0.00
    3    7    8      0.37      0.00
    4    7    8     -0.14      0.00
    5    7    8      0.05      0.00
    6    7    8     -0.13      0.00
    7    7    8      0.30      0.00
    8    7    8     -0.47      0.00
    9    7    8      0.58      0.00
   10    7    8     -0.63      0.00
   11    7    8      0.62      0.00
   12    7    8     -0.52      0.00
   13    7    8      0.32      0.00
   14    7    8     -0.11      0.00
   15    7    8     -0.00      0.00
   16    7    8      0.01      0.00
   -9    8    8     -0.00      0.00
   -8    8    8     -0.07      0.00
   -7    8    8      0.11      0.00
   -6    8    8     -0.09      0.00
   -5    8    8      0.05      0.00
   -4    8    8     -0.03      0.00
   -3    8    8     -0.02      0.00
   -2    8    8      0.15      0.00
   -1    8    8     -0.37      0.00
    0    8    8      0.60      0.00
    1    8    8     -0.75      0.00
    2    8    8      0.76      0.00
    3    8    8     -0.61      0.00
    4    8    8      0.37      0.00
    5    8    8     -0.14      0.00
    6    8    8     -0.01      0.00
    7    8    8      0.02      0.00
    8    8    8      0.09      0.00
    9    8    8     -0.26      0.00
   10    8    8      0.43      0.00
   11    8    8     -0.53      0.00
   12    8    8      0.51      0.00
   13    8    8     -0.39      0.00
   14    8    8      0.21      0.00
   15    8    8     -0.05      0.00
   16    8    8     -0.02      0.00
   -8    9    8      0.06      0.00
   -7    9    8     -0.11      0.00
   -6    9    8      0.10      0.00
   -5    9    8     -0.05      0.00
   -4    9    8      0.03      0.00
   -3    9    8     -0.03      0.00
   -2    9    8     -0.01      0.00
   -1    9    8      0.14      0.00
    0    9    8     -0.34      0.00
    1    9    8      0.56      0.00
    2    9    8     -0.71      0.00
    3    9    8      0.72      0.00
    4    9    8     -0.59      0.00
    5    9    8      0.37      0.00
    6    9    8     -0.13      0.00
    7    9    8     -0.05      0.00
    8    9    8      0.11      0.00
    9    9    8     -0.00      0.00
   10    9    8     -0.19      0.00
   11    9    8      0.36      0.00
   12    9    8     -0.41      0.00
   13    9    8      0.37      0.00
   14    9    8     -0.28      0.00
   15    9    8      0.17      0.00
   16    9    8     -0.06      0.00
   -7   10    8      0.08      0.00
   -6   10    8     -0.06      0.00
   -5   10    8      0.01      0.00
   -4   10    8      0.02      0.00
   -3   10    8     -0.01      0.00
   -2   10    8     -0.01      0.00
   -1   10    8     -0.02      0.00
    0   10    8      0.12      0.00
    1   10    8     -0.30      0.00
    2   10    8      0.50      0.00
    3   10    8     -0.63      0.00
    4   10    8      0.64      0.00
    5   10    8     -0.55      0.00
    6   10    8      0.37      0.00
    7   10    8     -0.15      0.00
    8   10    8     -0.03      0.00
    9   10    8      0.09      0.00
   10   10    8      0.01      0.00
   11   10    8     -0.18      0.00
   12   10    8      0.29      0.00
   13   10    8     -0.30      0.00
   14   10    8      0.28      0.00
   15   10    8     -0.24      0.00
   -6   11    8      0.01      0.00
   -5   11    8      0.05      0.00
   -4   11    8     -0.07      0.00
   -3   11    8      0.06      0.00
   -2   11    8     -0.03      0.00
   -1   11    8      0.02      0.00
    0   11    8     -0.03      0.00
    1   11    8      0.10      0.00
    2   11    8     -0.24      0.00
    3   11    8      0.39      0.00
    4   11    8     -0.50      0.00
    5   11    8      0.52      0.00
    6   11    8     -0.47      0.00
    7   11    8      0.34      0.00
    8   11    8     -0.16      0.00
    9   11    8     -0.01      0.00
   10   11    8      0.06      0.00
   11   11    8      0.03      0.00
   12   11    8     -0.16      0.00
   13   11    8      0.21      0.00
   14   11    8     -0.20      0.00
   15   11    8      0.19      0.00
   -5   12    8     -0.07      0.00
   -4   12    8      0.10      0.00
   -3   12    8     -0.09      0.00
   -2   12    8      0.06      0.00
   -1   12    8     -0.05      0.00
    0   12    8      0.03      0.00
    1   12    8     -0.01      0.00
    2   12    8      0.03      0.00
    3   12    8     -0.13      0.00
    4   12    8      0.26      0.00
    5   12    8     -0.35      0.00
    6   12    8      0.37      0.00
    7   12    8     -0.34      0.00
    8   12    8      0.26      0.00
    9   12    8     -0.10      0.00
   10   12    8     -0.04      0.00
   11   12    8      0.06      0.00
   12   12    8      0.04      0.00
   13   12    8     -0.13      0.00
   14   12    8      0.12      0.00
   -4   13    8     -0.08      0.00
   -3   13    8      0.09      0.00
   -2   13    8     -0.07      0.00
   -1   13    8      0.05      0.00
    0   13    8     -0.02      0.00
    1   13    8     -0.02      0.00
    2   13    8      0.07      0.00
    3   13    8     -0.06      0.00
    4   13    8     -0.03      0.00
    5   13    8      0.14      0.00
    6   13    8     -0.19      0.00
    7   13    8      0.22      0.00
    8   13    8     -0.22      0.00
    9   13    8      0.17      0.00
   10   13    8     -0.05      0.00
   11   13    8     -0.04      0.00
   12   13    8      0.02      0.00
   13   13    8      0.05      0.00
   14   13    8     -0.06      0.00
   -2   14    8      0.06      0.00
   -1   14    8     -0.03      0.00
    0   14    8      0.00      0.00
    1   14    8      0.04      0.00
    2   14    8     -0.10      0.00
    3   14    8      0.13      0.00
    4   14    8     -0.10      0.00
    5   14    8      0.02      0.00
    6   14    8      0.04      0.00
    7   14    8     -0.09      0.00
    8   14    8      0.15      0.00
    9   14    8     -0.20      0.00
   10   14    8      0.17      0.00
   11   14    8     -0.07      0.00
   12   14    8     -0.00      0.00
   13   14    8     -0.00      0.00
    0   15    8      0.01      0.00
    1   15    8     -0.05      0.00
    2   15    8      0.08      0.00
    3   15    8     -0.12      0.00
    4   15    8      0.14      0.00
    5   15    8     -0.11      0.00
    6   15    8      0.06      0.00
    7   15    8     -0.00      0.00
    8   15    8     -0.08      0.00
    9   15    8      0.18      0.00
   10   15    8     -0.24      0.00
   11   15    8      0.18      0.00
   12   15    8     -0.07      0.00
    3   16    8      0.07      0.00
    4   16    8     -0.10      0.00
    5   16    8      0.12      0.00
    6   16    8     -0.12      0.00
    7   16    8      0.08      0.00
    8   16    8      0.00      0.00
    9   16    8     -0.11      0.00
   10   16    8      0.21      0.00
   -6  -13    9      0.08      0.00
   -3  -13    9      0.05      0.00
   -9  -12    9     -0.08      0.00
   -8  -12    9      0.02      0.00
   -7  -12    9      0.04      0.00
   -6  -12    9     -0.07      0.00
   -5  -12    9      0.07      0.00
   -4  -12    9     -0.03      0.00
   -3  -12    9     -0.01      0.00
   -2  -12    9      0.02      0.00
   -1  -12    9     -0.00      0.00
    0  -12    9     -0.01      0.00
  -11  -11    9      0.10      0.00
  -10  -11    9     -0.13      0.00
   -9  -11    9      0.14      0.00
   -8  -11    9     -0.11      0.00
   -7  -11    9      0.06      0.00
   -6  -11    9     -0.01      0.00
   -5  -11    9     -0.03      0.00
   -4  -11    9      0.04      0.00
   -3  -11    9     -0.02      0.00
   -2  -11    9     -0.00      0.00
   -1  -11    9      0.00      0.00
    0  -11    9      0.02      0.00
    1  -11    9     -0.02      0.00
    2  -11    9     -0.01      0.00
  -12  -10    9      0.13      0.00
  -11  -10    9     -0.10      0.00
  -10  -10    9      0.09      0.00
   -9  -10    9     -0.11      0.00
   -8  -10    9      0.14      0.00
   -7  -10    9     -0.13      0.00
   -6  -10    9      0.09      0.00
   -5  -10    9     -0.03      0.00
   -4  -10    9     -0.02      0.00
   -3  -10    9      0.02      0.00
   -2  -10    9      0.01      0.00
   -1  -10    9     -0.03      0.00
    0  -10    9     -0.00      0.00
    1  -10    9      0.04      0.00
    2  -10    9     -0.02      0.00
    3  -10    9     -0.03      0.00
    4  -10    9      0.06      0.00
  -12   -9    9     -0.15      0.00
  -11   -9    9      0.10      0.00
  -10   -9    9     -0.04      0.00
   -9   -9    9      0.02      0.00
   -8   -9    9     -0.06      0.00
   -7   -9    9      0.10      0.00
   -6   -9    9     -0.10      0.00
   -5   -9    9      0.07      0.00
   -4   -9    9     -0.02      0.00
   -3   -9    9     -0.01      0.00
   -2   -9    9     -0.02      0.00
   -1   -9    9      0.06      0.00
    0   -9    9     -0.05      0.00
    1   -9    9     -0.00      0.00
    2   -9    9      0.03      0.00
    3   -9    9      0.01      0.00
    4   -9    9     -0.06      0.00
    5   -9    9      0.05      0.00
    6   -9    9     -0.01      0.00
  -13   -8    9     -0.04      0.00
  -12   -8    9      0.11      0.00
  -11   -8    9     -0.12      0.00
  -10   -8    9      0.05      0.00
   -9   -8    9      0.02      0.00
   -8   -8    9     -0.03      0.00
   -7   -8    9     -0.01      0.00
   -6   -8    9      0.06      0.00
   -5   -8    9     -0.07      0.00
   -4   -8    9      0.05      0.00
   -3   -8    9     -0.02      0.00
   -2   -8    9      0.02      0.00
   -1   -8    9     -0.05      0.00
    0   -8    9      0.08      0.00
    1   -8    9     -0.06      0.00
    2   -8    9      0.01      0.00
    3   -8    9     -0.01      0.00
    4   -8    9      0.03      0.00
    5   -8    9     -0.02      0.00
    6   -8    9     -0.02      0.00
    7   -8    9      0.05      0.00
  -13   -7    9     -0.04      0.00
  -12   -7    9     -0.02      0.00
  -11   -7    9      0.10      0.00
  -10   -7    9     -0.11      0.00
   -9   -7    9      0.05      0.00
   -8   -7    9      0.00      0.00
   -7   -7    9     -0.01      0.00
   -6   -7    9     -0.02      0.00
   -5   -7    9      0.06      0.00
   -4   -7    9     -0.08      0.00
   -3   -7    9      0.06      0.00
   -2   -7    9     -0.02      0.00
   -1   -7    9      0.01      0.00
    0   -7    9     -0.03      0.00
    1   -7    9      0.05      0.00
    2   -7    9     -0.05      0.00
    3   -7    9      0.04      0.00
    4   -7    9     -0.02      0.00
    5   -7    9     -0.01      0.00
    6   -7    9      0.07      0.00
    7   -7    9     -0.11      0.00
    8   -7    9      0.07      0.00
  -14   -6    9     -0.02      0.00
  -13   -6    9      0.05      0.00
  -12   -6    9     -0.03      0.00
  -11   -6    9     -0.04      0.00
  -10   -6    9      0.12      0.00
   -9   -6    9     -0.15      0.00
   -8   -6    9      0.12      0.00
   -7   -6    9     -0.07      0.00
   -6   -6    9      0.04      0.00
   -5   -6    9     -0.05      0.00
   -4   -6    9      0.08      0.00
   -3   -6    9     -0.07      0.00
   -2   -6    9      0.03      0.00
   -1   -6    9      0.03      0.00
    0   -6    9     -0.05      0.00
    1   -6    9      0.03      0.00
    2   -6    9      0.01      0.00
    3   -6    9     -0.02      0.00
    4   -6    9      0.02      0.00
    5   -6    9      0.01      0.00
    6   -6    9     -0.08      0.00
    7   -6    9      0.14      0.00
    8   -6    9     -0.13      0.00
    9   -6    9      0.04      0.00
  -13   -5    9      0.02      0.00
  -12   -5    9      0.00      0.00
  -11   -5    9      0.00      0.00
  -10   -5    9     -0.06      0.00
   -9   -5    9      0.16      0.00
   -8   -5    9     -0.21      0.00
   -7   -5    9      0.18      0.00
   -6   -5    9     -0.11      0.00
   -5   -5    9      0.04      0.00
   -4   -5    9     -0.01      0.00
   -3   -5    9     -0.00      0.00
   -2   -5    9      0.02      0.00
   -1   -5    9     -0.05      0.00
    0   -5    9      0.08      0.00
    1   -5    9     -0.09      0.00
    2   -5    9      0.07      0.00
    3   -5    9     -0.05      0.00
    4   -5    9      0.03      0.00
    5   -5    9     -0.02      0.00
    6   -5    9      0.06      0.00
    7   -5    9     -0.11      0.00
    8   -5    9      0.14      0.00
    9   -5    9     -0.08      0.00
   10   -5    9     -0.01      0.00
  -14   -4    9     -0.01      0.00
  -13   -4    9     -0.04      0.00
  -12   -4    9      0.04      0.00
  -11   -4    9      0.00      0.00
  -10   -4    9     -0.00      0.00
   -9   -4    9     -0.08      0.00
   -8   -4    9      0.19      0.00
   -7   -4    9     -0.23      0.00
   -6   -4    9      0.16      0.00
   -5   -4    9     -0.04      0.00
   -4   -4    9     -0.07      0.00
   -3   -4    9      0.12      0.00
   -2   -4    9     -0.13      0.00
   -1   -4    9      0.11      0.00
    0   -4    9     -0.09      0.00
    1   -4    9      0.09      0.00
    2   -4    9     -0.09      0.00
    3   -4    9      0.10      0.00
    4   -4    9     -0.09      0.00
    5   -4    9      0.06      0.00
    6   -4    9     -0.04      0.00
    7   -4    9      0.06      0.00
    8   -4    9     -0.10      0.00
    9   -4    9      0.10      0.00
   10   -4    9     -0.04      0.00
   11   -4    9     -0.03      0.00
  -14   -3    9      0.05      0.00
  -13   -3    9     -0.02      0.00
  -12   -3    9     -0.01      0.00
  -11   -3    9     -0.02      0.00
  -10   -3    9      0.04      0.00
   -9   -3    9     -0.00      0.00
   -8   -3    9     -0.11      0.00
   -7   -3    9      0.19      0.00
   -6   -3    9     -0.18      0.00
   -5   -3    9      0.07      0.00
   -4   -3    9      0.06      0.00
   -3   -3    9     -0.17      0.00
   -2   -3    9      0.22      0.00
   -1   -3    9     -0.21      0.00
    0   -3    9      0.15      0.00
    1   -3    9     -0.09      0.00
    2   -3    9      0.06      0.00
    3   -3    9     -0.06      0.00
    4   -3    9      0.08      0.00
    5   -3    9     -0.08      0.00
    6   -3    9      0.05      0.00
    7   -3    9     -0.04      0.00
    8   -3    9      0.06      0.00
    9   -3    9     -0.10      0.00
   10   -3    9      0.08      0.00
   11   -3    9     -0.01      0.00
   12   -3    9     -0.03      0.00
  -13   -2    9      0.06      0.00
  -12   -2    9     -0.06      0.00
  -11   -2    9      0.07      0.00
  -10   -2    9     -0.07      0.00
   -9   -2    9      0.04      0.00
   -8   -2    9      0.04      0.00
   -7   -2    9     -0.12      0.00
   -6   -2    9      0.14      0.00
   -5   -2    9     -0.11      0.00
   -4   -2    9      0.04      0.00
   -3   -2    9      0.05      0.00
   -2   -2    9     -0.16      0.00
   -1   -2    9      0.24      0.00
    0   -2    9     -0.24      0.00
    1   -2    9      0.18      0.00
    2   -2    9     -0.09      0.00
    3   -2    9      0.03      0.00
    4   -2    9     -0.02      0.00
    5   -2    9      0.03      0.00
    6   -2    9     -0.05      0.00
    7   -2    9      0.05      0.00
    8   -2    9     -0.07      0.00
    9   -2    9      0.11      0.00
   10   -2    9     -0.13      0.00
   11   -2    9      0.09      0.00
   12   -2    9     -0.01      0.00
  -13   -1    9     -0.01      0.00
  -12   -1    9      0.06      0.00
  -11   -1    9     -0.09      0.00
  -10   -1    9      0.09      0.00
   -9   -1    9     -0.07      0.00
   -8   -1    9      0.02      0.00
   -7   -1    9      0.02      0.00
   -6   -1    9     -0.05      0.00
   -5   -1    9      0.08      0.00
   -4   -1    9     -0.11      0.00
   -3   -1    9      0.12      0.00
   -2   -1    9     -0.05      0.00
   -1   -1    9     -0.09      0.00
    0   -1    9      0.23      0.00
    1   -1    9     -0.28      0.00
    2   -1    9      0.23      0.00
    3   -1    9     -0.14      0.00
    4   -1    9      0.06      0.00
    5   -1    9     -0.03      0.00
    6   -1    9      0.04      0.00
    7   -1    9     -0.07      0.00
    8   -1    9      0.10      0.00
    9   -1    9     -0.14      0.00
   10   -1    9      0.18      0.00
   11   -1    9     -0.18      0.00
   12   -1    9      0.11      0.00
   13   -1    9     -0.00      0.00
  -13    0    9     -0.06      0.00
  -12    0    9      0.02      0.00
  -11    0    9      0.03      0.00
  -10    0    9     -0.06      0.00
   -9    0    9      0.08      0.00
   -8    0    9     -0.10      0.00
   -7    0    9      0.10      0.00
   -6    0    9     -0.09      0.00
   -5    0    9      0.05      0.00
   -4    0    9      0.04      0.00
   -3    0    9     -0.16      0.00
   -2    0    9      0.23      0.00
   -1    0    9     -0.16      0.00
    0    0    9     -0.03      0.00
    1    0    9      0.24      0.00
    2    0    9     -0.36      0.00
    3    0    9      0.36      0.00
    4    0    9     -0.28      0.00
    5    0    9      0.18      0.00
    6    0    9     -0.12      0.00
    7    0    9      0.11      0.00
    8    0    9     -0.13      0.00
    9    0    9      0.16      0.00
   10    0    9     -0.20      0.00
   11    0    9      0.24      0.00
   12    0    9     -0.22      0.00
   13    0    9      0.11      0.00
  -13    1    9      0.08      0.00
  -12    1    9     -0.09      0.00
  -11    1    9      0.05      0.00
  -10    1    9      0.00      0.00
   -9    1    9     -0.07      0.00
   -8    1    9      0.14      0.00
   -7    1    9     -0.22      0.00
   -6    1    9      0.26      0.00
   -5    1    9     -0.24      0.00
   -4    1    9      0.15      0.00
   -3    1    9      0.02      0.00
   -2    1    9     -0.21      0.00
   -1    1    9      0.32      0.00
    0    1    9     -0.24      0.00
    1    1    9     -0.02      0.00
    2    1    9      0.32      0.00
    3    1    9     -0.51      0.00
    4    1    9      0.55      0.00
    5    1    9     -0.46      0.00
    6    1    9      0.33      0.00
    7    1    9     -0.23      0.00
    8    1    9      0.17      0.00
    9    1    9     -0.14      0.00
   10    1    9      0.15      0.00
   11    1    9     -0.20      0.00
   12    1    9      0.24      0.00
   13    1    9     -0.21      0.00
   14    1    9      0.10      0.00
  -13    2    9     -0.04      0.00
  -12    2    9      0.08      0.00
  -11    2    9     -0.07      0.00
  -10    2    9      0.04      0.00
   -9    2    9      0.02      0.00
   -8    2    9     -0.12      0.00
   -7    2    9      0.25      0.00
   -6    2    9     -0.37      0.00
   -5    2    9      0.41      0.00
   -4    2    9     -0.36      0.00
   -3    2    9      0.22      0.00
   -2    2    9      0.01      0.00
   -1    2    9     -0.25      0.00
    0    2    9      0.35      0.00
    1    2    9     -0.22      0.00
    2    2    9     -0.11      0.00
    3    2    9      0.46      0.00
    4    2    9     -0.67      0.00
    5    2    9      0.70      0.00
    6    2    9     -0.58      0.00
    7    2    9      0.42      0.00
    8    2    9     -0.28      0.00
    9    2    9      0.16      0.00
   10    2    9     -0.08      0.00
   11    2    9      0.08      0.00
   12    2    9     -0.15      0.00
   13    2    9      0.21      0.00
   14    2    9     -0.18      0.00
  -12    3    9     -0.05      0.00
  -11    3    9      0.07      0.00
  -10    3    9     -0.05      0.00
   -9    3    9      0.02      0.00
   -8    3    9      0.04      0.00
   -7    3    9     -0.17      0.00
   -6    3    9      0.34      0.00
   -5    3    9     -0.47      0.00
   -4    3    9      0.49      0.00
   -3    3    9     -0.40      0.00
   -2    3    9      0.22      0.00
   -1    3    9      0.02      0.00
    0    3    9     -0.22      0.00
    1    3    9      0.27      0.00
    2    3    9     -0.09      0.00
    3    3    9     -0.25      0.00
    4    3    9      0.57      0.00
    5    3    9     -0.75      0.00
    6    3    9      0.74      0.00
    7    3    9     -0.62      0.00
    8    3    9      0.44      0.00
    9    3    9     -0.26      0.00
   10    3    9      0.10      0.00
   11    3    9     -0.00      0.00
   12    3    9      0.02      0.00
   13    3    9     -0.10      0.00
   14    3    9      0.15      0.00
   15    3    9     -0.12      0.00
  -12    4    9      0.04      0.00
  -11    4    9     -0.08      0.00
  -10    4    9      0.07      0.00
   -9    4    9     -0.04      0.00
   -8    4    9      0.02      0.00
   -7    4    9      0.05      0.00
   -6    4    9     -0.20      0.00
   -5    4    9      0.37      0.00
   -4    4    9     -0.49      0.00
   -3    4    9      0.49      0.00
   -2    4    9     -0.40      0.00
   -1    4    9      0.25      0.00
    0    4    9     -0.07      0.00
    1    4    9     -0.08      0.00
    2    4    9      0.10      0.00
    3    4    9      0.05      0.00
    4    4    9     -0.33      0.00
    5    4    9      0.60      0.00
    6    4    9     -0.76      0.00
    7    4    9      0.75      0.00
    8    4    9     -0.61      0.00
    9    4    9      0.43      0.00
   10    4    9     -0.24      0.00
   11    4    9      0.08      0.00
   12    4    9      0.01      0.00
   13    4    9      0.01      0.00
   14    4    9     -0.07      0.00
   15    4    9      0.10      0.00
  -11    5    9      0.08      0.00
  -10    5    9     -0.09      0.00
   -9    5    9      0.06      0.00
   -8    5    9     -0.03      0.00
   -7    5    9      0.01      0.00
   -6    5    9      0.06      0.00
   -5    5    9     -0.19      0.00
   -4    5    9      0.35      0.00
   -3    5    9     -0.44      0.00
   -2    5    9      0.47      0.00
   -1    5    9     -0.45      0.00
    0    5    9      0.38      0.00
    1    5    9     -0.24      0.00
    2    5    9      0.08      0.00
    3    5    9     -0.00      0.00
    4    5    9      0.10      0.00
    5    5    9     -0.35      0.00
    6    5    9      0.62      0.00
    7    5    9     -0.76      0.00
    8    5    9      0.73      0.00
    9    5    9     -0.60      0.00
   10    5    9      0.45      0.00
   11    5    9     -0.30      0.00
   12    5    9      0.15      0.00
   13    5    9     -0.05      0.00
   14    5    9      0.03      0.00
   15    5    9     -0.05      0.00
  -11    6    9     -0.04      0.00
  -10    6    9      0.07      0.00
   -9    6    9     -0.06      0.00
   -8    6    9      0.03      0.00
   -7    6    9     -0.00      0.00
   -6    6    9     -0.01      0.00
   -5    6    9      0.05      0.00
   -4    6    9     -0.15      0.00
   -3    6    9      0.29      0.00
   -2    6    9     -0.42      0.00
   -1    6    9      0.54      0.00
    0    6    9     -0.60      0.00
    1    6    9      0.54      0.00
    2    6    9     -0.36      0.00
    3    6    9      0.13      0.00
    4    6    9     -0.02      0.00
    5    6    9      0.11      0.00
    6    6    9     -0.35      0.00
    7    6    9      0.58      0.00
    8    6    9     -0.68      0.00
    9    6    9      0.66      0.00
   10    6    9     -0.60      0.00
   11    6    9      0.52      0.00
   12    6    9     -0.40      0.00
   13    6    9      0.23      0.00
   14    6    9     -0.08      0.00
   15    6    9      0.02      0.00
   16    6    9     -0.03      0.00
  -10    7    9      0.01      0.00
   -9    7    9      0.01      0.00
   -8    7    9     -0.02      0.00
   -7    7    9      0.00      0.00
   -6    7    9     -0.00      0.00
   -5    7    9      0.01      0.00
   -4    7    9      0.01      0.00
   -3    7    9     -0.11      0.00
   -2    7    9      0.27      0.00
   -1    7    9     -0.48      0.00
    0    7    9      0.65      0.00
    1    7    9     -0.71      0.00
    2    7    9      0.61      0.00
    3    7    9     -0.38      0.00
    4    7    9      0.13      0.00
    5    7    9     -0.01      0.00
    6    7    9      0.08      0.00
    7    7    9     -0.25      0.00
    8    7    9      0.43      0.00
    9    7    9     -0.54      0.00
   10    7    9      0.58      0.00
   11    7    9     -0.60      0.00
   12    7    9      0.55      0.00
   13    7    9     -0.40      0.00
   14    7    9      0.19      0.00
   15    7    9     -0.03      0.00
   16    7    9     -0.01      0.00
   -9    8    9      0.04      0.00
   -8    8    9      0.01      0.00
   -7    8    9     -0.04      0.00
   -6    8    9      0.03      0.00
   -5    8    9     -0.02      0.00
   -4    8    9      0.02      0.00
   -3    8    9      0.00      0.00
   -2    8    9     -0.11      0.00
   -1    8    9      0.30      0.00
    0    8    9     -0.52      0.00
    1    8    9      0.69      0.00
    2    8    9     -0.73      0.00
    3    8    9      0.61      0.00
    4    8    9     -0.38      0.00
    5    8    9      0.14      0.00
    6    8    9      0.02      0.00
    7    8    9     -0.04      0.00
    8    8    9     -0.08      0.00
    9    8    9      0.26      0.00
   10    8    9     -0.41      0.00
   11    8    9      0.51      0.00
   12    8    9     -0.52      0.00
   13    8    9      0.44      0.00
   14    8    9     -0.28      0.00
   15    8    9      0.10      0.00
   -8    9    9     -0.01      0.00
   -7    9    9      0.07      0.00
   -6    9    9     -0.07      0.00
   -5    9    9      0.03      0.00
   -4    9    9     -0.00      0.00
   -3    9    9      0.00      0.00
   -2    9    9      0.02      0.00
   -1    9    9     -0.12      0.00
    0    9    9      0.30      0.00
    1    9    9     -0.51      0.00
    2    9    9      0.67      0.00
    3    9    9     -0.71      0.00
    4    9    9      0.61      0.00
    5    9    9     -0.40      0.00
    6    9    9      0.14      0.00
    7    9    9      0.06      0.00
    8    9    9     -0.12      0.00
    9    9    9      0.01      0.00
   10    9    9      0.18      0.00
   11    9    9     -0.33      0.00
   12    9    9      0.38      0.00
   13    9    9     -0.35      0.00
   14    9    9      0.28      0.00
   15    9    9     -0.17      0.00
   -7   10    9     -0.08      0.00
   -6   10    9      0.08      0.00
   -5   10    9     -0.04      0.00
   -4   10    9     -0.01      0.00
   -3   10    9      0.03      0.00
   -2   10    9     -0.02      0.00
   -1   10    9      0.03      0.00
    0   10    9     -0.12      0.00
    1   10    9      0.27      0.00
    2   10    9     -0.46      0.00
    3   10    9      0.61      0.00
    4   10    9     -0.66      0.00
    5   10    9      0.58      0.00
    6   10    9     -0.40      0.00
    7   10    9      0.16      0.00
    8   10    9      0.04      0.00
    9   10    9     -0.11      0.00
   10   10    9      0.01      0.00
   11   10    9      0.14      0.00
   12   10    9     -0.23      0.00
   13   10    9      0.22      0.00
   14   10    9     -0.20      0.00
   15   10    9      0.18      0.00
   -6   11    9     -0.06      0.00
   -5   11    9      0.02      0.00
   -4   11    9      0.02      0.00
   -3   11    9     -0.03      0.00
   -2   11    9      0.03      0.00
   -1   11    9     -0.03      0.00
    0   11    9      0.05      0.00
    1   11    9     -0.10      0.00
    2   11    9      0.21      0.00
    3   11    9     -0.36      0.00
    4   11    9      0.49      0.00
    5   11    9     -0.55      0.00
    6   11    9      0.52      0.00
    7   11    9     -0.39      0.00
    8   11    9      0.18      0.00
    9   11    9      0.01      0.00
   10   11    9     -0.08      0.00
   11   11    9      0.00      0.00
   12   11    9      0.10      0.00
   13   11    9     -0.13      0.00
   14   11    9      0.11      0.00
   15   11    9     -0.12      0.00
   -5   12    9      0.01      0.00
   -4   12    9     -0.03      0.00
   -3   12    9      0.04      0.00
   -2   12    9     -0.03      0.00
   -1   12    9      0.04      0.00
    0   12    9     -0.05      0.00
    1   12    9      0.04      0.00
    2   12    9     -0.04      0.00
    3   12    9      0.10      0.00
    4   12    9     -0.22      0.00
    5   12    9      0.35      0.00
    6   12    9     -0.42      0.00
    7   12    9      0.41      0.00
    8   12    9     -0.31      0.00
    9   12    9      0.12      0.00
   10   12    9      0.04      0.00
   11   12    9     -0.07      0.00
   12   12    9     -0.00      0.00
   13   12    9      0.07      0.00
   14   12    9     -0.06      0.00
   -4   13    9      0.04      0.00
   -3   13    9     -0.04      0.00
   -2   13    9      0.03      0.00
   -1   13    9     -0.03      0.00
    0   13    9      0.05      0.00
    1   13    9     -0.03      0.00
    2   13    9     -0.03      0.00
    3   13    9      0.05      0.00
    4   13    9      0.00      0.00
    5   13    9     -0.11      0.00
    6   13    9      0.22      0.00
    7   13    9     -0.28      0.00
    8   13    9      0.28      0.00
    9   13    9     -0.19      0.00
   10   13    9      0.05      0.00
   11   13    9      0.05      0.00
   12   13    9     -0.04      0.00
   13   13    9     -0.02      0.00
   14   13    9      0.03      0.00
   -2   14    9     -0.03      0.00
   -1   14    9      0.01      0.00
    0   14    9     -0.02      0.00
    1   14    9      0.01      0.00
    2   14    9      0.04      0.00
    3   14    9     -0.09      0.00
    4   14    9      0.10      0.00
    5   14    9     -0.04      0.00
    6   14    9     -0.04      0.00
    7   14    9      0.12      0.00
    8   14    9     -0.18      0.00
    9   14    9      0.20      0.00
   10   14    9     -0.14      0.00
   11   14    9      0.04      0.00
   12   14    9      0.01      0.00
   13   14    9     -0.00      0.00
    0   15    9     -0.01      0.00
    1   15    9      0.02      0.00
    2   15    9     -0.03      0.00
    3   15    9      0.06      0.00
    4   15    9     -0.09      0.00
    5   15    9      0.10      0.00
    6   15    9     -0.07      0.00
    7   15    9      0.00      0.00
    8   15    9      0.08      0.00
    9   15    9     -0.17      0.00
   10   15    9      0.20      0.00
   11   15    9     -0.15      0.00
   12   15    9      0.06      0.00
    3   16    9     -0.02      0.00
    4   16    9      0.04      0.00
    5   16    9     -0.08      0.00
    6   16    9      0.11      0.00
    7   16    9     -0.09      0.00
    8   16    9      0.01      0.00
    9   16    9      0.10      0.00
   10   16    9     -0.19      0.00
   -8  -12   10     -0.02      0.00
   -7  -12   10     -0.06      0.00
   -6  -12   10      0.09      0.00
   -5  -12   10     -0.07      0.00
   -4  -12   10      0.01      0.00
   -3  -12   10      0.05      0.00
   -2  -12   10     -0.06      0.00
   -1  -12   10      0.02      0.00
    0  -12   10      0.02      0.00
  -10  -11   10      0.15      0.00
   -9  -11   10     -0.16      0.00
   -8  -11   10      0.10      0.00
   -7  -11   10     -0.02      0.00
   -6  -11   10     -0.06      0.00
   -5  -11   10      0.08      0.00
   -4  -11   10     -0.05      0.00
   -3  -11   10     -0.00      0.00
   -2  -11   10      0.03      0.00
   -1  -11   10     -0.02      0.00
    0  -11   10     -0.03      0.00
    1  -11   10      0.05      0.00
  -11  -10   10      0.11      0.00
  -10  -10   10     -0.12      0.00
   -9  -10   10      0.15      0.00
   -8  -10   10     -0.14      0.00
   -7  -10   10      0.09      0.00
   -6  -10   10     -0.01      0.00
   -5  -10   10     -0.04      0.00
   -4  -10   10      0.06      0.00
   -3  -10   10     -0.03      0.00
   -2  -10   10     -0.02      0.00
   -1  -10   10      0.04      0.00
    0  -10   10      0.00      0.00
    1  -10   10     -0.05      0.00
    2  -10   10      0.06      0.00
    3  -10   10     -0.01      0.00
    4  -10   10     -0.02      0.00
  -12   -9   10      0.14      0.00
  -11   -9   10     -0.11      0.00
  -10   -9   10      0.07      0.00
   -9   -9   10     -0.07      0.00
   -8   -9   10      0.09      0.00
   -7   -9   10     -0.09      0.00
   -6   -9   10      0.05      0.00
   -5   -9   10     -0.00      0.00
   -4   -9   10     -0.03      0.00
   -3   -9   10      0.03      0.00
   -2   -9   10      0.02      0.00
   -1   -9   10     -0.06      0.00
    0   -9   10      0.06      0.00
    1   -9   10      0.00      0.00
    2   -9   10     -0.05      0.00
    3   -9   10      0.03      0.00
    4   -9   10      0.02      0.00
    5   -9   10     -0.03      0.00
    6   -9   10      0.01      0.00
  -12   -8   10     -0.11      0.00
  -11   -8   10      0.11      0.00
  -10   -8   10     -0.06      0.00
   -9   -8   10      0.01      0.00
   -8   -8   10     -0.01      0.00
   -7   -8   10      0.03      0.00
   -6   -8   10     -0.04      0.00
   -5   -8   10      0.03      0.00
   -4   -8   10     -0.02      0.00
   -3   -8   10      0.01      0.00
   -2   -8   10     -0.02      0.00
   -1   -8   10      0.06      0.00
    0   -8   10     -0.09      0.00
    1   -8   10      0.06      0.00
    2   -8   10     -0.01      0.00
    3   -8   10     -0.01      0.00
    4   -8   10     -0.01      0.00
    5   -8   10      0.03      0.00
    6   -8   10     -0.00      0.00
    7   -8   10     -0.02      0.00
  -13   -7   10      0.03      0.00
  -12   -7   10      0.02      0.00
  -11   -7   10     -0.07      0.00
  -10   -7   10      0.07      0.00
   -9   -7   10     -0.03      0.00
   -8   -7   10     -0.00      0.00
   -7   -7   10      0.00      0.00
   -6   -7   10      0.02      0.00
   -5   -7   10     -0.05      0.00
   -4   -7   10      0.07      0.00
   -3   -7   10     -0.07      0.00
   -2   -7   10      0.04      0.00
   -1   -7   10     -0.03      0.00
    0   -7   10      0.05      0.00
    1   -7   10     -0.07      0.00
    2   -7   10      0.06      0.00
    3   -7   10     -0.04      0.00
    4   -7   10      0.03      0.00
    5   -7   10     -0.01      0.00
    6   -7   10     -0.03      0.00
    7   -7   10      0.07      0.00
    8   -7   10     -0.05      0.00
  -13   -6   10     -0.06      0.00
  -12   -6   10      0.05      0.00
  -11   -6   10      0.01      0.00
  -10   -6   10     -0.07      0.00
   -9   -6   10      0.08      0.00
   -8   -6   10     -0.06      0.00
   -7   -6   10      0.04      0.00
   -6   -6   10     -0.04      0.00
   -5   -6   10      0.05      0.00
   -4   -6   10     -0.09      0.00
   -3   -6   10      0.10      0.00
   -2   -6   10     -0.07      0.00
   -1   -6   10      0.01      0.00
    0   -6   10      0.02      0.00
    1   -6   10     -0.01      0.00
    2   -6   10     -0.03      0.00
    3   -6   10      0.05      0.00
    4   -6   10     -0.04      0.00
    5   -6   10      0.01      0.00
    6   -6   10      0.05      0.00
    7   -6   10     -0.11      0.00
    8   -6   10      0.10      0.00
    9   -6   10     -0.03      0.00
  -13   -5   10      0.00      0.00
  -12   -5   10     -0.03      0.00
  -11   -5   10      0.02      0.00
  -10   -5   10      0.02      0.00
   -9   -5   10     -0.09      0.00
   -8   -5   10      0.12      0.00
   -7   -5   10     -0.12      0.00
   -6   -5   10      0.09      0.00
   -5   -5   10     -0.06      0.00
   -4   -5   10      0.05      0.00
   -3   -5   10     -0.06      0.00
   -2   -5   10      0.05      0.00
   -1   -5   10     -0.00      0.00
    0   -5   10     -0.05      0.00
    1   -5   10      0.07      0.00
    2   -5   10     -0.05      0.00
    3   -5   10      0.01      0.00
    4   -5   10      0.01      0.00
    5   -5   10      0.00      0.00
    6   -5   10     -0.05      0.00
    7   -5   10      0.11      0.00
    8   -5   10     -0.13      0.00
    9   -5   10      0.08      0.00
   10   -5   10      0.00      0.00
  -13   -4   10      0.03      0.00
  -12   -4   10     -0.03      0.00
  -11   -4   10     -0.01      0.00
  -10   -4   10      0.02      0.00
   -9   -4   10      0.03      0.00
   -8   -4   10     -0.11      0.00
   -7   -4   10      0.16      0.00
   -6   -4   10     -0.14      0.00
   -5   -4   10      0.08      0.00
   -4   -4   10     -0.00      0.00
   -3   -4   10     -0.04      0.00
   -2   -4   10      0.06      0.00
   -1   -4   10     -0.06      0.00
    0   -4   10      0.07      0.00
    1   -4   10     -0.09      0.00
    2   -4   10      0.08      0.00
    3   -4   10     -0.07      0.00
    4   -4   10      0.04      0.00
    5   -4   10     -0.03      0.00
    6   -4   10      0.04      0.00
    7   -4   10     -0.07      0.00
    8   -4   10      0.11      0.00
    9   -4   10     -0.09      0.00
   10   -4   10      0.03      0.00
   11   -4   10      0.02      0.00
  -13   -3   10      0.01      0.00
  -12   -3   10      0.02      0.00
  -11   -3   10      0.00      0.00
  -10   -3   10     -0.05      0.00
   -9   -3   10      0.03      0.00
   -8   -3   10      0.05      0.00
   -7   -3   10     -0.14      0.00
   -6   -3   10      0.16      0.00
   -5   -3   10     -0.10      0.00
   -4   -3   10      0.01      0.00
   -3   -3   10      0.08      0.00
   -2   -3   10     -0.14      0.00
   -1   -3   10      0.16      0.00
    0   -3   10     -0.13      0.00
    1   -3   10      0.10      0.00
    2   -3   10     -0.08      0.00
    3   -3   10      0.07      0.00
    4   -3   10     -0.06      0.00
    5   -3   10      0.04      0.00
    6   -3   10     -0.03      0.00
    7   -3   10      0.05      0.00
    8   -3   10     -0.08      0.00
    9   -3   10      0.09      0.00
   10   -3   10     -0.06      0.00
   11   -3   10     -0.00      0.00
  -13   -2   10     -0.07      0.00
  -12   -2   10      0.06      0.00
  -11   -2   10     -0.06      0.00
  -10   -2   10      0.07      0.00
   -9   -2   10     -0.06      0.00
   -8   -2   10     -0.00      0.00
   -7   -2   10      0.09      0.00
   -6   -2   10     -0.12      0.00
   -5   -2   10      0.10      0.00
   -4   -2   10     -0.05      0.00
   -3   -2   10     -0.01      0.00
   -2   -2   10      0.09      0.00
   -1   -2   10     -0.17      0.00
    0   -2   10      0.20      0.00
    1   -2   10     -0.17      0.00
    2   -2   10      0.11      0.00
    3   -2   10     -0.07      0.00
    4   -2   10      0.04      0.00
    5   -2   10     -0.02      0.00
    6   -2   10      0.01      0.00
    7   -2   10     -0.03      0.00
    8   -2   10      0.07      0.00
    9   -2   10     -0.11      0.00
   10   -2   10      0.10      0.00
   11   -2   10     -0.05      0.00
   12   -2   10     -0.02      0.00
  -13   -1   10      0.05      0.00
  -12   -1   10     -0.09      0.00
  -11   -1   10      0.11      0.00
  -10   -1   10     -0.10      0.00
   -9   -1   10      0.08      0.00
   -8   -1   10     -0.03      0.00
   -7   -1   10     -0.03      0.00
   -6   -1   10      0.05      0.00
   -5   -1   10     -0.04      0.00
   -4   -1   10      0.06      0.00
   -3   -1   10     -0.09      0.00
   -2   -1   10      0.08      0.00
   -1   -1   10      0.01      0.00
    0   -1   10     -0.13      0.00
    1   -1   10      0.20      0.00
    2   -1   10     -0.19      0.00
    3   -1   10      0.13      0.00
    4   -1   10     -0.07      0.00
    5   -1   10      0.02      0.00
    6   -1   10      0.00      0.00
    7   -1   10      0.01      0.00
    8   -1   10     -0.06      0.00
    9   -1   10      0.13      0.00
   10   -1   10     -0.16      0.00
   11   -1   10      0.14      0.00
   12   -1   10     -0.06      0.00
   13   -1   10     -0.01      0.00
  -13    0   10      0.04      0.00
  -12    0   10      0.02      0.00
  -11    0   10     -0.08      0.00
  -10    0   10      0.10      0.00
   -9    0   10     -0.09      0.00
   -8    0   10      0.07      0.00
   -7    0   10     -0.05      0.00
   -6    0   10      0.06      0.00
   -5    0   10     -0.07      0.00
   -4    0   10      0.04      0.00
   -3    0   10      0.07      0.00
   -2    0   10     -0.19      0.00
   -1    0   10      0.20      0.00
    0    0   10     -0.08      0.00
    1    0   10     -0.09      0.00
    2    0   10      0.21      0.00
    3    0   10     -0.24      0.00
    4    0   10      0.20      0.00
    5    0   10     -0.13      0.00
    6    0   10      0.06      0.00
    7    0   10     -0.04      0.00
    8    0   10      0.07      0.00
    9    0   10     -0.13      0.00
   10    0   10      0.19      0.00
   11    0   10     -0.22      0.00
   12    0   10      0.18      0.00
   13    0   10     -0.09      0.00
  -13    1   10     -0.09      0.00
  -12    1   10      0.07      0.00
  -11    1   10     -0.01      0.00
  -10    1   10     -0.04      0.00
   -9    1   10      0.07      0.00
   -8    1   10     -0.10      0.00
   -7    1   10      0.13      0.00
   -6    1   10     -0.17      0.00
   -5    1   10      0.20      0.00
   -4    1   10     -0.19      0.00
   -3    1   10      0.08      0.00
   -2    1   10      0.12      0.00
   -1    1   10     -0.28      0.00
    0    1   10      0.30      0.00
    1    1   10     -0.14      0.00
    2    1   10     -0.10      0.00
    3    1   10      0.28      0.00
    4    1   10     -0.35      0.00
    5    1   10      0.33      0.00
    6    1   10     -0.24      0.00
    7    1   10      0.16      0.00
    8    1   10     -0.11      0.00
    9    1   10      0.11      0.00
   10    1   10     -0.15      0.00
   11    1   10      0.21      0.00
   12    1   10     -0.24      0.00
   13    1   10      0.20      0.00
   14    1   10     -0.09      0.00
  -12    2   10     -0.10      0.00
  -11    2   10      0.07      0.00
  -10    2   10     -0.02      0.00
   -9    2   10     -0.03      0.00
   -8    2   10      0.08      0.00
   -7    2   10     -0.16      0.00
   -6    2   10      0.25      0.00
   -5    2   10     -0.32      0.00
   -4    2   10      0.33      0.00
   -3    2   10     -0.26      0.00
   -2    2   10      0.08      0.00
   -1    2   10      0.17      0.00
    0    2   10     -0.34      0.00
    1    2   10      0.32      0.00
    2    2   10     -0.10      0.00
    3    2   10     -0.19      0.00
    4    2   10      0.40      0.00
    5    2   10     -0.48      0.00
    6    2   10      0.44      0.00
    7    2   10     -0.33      0.00
    8    2   10      0.22      0.00
    9    2   10     -0.13      0.00
   10    2   10      0.09      0.00
   11    2   10     -0.11      0.00
   12    2   10      0.18      0.00
   13    2   10     -0.22      0.00
   14    2   10      0.18      0.00
  -12    3   10      0.08      0.00
  -11    3   10     -0.09      0.00
  -10    3   10      0.05      0.00
   -9    3   10     -0.01      0.00
   -8    3   10     -0.03      0.00
   -7    3   10      0.10      0.00
   -6    3   10     -0.22      0.00
   -5    3   10      0.35      0.00
   -4    3   10     -0.41      0.00
   -3    3   10      0.39      0.00
   -2    3   10     -0.26      0.00
   -1    3   10      0.04      0.00
    0    3   10      0.19      0.00
    1    3   10     -0.30      0.00
    2    3   10      0.22      0.00
    3    3   10      0.03      0.00
    4    3   10     -0.31      0.00
    5    3   10      0.50      0.00
    6    3   10     -0.55      0.00
    7    3   10      0.49      0.00
    8    3   10     -0.37      0.00
    9    3   10      0.23      0.00
   10    3   10     -0.10      0.00
   11    3   10      0.02      0.00
   12    3   10     -0.04      0.00
   13    3   10      0.11      0.00
   14    3   10     -0.15      0.00
   15    3   10      0.12      0.00
  -11    4   10      0.09      0.00
  -10    4   10     -0.08      0.00
   -9    4   10      0.04      0.00
   -8    4   10     -0.02      0.00
   -7    4   10     -0.00      0.00
   -6    4   10      0.10      0.00
   -5    4   10     -0.26      0.00
   -4    4   10      0.39      0.00
   -3    4   10     -0.43      0.00
   -2    4   10      0.37      0.00
   -1    4   10     -0.24      0.00
    0    4   10      0.06      0.00
    1    4   10      0.10      0.00
    2    4   10     -0.16      0.00
    3    4   10      0.06      0.00
    4    4   10      0.15      0.00
    5    4   10     -0.39      0.00
    6    4   10      0.54      0.00
    7    4   10     -0.57      0.00
    8    4   10      0.49      0.00
    9    4   10     -0.36      0.00
   10    4   10      0.20      0.00
   11    4   10     -0.06      0.00
   12    4   10     -0.02      0.00
   13    4   10      0.01      0.00
   14    4   10      0.05      0.00
   15    4   10     -0.09      0.00
  -11    5   10     -0.07      0.00
  -10    5   10      0.09      0.00
   -9    5   10     -0.05      0.00
   -8    5   10      0.02      0.00
   -7    5   10     -0.03      0.00
   -6    5   10      0.01      0.00
   -5    5   10      0.10      0.00
   -4    5   10     -0.25      0.00
   -3    5   10      0.36      0.00
   -2    5   10     -0.40      0.00
   -1    5   10      0.37      0.00
    0    5   10     -0.31      0.00
    1    5   10      0.19      0.00
    2    5   10     -0.05      0.00
    3    5   10     -0.04      0.00
    4    5   10     -0.02      0.00
    5    5   10      0.22      0.00
    6    5   10     -0.44      0.00
    7    5   10      0.57      0.00
    8    5   10     -0.57      0.00
    9    5   10      0.48      0.00
   10    5   10     -0.36      0.00
   11    5   10      0.23      0.00
   12    5   10     -0.11      0.00
   13    5   10      0.01      0.00
   14    5   10      0.01      0.00
   15    5   10      0.02      0.00
  -10    6   10     -0.06      0.00
   -9    6   10      0.04      0.00
   -8    6   10      0.00      0.00
   -7    6   10     -0.01      0.00
   -6    6   10     -0.02      0.00
   -5    6   10      0.01      0.00
   -4    6   10      0.07      0.00
   -3    6   10     -0.21      0.00
   -2    6   10      0.33      0.00
   -1    6   10     -0.42      0.00
    0    6   10      0.48      0.00
    1    6   10     -0.45      0.00
    2    6   10      0.32      0.00
    3    6   10     -0.12      0.00
    4    6   10      0.00      0.00
    5    6   10     -0.05      0.00
    6    6   10      0.24      0.00
    7    6   10     -0.45      0.00
    8    6   10      0.55      0.00
    9    6   10     -0.53      0.00
   10    6   10      0.47      0.00
   11    6   10     -0.42      0.00
   12    6   10      0.34      0.00
   13    6   10     -0.20      0.00
   14    6   10      0.06      0.00
   15    6   10      0.00      0.00
  -10    7   10     -0.01      0.00
   -9    7   10      0.01      0.00
   -8    7   10     -0.04      0.00
   -7    7   10      0.05      0.00
   -6    7   10     -0.03      0.00
   -5    7   10     -0.02      0.00
   -4    7   10      0.03      0.00
   -3    7   10      0.04      0.00
   -2    7   10     -0.18      0.00
   -1    7   10      0.36      0.00
    0    7   10     -0.52      0.00
    1    7   10      0.61      0.00
    2    7   10     -0.55      0.00
    3    7   10      0.36      0.00
    4    7   10     -0.13      0.00
    5    7   10     -0.00      0.00
    6    7   10     -0.04      0.00
    7    7   10      0.20      0.00
    8    7   10     -0.37      0.00
    9    7   10      0.45      0.00
   10    7   10     -0.48      0.00
   11    7   10      0.50      0.00
   12    7   10     -0.50      0.00
   13    7   10      0.41      0.00
   14    7   10     -0.23      0.00
   15    7   10      0.06      0.00
   -9    8   10     -0.07      0.00
   -8    8   10      0.06      0.00
   -7    8   10     -0.06      0.00
   -6    8   10      0.05      0.00
   -5    8   10     -0.02      0.00
   -4    8   10     -0.01      0.00
   -3    8   10      0.02      0.00
   -2    8   10      0.06      0.00
   -1    8   10     -0.22      0.00
    0    8   10      0.42      0.00
    1    8   10     -0.59      0.00
    2    8   10      0.66      0.00
    3    8   10     -0.57      0.00
    4    8   10      0.37      0.00
    5    8   10     -0.13      0.00
    6    8   10     -0.02      0.00
    7    8   10      0.03      0.00
    8    8   10      0.08      0.00
    9    8   10     -0.24      0.00
   10    8   10      0.37      0.00
   11    8   10     -0.45      0.00
   12    8   10      0.50      0.00
   13    8   10     -0.47      0.00
   14    8   10      0.34      0.00
   15    8   10     -0.15      0.00
   -8    9   10     -0.05      0.00
   -7    9   10      0.02      0.00
   -6    9   10     -0.01      0.00
   -5    9   10      0.02      0.00
   -4    9   10     -0.03      0.00
   -3    9   10      0.02      0.00
   -2    9   10     -0.02      0.00
   -1    9   10      0.09      0.00
    0    9   10     -0.24      0.00
    1    9   10      0.43      0.00
    2    9   10     -0.59      0.00
    3    9   10      0.65      0.00
    4    9   10     -0.58      0.00
    5    9   10      0.38      0.00
    6    9   10     -0.14      0.00
    7    9   10     -0.05      0.00
    8    9   10      0.10      0.00
    9    9   10      0.01      0.00
   10    9   10     -0.18      0.00
   11    9   10      0.32      0.00
   12    9   10     -0.37      0.00
   13    9   10      0.36      0.00
   14    9   10     -0.30      0.00
   15    9   10      0.19      0.00
   -7   10   10      0.03      0.00
   -6   10   10     -0.05      0.00
   -5   10   10      0.02      0.00
   -4   10   10      0.02      0.00
   -3   10   10     -0.05      0.00
   -2   10   10      0.05      0.00
   -1   10   10     -0.05      0.00
    0   10   10      0.11      0.00
    1   10   10     -0.23      0.00
    2   10   10      0.39      0.00
    3   10   10     -0.55      0.00
    4   10   10      0.62      0.00
    5   10   10     -0.56      0.00
    6   10   10      0.39      0.00
    7   10   10     -0.16      0.00
    8   10   10     -0.04      0.00
    9   10   10      0.09      0.00
   10   10   10      0.01      0.00
   11   10   10     -0.15      0.00
   12   10   10      0.21      0.00
   13   10   10     -0.20      0.00
   14   10   10      0.16      0.00
   15   10   10     -0.14      0.00
   -6   11   10      0.07      0.00
   -5   11   10     -0.06      0.00
   -4   11   10      0.02      0.00
   -3   11   10      0.02      0.00
   -2   11   10     -0.04      0.00
   -1   11   10      0.05      0.00
    0   11   10     -0.06      0.00
    1   11   10      0.09      0.00
    2   11   10     -0.18      0.00
    3   11   10      0.32      0.00
    4   11   10     -0.46      0.00
    5   11   10      0.54      0.00
    6   11   10     -0.52      0.00
    7   11   10      0.39      0.00
    8   11   10     -0.19      0.00
    9   11   10      0.01      0.00
   10   11   10      0.05      0.00
   11   11   10      0.01      0.00
   12   11   10     -0.08      0.00
   13   11   10      0.08      0.00
   14   11   10     -0.05      0.00
   15   11   10      0.05      0.00
   -5   12   10      0.05      0.00
   -4   12   10     -0.03      0.00
   -3   12   10      0.02      0.00
   -2   12   10     -0.01      0.00
   -1   12   10     -0.03      0.00
    0   12   10      0.06      0.00
    1   12   10     -0.06      0.00
    2   12   10      0.05      0.00
    3   12   10     -0.09      0.00
    4   12   10      0.20      0.00
    5   12   10     -0.33      0.00
    6   12   10      0.43      0.00
    7   12   10     -0.45      0.00
    8   12   10      0.34      0.00
    9   12   10     -0.16      0.00
   10   12   10     -0.01      0.00
   11   12   10      0.06      0.00
   12   12   10     -0.01      0.00
   13   12   10     -0.02      0.00
   14   12   10      0.00      0.00
   -3   13   10     -0.02      0.00
   -2   13   10      0.03      0.00
   -1   13   10     -0.01      0.00
    0   13   10     -0.04      0.00
    1   13   10      0.05      0.00
    2   13   10     -0.01      0.00
    3   13   10     -0.04      0.00
    4   13   10      0.02      0.00
    5   13   10      0.09      0.00
    6   13   10     -0.23      0.00
    7   13   10      0.33      0.00
    8   13   10     -0.34      0.00
    9   13   10      0.23      0.00
   10   13   10     -0.08      0.00
   11   13   10     -0.04      0.00
   12   13   10      0.05      0.00
   13   13   10     -0.01      0.00
   14   13   10      0.00      0.00
   -2   14   10     -0.02      0.00
   -1   14   10      0.02      0.00
    0   14   10      0.01      0.00
    1   14   10     -0.04      0.00
    2   14   10      0.01      0.00
    3   14   10      0.06      0.00
    4   14   10     -0.10      0.00
    5   14   10      0.06      0.00
    6   14   10      0.05      0.00
    7   14   10     -0.16      0.00
    8   14   10      0.23      0.00
    9   14   10     -0.22      0.00
   10   14   10      0.14      0.00
   11   14   10     -0.04      0.00
   12   14   10     -0.02      0.00
   13   14   10      0.01      0.00
    0   15   10      0.02      0.00
    1   15   10     -0.00      0.00
    2   15   10     -0.01      0.00
    3   15   10     -0.02      0.00
    4   15   10      0.07      0.00
    5   15   10     -0.09      0.00
    6   15   10      0.06      0.00
    7   15   10      0.02      0.00
    8   15   10     -0.11      0.00
    9   15   10      0.17      0.00
   10   15   10     -0.17      0.00
   11   15   10      0.11      0.00
   12   15   10     -0.05      0.00
    3   16   10     -0.01      0.00
    4   16   10      0.00      0.00
    5   16   10      0.04      0.00
    6   16   10     -0.08      0.00
    7   16   10      0.07      0.00
    8   16   10      0.00      0.00
    9   16   10     -0.10      0.00
   10   16   10      0.15      0.00
   -6  -12   11     -0.07      0.00
   -5  -12   11      0.05      0.00
   -4  -12   11      0.02      0.00
   -2  -12   11      0.08      0.00
   -8  -11   11     -0.09      0.00
   -7  -11   11     -0.01      0.00
   -6  -11   11      0.08      0.00
   -5  -11   11     -0.09      0.00
   -4  -11   11      0.04      0.00
   -3  -11   11      0.03      0.00
   -2  -11   11     -0.06      0.00
   -1  -11   11      0.03      0.00
    0  -11   11      0.03      0.00
    1  -11   11     -0.06      0.00
  -10  -10   11      0.13      0.00
   -9  -10   11     -0.16      0.00
   -8  -10   11      0.13      0.00
   -7  -10   11     -0.04      0.00
   -6  -10   11     -0.05      0.00
   -5  -10   11      0.10      0.00
   -4  -10   11     -0.08      0.00
   -3  -10   11      0.02      0.00
   -2  -10   11      0.04      0.00
   -1  -10   11     -0.05      0.00
    0  -10   11     -0.01      0.00
    1  -10   11      0.08      0.00
    2  -10   11     -0.09      0.00
    3  -10   11      0.04      0.00
  -11   -9   11      0.08      0.00
  -10   -9   11     -0.08      0.00
   -9   -9   11      0.10      0.00
   -8   -9   11     -0.11      0.00
   -7   -9   11      0.07      0.00
   -6   -9   11      0.01      0.00
   -5   -9   11     -0.07      0.00
   -4   -9   11      0.08      0.00
   -3   -9   11     -0.05      0.00
   -2   -9   11     -0.02      0.00
   -1   -9   11      0.07      0.00
    0   -9   11     -0.06      0.00
    1   -9   11     -0.02      0.00
    2   -9   11      0.08      0.00
    3   -9   11     -0.07      0.00
    4   -9   11      0.01      0.00
    5   -9   11      0.02      0.00
  -12   -8   11      0.08      0.00
  -11   -8   11     -0.08      0.00
  -10   -8   11      0.05      0.00
   -9   -8   11     -0.04      0.00
   -8   -8   11      0.05      0.00
   -7   -8   11     -0.05      0.00
   -6   -8   11      0.02      0.00
   -5   -8   11      0.02      0.00
   -4   -8   11     -0.03      0.00
   -3   -8   11      0.02      0.00
   -2   -8   11      0.02      0.00
   -1   -8   11     -0.07      0.00
    0   -8   11      0.10      0.00
    1   -8   11     -0.06      0.00
    2   -8   11     -0.01      0.00
    3   -8   11      0.05      0.00
    4   -8   11     -0.01      0.00
    5   -8   11     -0.03      0.00
    6   -8   11      0.03      0.00
  -12   -7   11     -0.01      0.00
  -11   -7   11      0.05      0.00
  -10   -7   11     -0.04      0.00
   -9   -7   11      0.02      0.00
   -8   -7   11     -0.02      0.00
   -7   -7   11      0.03      0.00
   -6   -7   11     -0.03      0.00
   -5   -7   11      0.02      0.00
   -4   -7   11     -0.04      0.00
   -3   -7   11      0.06      0.00
   -2   -7   11     -0.06      0.00
   -1   -7   11      0.06      0.00
    0   -7   11     -0.07      0.00
    1   -7   11      0.08      0.00
    2   -7   11     -0.05      0.00
    3   -7   11      0.02      0.00
    4   -7   11     -0.01      0.00
    5   -7   11      0.03      0.00
    6   -7   11     -0.02      0.00
    7   -7   11     -0.01      0.00
  -13   -6   11      0.07      0.00
  -12   -6   11     -0.06      0.00
  -11   -6   11      0.01      0.00
  -10   -6   11      0.03      0.00
   -9   -6   11     -0.05      0.00
   -8   -6   11      0.04      0.00
   -7   -6   11     -0.04      0.00
   -6   -6   11      0.04      0.00
   -5   -6   11     -0.05      0.00
   -4   -6   11      0.08      0.00
   -3   -6   11     -0.11      0.00
   -2   -6   11      0.11      0.00
   -1   -6   11     -0.06      0.00
    0   -6   11      0.02      0.00
    1   -6   11     -0.02      0.00
    2   -6   11      0.04      0.00
    3   -6   11     -0.05      0.00
    4   -6   11      0.04      0.00
    5   -6   11     -0.03      0.00
    6   -6   11      0.00      0.00
    7   -6   11      0.03      0.00
    8   -6   11     -0.04      0.00
  -13   -5   11     -0.04      0.00
  -12   -5   11      0.06      0.00
  -11   -5   11     -0.04      0.00
  -10   -5   11     -0.00      0.00
   -9   -5   11      0.04      0.00
   -8   -5   11     -0.06      0.00
   -7   -5   11      0.07      0.00
   -6   -5   11     -0.06      0.00
   -5   -5   11      0.05      0.00
   -4   -5   11     -0.06      0.00
   -3   -5   11      0.09      0.00
   -2   -5   11     -0.10      0.00
   -1   -5   11      0.06      0.00
    0   -5   11      0.01      0.00
    1   -5   11     -0.04      0.00
    2   -5   11      0.03      0.00
    3   -5   11      0.01      0.00
    4   -5   11     -0.03      0.00
    5   -5   11      0.01      0.00
    6   -5   11      0.02      0.00
    7   -5   11     -0.05      0.00
    8   -5   11      0.06      0.00
    9   -5   11     -0.04      0.00
  -13   -4   11      0.00      0.00
  -12   -4   11     -0.00      0.00
  -11   -4   11      0.02      0.00
  -10   -4   11     -0.02      0.00
   -9   -4   11     -0.00      0.00
   -8   -4   11      0.05      0.00
   -7   -4   11     -0.09      0.00
   -6   -4   11      0.10      0.00
   -5   -4   11     -0.07      0.00
   -4   -4   11      0.03      0.00
   -3   -4   11     -0.00      0.00
   -2   -4   11      0.00      0.00
   -1   -4   11     -0.00      0.00
    0   -4   11     -0.02      0.00
    1   -4   11      0.06      0.00
    2   -4   11     -0.06      0.00
    3   -4   11      0.04      0.00
    4   -4   11     -0.01      0.00
    5   -4   11      0.02      0.00
    6   -4   11     -0.04      0.00
    7   -4   11      0.07      0.00
    8   -4   11     -0.08      0.00
    9   -4   11      0.06      0.00
   10   -4   11     -0.02      0.00
  -13   -3   11     -0.02      0.00
  -12   -3   11     -0.01      0.00
  -11   -3   11     -0.00      0.00
  -10   -3   11      0.04      0.00
   -9   -3   11     -0.04      0.00
   -8   -3   11     -0.01      0.00
   -7   -3   11      0.08      0.00
   -6   -3   11     -0.11      0.00
   -5   -3   11      0.10      0.00
   -4   -3   11     -0.04      0.00
   -3   -3   11     -0.03      0.00
   -2   -3   11      0.08      0.00
   -1   -3   11     -0.09      0.00
    0   -3   11      0.09      0.00
    1   -3   11     -0.08      0.00
    2   -3   11      0.07      0.00
    3   -3   11     -0.05      0.00
    4   -3   11      0.04      0.00
    5   -3   11     -0.03      0.00
    6   -3   11      0.04      0.00
    7   -3   11     -0.06      0.00
    8   -3   11      0.08      0.00
    9   -3   11     -0.07      0.00
   10   -3   11      0.03      0.00
   11   -3   11      0.01      0.00
  -13   -2   11      0.07      0.00
  -12   -2   11     -0.06      0.00
  -11   -2   11      0.05      0.00
  -10   -2   11     -0.06      0.00
   -9   -2   11      0.07      0.00
   -8   -2   11     -0.02      0.00
   -7   -2   11     -0.05      0.00
   -6   -2   11      0.10      0.00
   -5   -2   11     -0.09      0.00
   -4   -2   11      0.07      0.00
   -3   -2   11     -0.02      0.00
   -2   -2   11     -0.04      0.00
   -1   -2   11      0.11      0.00
    0   -2   11     -0.15      0.00
    1   -2   11      0.14      0.00
    2   -2   11     -0.11      0.00
    3   -2   11      0.07      0.00
    4   -2   11     -0.04      0.00
    5   -2   11      0.01      0.00
    6   -2   11     -0.00      0.00
    7   -2   11      0.03      0.00
    8   -2   11     -0.07      0.00
    9   -2   11      0.09      0.00
   10   -2   11     -0.06      0.00
   11   -2   11      0.01      0.00
   12   -2   11      0.03      0.00
  -13   -1   11     -0.07      0.00
  -12   -1   11      0.11      0.00
  -11   -1   11     -0.12      0.00
  -10   -1   11      0.11      0.00
   -9   -1   11     -0.09      0.00
   -8   -1   11      0.04      0.00
   -7   -1   11      0.02      0.00
   -6   -1   11     -0.05      0.00
   -5   -1   11      0.04      0.00
   -4   -1   11     -0.04      0.00
   -3   -1   11      0.07      0.00
   -2   -1   11     -0.07      0.00
   -1   -1   11      0.01      0.00
    0   -1   11      0.09      0.00
    1   -1   11     -0.17      0.00
    2   -1   11      0.17      0.00
    3   -1   11     -0.13      0.00
    4   -1   11      0.07      0.00
    5   -1   11     -0.01      0.00
    6   -1   11     -0.03      0.00
    7   -1   11      0.02      0.00
    8   -1   11      0.04      0.00
    9   -1   11     -0.10      0.00
   10   -1   11      0.12      0.00
   11   -1   11     -0.08      0.00
   12   -1   11      0.01      0.00
  -13    0   11     -0.00      0.00
  -12    0   11     -0.07      0.00
  -11    0   11      0.12      0.00
  -10    0   11     -0.13      0.00
   -9    0   11      0.10      0.00
   -8    0   11     -0.06      0.00
   -7    0   11      0.02      0.00
   -6    0   11     -0.01      0.00
   -5    0   11      0.05      0.00
   -4    0   11     -0.06      0.00
   -3    0   11     -0.01      0.00
   -2    0   11      0.12      0.00
   -1    0   11     -0.17      0.00
    0    0   11      0.09      0.00
    1    0   11      0.05      0.00
    2    0   11     -0.16      0.00
    3    0   11      0.20      0.00
    4    0   11     -0.17      0.00
    5    0   11      0.10      0.00
    6    0   11     -0.02      0.00
    7    0   11     -0.02      0.00
    8    0   11     -0.01      0.00
    9    0   11      0.08      0.00
   10    0   11     -0.15      0.00
   11    0   11      0.16      0.00
   12    0   11     -0.11      0.00
   13    0   11      0.04      0.00
  -12    1   11     -0.03      0.00
  -11    1   11     -0.04      0.00
  -10    1   11      0.09      0.00
   -9    1   11     -0.10      0.00
   -8    1   11      0.08      0.00
   -7    1   11     -0.07      0.00
   -6    1   11      0.09      0.00
   -5    1   11     -0.14      0.00
   -4    1   11      0.18      0.00
   -3    1   11     -0.14      0.00
   -2    1   11     -0.02      0.00
   -1    1   11      0.20      0.00
    0    1   11     -0.26      0.00
    1    1   11      0.16      0.00
    2    1   11      0.02      0.00
    3    1   11     -0.17      0.00
    4    1   11      0.25      0.00
    5    1   11     -0.23      0.00
    6    1   11      0.16      0.00
    7    1   11     -0.08      0.00
    8    1   11      0.03      0.00
    9    1   11     -0.06      0.00
   10    1   11      0.12      0.00
   11    1   11     -0.18      0.00
   12    1   11      0.19      0.00
   13    1   11     -0.15      0.00
   14    1   11      0.07      0.00
  -12    2   11      0.10      0.00
  -11    2   11     -0.05      0.00
  -10    2   11     -0.02      0.00
   -9    2   11      0.06      0.00
   -8    2   11     -0.07      0.00
   -7    2   11      0.10      0.00
   -6    2   11     -0.15      0.00
   -5    2   11      0.21      0.00
   -4    2   11     -0.26      0.00
   -3    2   11      0.26      0.00
   -2    2   11     -0.15      0.00
   -1    2   11     -0.07      0.00
    0    2   11      0.27      0.00
    1    2   11     -0.31      0.00
    2    2   11      0.17      0.00
    3    2   11      0.05      0.00
    4    2   11     -0.23      0.00
    5    2   11      0.32      0.00
    6    2   11     -0.32      0.00
    7    2   11      0.24      0.00
    8    2   11     -0.15      0.00
    9    2   11      0.09      0.00
   10    2   11     -0.08      0.00
   11    2   11      0.11      0.00
   12    2   11     -0.17      0.00
   13    2   11      0.20      0.00
   14    2   11     -0.15      0.00
  -12    3   11     -0.09      0.00
  -11    3   11      0.09      0.00
  -10    3   11     -0.03      0.00
   -9    3   11     -0.02      0.00
   -8    3   11      0.03      0.00
   -7    3   11     -0.06      0.00
   -6    3   11      0.12      0.00
   -5    3   11     -0.22      0.00
   -4    3   11      0.30      0.00
   -3    3   11     -0.33      0.00
   -2    3   11      0.28      0.00
   -1    3   11     -0.11      0.00
    0    3   11     -0.12      0.00
    1    3   11      0.28      0.00
    2    3   11     -0.26      0.00
    3    3   11      0.09      0.00
    4    3   11      0.14      0.00
    5    3   11     -0.31      0.00
    6    3   11      0.39      0.00
    7    3   11     -0.37      0.00
    8    3   11      0.30      0.00
    9    3   11     -0.20      0.00
   10    3   11      0.10      0.00
   11    3   11     -0.04      0.00
   12    3   11      0.06      0.00
   13    3   11     -0.11      0.00
   14    3   11      0.15      0.00
   15    3   11     -0.12      0.00
  -11    4   11     -0.09      0.00
  -10    4   11      0.07      0.00
   -9    4   11     -0.02      0.00
   -8    4   11      0.00      0.00
   -7    4   11     -0.01      0.00
   -6    4   11     -0.02      0.00
   -5    4   11      0.14      0.00
   -4    4   11     -0.27      0.00
   -3    4   11      0.35      0.00
   -2    4   11     -0.34      0.00
   -1    4   11      0.24      0.00
    0    4   11     -0.07      0.00
    1    4   11     -0.10      0.00
    2    4   11      0.19      0.00
    3    4   11     -0.13      0.00
    4    4   11     -0.03      0.00
    5    4   11      0.23      0.00
    6    4   11     -0.37      0.00
    7    4   11      0.42      0.00
    8    4   11     -0.39      0.00
    9    4   11      0.31      0.00
   10    4   11     -0.20      0.00
   11    4   11      0.07      0.00
   12    4   11      0.01      0.00
   13    4   11     -0.01      0.00
   14    4   11     -0.04      0.00
   15    4   11      0.07      0.00
  -11    5   11      0.06      0.00
  -10    5   11     -0.07      0.00
   -9    5   11      0.03      0.00
   -8    5   11     -0.00      0.00
   -7    5   11      0.03      0.00
   -6    5   11     -0.06      0.00
   -5    5   11     -0.01      0.00
   -4    5   11      0.15      0.00
   -3    5   11     -0.29      0.00
   -2    5   11      0.34      0.00
   -1    5   11     -0.33      0.00
    0    5   11      0.25      0.00
    1    5   11     -0.14      0.00
    2    5   11      0.01      0.00
    3    5   11      0.06      0.00
    4    5   11     -0.03      0.00
    5    5   11     -0.11      0.00
    6    5   11      0.29      0.00
    7    5   11     -0.41      0.00
    8    5   11      0.43      0.00
    9    5   11     -0.38      0.00
   10    5   11      0.30      0.00
   11    5   11     -0.19      0.00
   12    5   11      0.07      0.00
   13    5   11      0.02      0.00
   14    5   11     -0.05      0.00
   15    5   11      0.02      0.00
  -10    6   11      0.05      0.00
   -9    6   11     -0.02      0.00
   -8    6   11     -0.03      0.00
   -7    6   11      0.02      0.00
   -6    6   11      0.04      0.00
   -5    6   11     -0.06      0.00
   -4    6   11     -0.00      0.00
   -3    6   11      0.13      0.00
   -2    6   11     -0.26      0.00
   -1    6   11      0.34      0.00
    0    6   11     -0.38      0.00
    1    6   11      0.36      0.00
    2    6   11     -0.26      0.00
    3    6   11      0.11      0.00
    4    6   11      0.01      0.00
    5    6   11      0.01      0.00
    6    6   11     -0.16      0.00
    7    6   11      0.32      0.00
    8    6   11     -0.41      0.00
    9    6   11      0.39      0.00
   10    6   11     -0.34      0.00
   11    6   11      0.31      0.00
   12    6   11     -0.25      0.00
   13    6   11      0.14      0.00
   14    6   11     -0.01      0.00
   15    6   11     -0.04      0.00
   -9    7   11     -0.03      0.00
   -8    7   11      0.08      0.00
   -7    7   11     -0.10      0.00
   -6    7   11      0.06      0.00
   -5    7   11      0.03      0.00
   -4    7   11     -0.07      0.00
   -3    7   11      0.02      0.00
   -2    7   11      0.10      0.00
   -1    7   11     -0.25      0.00
    0    7   11      0.40      0.00
    1    7   11     -0.49      0.00
    2    7   11      0.47      0.00
    3    7   11     -0.33      0.00
    4    7   11      0.13      0.00
    5    7   11     -0.00      0.00
    6    7   11      0.02      0.00
    7    7   11     -0.16      0.00
    8    7   11      0.29      0.00
    9    7   11     -0.34      0.00
   10    7   11      0.33      0.00
   11    7   11     -0.35      0.00
   12    7   11      0.38      0.00
   13    7   11     -0.34      0.00
   14    7   11      0.20      0.00
   15    7   11     -0.04      0.00
   -9    8   11      0.09      0.00
   -8    8   11     -0.12      0.00
   -7    8   11      0.14      0.00
   -6    8   11     -0.12      0.00
   -5    8   11      0.06      0.00
   -4    8   11      0.02      0.00
   -3    8   11     -0.06      0.00
   -2    8   11      0.01      0.00
   -1    8   11      0.12      0.00
    0    8   11     -0.30      0.00
    1    8   11      0.47      0.00
    2    8   11     -0.56      0.00
    3    8   11      0.51      0.00
    4    8   11     -0.35      0.00
    5    8   11      0.14      0.00
    6    8   11      0.00      0.00
    7    8   11     -0.01      0.00
    8    8   11     -0.09      0.00
    9    8   11      0.20      0.00
   10    8   11     -0.28      0.00
   11    8   11      0.33      0.00
   12    8   11     -0.39      0.00
   13    8   11      0.42      0.00
   14    8   11     -0.34      0.00
   15    8   11      0.17      0.00
   -8    9   11      0.11      0.00
   -7    9   11     -0.11      0.00
   -6    9   11      0.10      0.00
   -5    9   11     -0.09      0.00
   -4    9   11      0.05      0.00
   -3    9   11     -0.01      0.00
   -2    9   11      0.00      0.00
   -1    9   11     -0.05      0.00
    0    9   11      0.16      0.00
    1    9   11     -0.33      0.00
    2    9   11      0.48      0.00
    3    9   11     -0.56      0.00
    4    9   11      0.52      0.00
    5    9   11     -0.35      0.00
    6    9   11      0.14      0.00
    7    9   11      0.02      0.00
    8    9   11     -0.06      0.00
    9    9   11     -0.03      0.00
   10    9   11      0.17      0.00
   11    9   11     -0.28      0.00
   12    9   11      0.33      0.00
   13    9   11     -0.35      0.00
   14    9   11      0.31      0.00
   15    9   11     -0.21      0.00
   -7   10   11      0.04      0.00
   -6   10   11     -0.02      0.00
   -5   10   11      0.04      0.00
   -4   10   11     -0.06      0.00
   -3   10   11      0.07      0.00
   -2   10   11     -0.06      0.00
   -1   10   11      0.05      0.00
    0   10   11     -0.08      0.00
    1   10   11      0.17      0.00
    2   10   11     -0.31      0.00
    3   10   11      0.45      0.00
    4   10   11     -0.53      0.00
    5   10   11      0.51      0.00
    6   10   11     -0.36      0.00
    7   10   11      0.15      0.00
    8   10   11      0.01      0.00
    9   10   11     -0.04      0.00
   10   10   11     -0.05      0.00
   11   10   11      0.18      0.00
   12   10   11     -0.23      0.00
   13   10   11      0.21      0.00
   14   10   11     -0.17      0.00
   15   10   11      0.14      0.00
   -6   11   11     -0.04      0.00
   -5   11   11      0.04      0.00
   -4   11   11     -0.00      0.00
   -3   11   11     -0.04      0.00
   -2   11   11      0.06      0.00
   -1   11   11     -0.06      0.00
    0   11   11      0.06      0.00
    1   11   11     -0.08      0.00
    2   11   11      0.14      0.00
    3   11   11     -0.26      0.00
    4   11   11      0.39      0.00
    5   11   11     -0.48      0.00
    6   11   11      0.47      0.00
    7   11   11     -0.36      0.00
    8   11   11      0.19      0.00
    9   11   11     -0.05      0.00
   10   11   11      0.01      0.00
   11   11   11     -0.06      0.00
   12   11   11      0.12      0.00
   13   11   11     -0.10      0.00
   14   11   11      0.05      0.00
   15   11   11     -0.03      0.00
   -5   12   11     -0.07      0.00
   -4   12   11      0.06      0.00
   -3   12   11     -0.04      0.00
   -2   12   11      0.01      0.00
   -1   12   11      0.02      0.00
    0   12   11     -0.05      0.00
    1   12   11      0.06      0.00
    2   12   11     -0.05      0.00
    3   12   11      0.08      0.00
    4   12   11     -0.17      0.00
    5   12   11      0.30      0.00
    6   12   11     -0.40      0.00
    7   12   11      0.43      0.00
    8   12   11     -0.35      0.00
    9   12   11      0.20      0.00
   10   12   11     -0.06      0.00
   11   12   11      0.00      0.00
   12   12   11     -0.01      0.00
   13   12   11      0.02      0.00
   14   12   11      0.01      0.00
   -3   13   11      0.07      0.00
   -2   13   11     -0.07      0.00
   -1   13   11      0.04      0.00
    0   13   11      0.02      0.00
    1   13   11     -0.06      0.00
    2   13   11      0.03      0.00
    3   13   11      0.02      0.00
    4   13   11     -0.01      0.00
    5   13   11     -0.09      0.00
    6   13   11      0.23      0.00
    7   13   11     -0.34      0.00
    8   13   11      0.36      0.00
    9   13   11     -0.28      0.00
   10   13   11      0.14      0.00
   11   13   11     -0.02      0.00
   12   13   11     -0.03      0.00
   13   13   11      0.01      0.00
   14   13   11     -0.01      0.00
   -2   14   11      0.06      0.00
   -1   14   11     -0.05      0.00
    0   14   11      0.01      0.00
    1   14   11      0.04      0.00
    2   14   11     -0.03      0.00
    3   14   11     -0.03      0.00
    4   14   11      0.09      0.00
    5   14   11     -0.05      0.00
    6   14   11     -0.07      0.00
    7   14   11      0.20      0.00
    8   14   11     -0.27      0.00
    9   14   11      0.26      0.00
   10   14   11     -0.17      0.00
   11   14   11      0.07      0.00
   12   14   11     -0.00      0.00
   13   14   11     -0.01      0.00
    0   15   11     -0.02      0.00
    1   15   11     -0.01      0.00
    2   15   11      0.03      0.00
    3   15   11     -0.00      0.00
    4   15   11     -0.06      0.00
    5   15   11      0.08      0.00
    6   15   11     -0.03      0.00
    7   15   11     -0.07      0.00
    8   15   11      0.16      0.00
    9   15   11     -0.19      0.00
   10   15   11      0.16      0.00
   11   15   11     -0.10      0.00
   12   15   11      0.05      0.00
    3   16   11      0.02      0.00
    4   16   11     -0.01      0.00
    5   16   11     -0.02      0.00
    6   16   11      0.05      0.00
    7   16   11     -0.02      0.00
    8   16   11     -0.05      0.00
    9   16   11      0.11      0.00
   10   16   11     -0.13      0.00
   -7  -11   12      0.00      0.00
   -6  -11   12     -0.05      0.00
   -5  -11   12      0.05      0.00
   -4  -11   12      0.00      0.00
   -3  -11   12     -0.07      0.00
   -2  -11   12      0.08      0.00
   -1  -11   12     -0.04      0.00
    0  -11   12     -0.04      0.00
   -9  -10   12      0.14      0.00
   -8  -10   12     -0.11      0.00
   -7  -10   12      0.02      0.00
   -6  -10   12      0.07      0.00
   -5  -10   12     -0.09      0.00
   -4  -10   12      0.06      0.00
   -3  -10   12      0.00      0.00
   -2  -10   12     -0.06      0.00
   -1  -10   12      0.05      0.00
    0  -10   12      0.02      0.00
    1  -10   12     -0.10      0.00
    2  -10   12      0.10      0.00
  -10   -9   12      0.06      0.00
   -9   -9   12     -0.10      0.00
   -8   -9   12      0.10      0.00
   -7   -9   12     -0.04      0.00
   -6   -9   12     -0.05      0.00
   -5   -9   12      0.11      0.00
   -4   -9   12     -0.11      0.00
   -3   -9   12      0.05      0.00
   -2   -9   12      0.02      0.00
   -1   -9   12     -0.08      0.00
    0   -9   12      0.05      0.00
    1   -9   12      0.05      0.00
    2   -9   12     -0.12      0.00
    3   -9   12      0.10      0.00
    4   -9   12     -0.03      0.00
  -11   -8   12      0.04      0.00
  -10   -8   12     -0.02      0.00
   -9   -8   12      0.04      0.00
   -8   -8   12     -0.07      0.00
   -7   -8   12      0.05      0.00
   -6   -8   12      0.02      0.00
   -5   -8   12     -0.07      0.00
   -4   -8   12      0.08      0.00
   -3   -8   12     -0.05      0.00
   -2   -8   12     -0.02      0.00
   -1   -8   12      0.08      0.00
    0   -8   12     -0.11      0.00
    1   -8   12      0.05      0.00
    2   -8   12      0.05      0.00
    3   -8   12     -0.09      0.00
    4   -8   12      0.04      0.00
    5   -8   12      0.03      0.00
    6   -8   12     -0.05      0.00
  -12   -7   12      0.00      0.00
  -11   -7   12     -0.02      0.00
  -10   -7   12      0.01      0.00
   -9   -7   12     -0.01      0.00
   -8   -7   12      0.04      0.00
   -7   -7   12     -0.05      0.00
   -6   -7   12      0.03      0.00
   -5   -7   12      0.01      0.00
   -4   -7   12     -0.00      0.00
   -3   -7   12     -0.03      0.00
   -2   -7   12      0.07      0.00
   -1   -7   12     -0.09      0.00
    0   -7   12      0.11      0.00
    1   -7   12     -0.09      0.00
    2   -7   12      0.03      0.00
    3   -7   12      0.03      0.00
    4   -7   12     -0.02      0.00
    5   -7   12     -0.03      0.00
    6   -7   12      0.07      0.00
    7   -7   12     -0.05      0.00
  -12   -6   12      0.07      0.00
  -11   -6   12     -0.03      0.00
  -10   -6   12     -0.00      0.00
   -9   -6   12      0.02      0.00
   -8   -6   12     -0.04      0.00
   -7   -6   12      0.06      0.00
   -6   -6   12     -0.05      0.00
   -5   -6   12      0.04      0.00
   -4   -6   12     -0.05      0.00
   -3   -6   12      0.10      0.00
   -2   -6   12     -0.13      0.00
   -1   -6   12      0.11      0.00
    0   -6   12     -0.07      0.00
    1   -6   12      0.05      0.00
    2   -6   12     -0.04      0.00
    3   -6   12      0.02      0.00
    4   -6   12     -0.01      0.00
    5   -6   12      0.03      0.00
    6   -6   12     -0.06      0.00
    7   -6   12      0.06      0.00
    8   -6   12     -0.03      0.00
  -13   -5   12      0.08      0.00
  -12   -5   12     -0.10      0.00
  -11   -5   12      0.07      0.00
  -10   -5   12     -0.02      0.00
   -9   -5   12     -0.02      0.00
   -8   -5   12      0.04      0.00
   -7   -5   12     -0.06      0.00
   -6   -5   12      0.06      0.00
   -5   -5   12     -0.04      0.00
   -4   -5   12      0.05      0.00
   -3   -5   12     -0.09      0.00
   -2   -5   12      0.13      0.00
   -1   -5   12     -0.12      0.00
    0   -5   12      0.05      0.00
    1   -5   12      0.00      0.00
    2   -5   12     -0.00      0.00
    3   -5   12     -0.01      0.00
    4   -5   12      0.02      0.00
    5   -5   12     -0.01      0.00
    6   -5   12      0.01      0.00
    7   -5   12     -0.03      0.00
    8   -5   12      0.03      0.00
    9   -5   12     -0.01      0.00
  -12   -4   12      0.06      0.00
  -11   -4   12     -0.06      0.00
  -10   -4   12      0.03      0.00
   -9   -4   12      0.00      0.00
   -8   -4   12     -0.03      0.00
   -7   -4   12      0.05      0.00
   -6   -4   12     -0.06      0.00
   -5   -4   12      0.05      0.00
   -4   -4   12     -0.02      0.00
   -3   -4   12      0.02      0.00
   -2   -4   12     -0.04      0.00
   -1   -4   12      0.06      0.00
    0   -4   12     -0.03      0.00
    1   -4   12     -0.02      0.00
    2   -4   12      0.03      0.00
    3   -4   12     -0.01      0.00
    4   -4   12      0.00      0.00
    5   -4   12     -0.02      0.00
    6   -4   12      0.04      0.00
    7   -4   12     -0.03      0.00
    8   -4   12      0.01      0.00
    9   -4   12      0.01      0.00
   10   -4   12     -0.02      0.00
  -13   -3   12      0.04      0.00
  -12   -3   12     -0.03      0.00
  -11   -3   12      0.03      0.00
  -10   -3   12     -0.04      0.00
   -9   -3   12      0.03      0.00
   -8   -3   12      0.00      0.00
   -7   -3   12     -0.04      0.00
   -6   -3   12      0.07      0.00
   -5   -3   12     -0.07      0.00
   -4   -3   12      0.04      0.00
   -3   -3   12      0.01      0.00
   -2   -3   12     -0.04      0.00
   -1   -3   12      0.04      0.00
    0   -3   12     -0.03      0.00
    1   -3   12      0.03      0.00
    2   -3   12     -0.03      0.00
    3   -3   12      0.02      0.00
    4   -3   12     -0.01      0.00
    5   -3   12      0.02      0.00
    6   -3   12     -0.06      0.00
    7   -3   12      0.07      0.00
    8   -3   12     -0.05      0.00
    9   -3   12      0.01      0.00
   10   -3   12      0.02      0.00
   11   -3   12     -0.02      0.00
  -13   -2   12     -0.06      0.00
  -12   -2   12      0.06      0.00
  -11   -2   12     -0.05      0.00
  -10   -2   12      0.05      0.00
   -9   -2   12     -0.05      0.00
   -8   -2   12      0.02      0.00
   -7   -2   12      0.03      0.00
   -6   -2   12     -0.07      0.00
   -5   -2   12      0.08      0.00
   -4   -2   12     -0.07      0.00
   -3   -2   12      0.04      0.00
   -2   -2   12      0.01      0.00
   -1   -2   12     -0.07      0.00
    0   -2   12      0.09      0.00
    1   -2   12     -0.09      0.00
    2   -2   12      0.07      0.00
    3   -2   12     -0.04      0.00
    4   -2   12      0.01      0.00
    5   -2   12      0.00      0.00
    6   -2   12      0.02      0.00
    7   -2   12     -0.05      0.00
    8   -2   12      0.07      0.00
    9   -2   12     -0.05      0.00
   10   -2   12      0.01      0.00
   11   -2   12      0.03      0.00
  -12   -1   12     -0.10      0.00
  -11   -1   12      0.11      0.00
  -10   -1   12     -0.09      0.00
   -9   -1   12      0.07      0.00
   -8   -1   12     -0.03      0.00
   -7   -1   12     -0.03      0.00
   -6   -1   12      0.06      0.00
   -5   -1   12     -0.05      0.00
   -4   -1   12      0.05      0.00
   -3   -1   12     -0.07      0.00
   -2   -1   12      0.08      0.00
   -1   -1   12     -0.03      0.00
    0   -1   12     -0.06      0.00
    1   -1   12      0.12      0.00
    2   -1   12     -0.14      0.00
    3   -1   12      0.12      0.00
    4   -1   12     -0.07      0.00
    5   -1   12      0.00      0.00
    6   -1   12      0.03      0.00
    7   -1   12     -0.02      0.00
    8   -1   12     -0.04      0.00
    9   -1   12      0.08      0.00
   10   -1   12     -0.07      0.00
   11   -1   12      0.01      0.00
   12   -1   12      0.03      0.00
  -12    0   12      0.08      0.00
  -11    0   12     -0.13      0.00
  -10    0   12      0.13      0.00
   -9    0   12     -0.09      0.00
   -8    0   12      0.04      0.00
   -7    0   12      0.01      0.00
   -6    0   12     -0.03      0.00
   -5    0   12     -0.01      0.00
   -4    0   12      0.04      0.00
   -3    0   12     -0.01      0.00
   -2    0   12     -0.09      0.00
   -1    0   12      0.13      0.00
    0    0   12     -0.08      0.00
    1    0   12     -0.05      0.00
    2    0   12      0.15      0.00
    3    0   12     -0.18      0.00
    4    0   12      0.16      0.00
    5    0   12     -0.08      0.00
    6    0   12     -0.01      0.00
    7    0   12      0.06      0.00
    8    0   12     -0.03      0.00
    9    0   12     -0.05      0.00
   10    0   12      0.10      0.00
   11    0   12     -0.08      0.00
   12    0   12      0.03      0.00
   13    0   12      0.01      0.00
  -12    1   12     -0.00      0.00
  -11    1   12      0.08      0.00
  -10    1   12     -0.11      0.00
   -9    1   12      0.10      0.00
   -8    1   12     -0.06      0.00
   -7    1   12      0.03      0.00
   -6    1   12     -0.02      0.00
   -5    1   12      0.07      0.00
   -4    1   12     -0.13      0.00
   -3    1   12      0.14      0.00
   -2    1   12     -0.03      0.00
   -1    1   12     -0.12      0.00
    0    1   12      0.19      0.00
    1    1   12     -0.12      0.00
    2    1   12     -0.03      0.00
    3    1   12      0.15      0.00
    4    1   12     -0.21      0.00
    5    1   12      0.19      0.00
    6    1   12     -0.11      0.00
    7    1   12      0.02      0.00
    8    1   12      0.03      0.00
    9    1   12      0.00      0.00
   10    1   12     -0.07      0.00
   11    1   12      0.11      0.00
   12    1   12     -0.11      0.00
   13    1   12      0.07      0.00
  -11    2   12      0.01      0.00
  -10    2   12      0.06      0.00
   -9    2   12     -0.08      0.00
   -8    2   12      0.06      0.00
   -7    2   12     -0.05      0.00
   -6    2   12      0.06      0.00
   -5    2   12     -0.11      0.00
   -4    2   12      0.17      0.00
   -3    2   12     -0.22      0.00
   -2    2   12      0.17      0.00
   -1    2   12     -0.01      0.00
    0    2   12     -0.17      0.00
    1    2   12      0.23      0.00
    2    2   12     -0.14      0.00
    3    2   12     -0.02      0.00
    4    2   12      0.17      0.00
    5    2   12     -0.24      0.00
    6    2   12      0.23      0.00
    7    2   12     -0.16      0.00
    8    2   12      0.08      0.00
    9    2   12     -0.03      0.00
   10    2   12      0.04      0.00
   11    2   12     -0.07      0.00
   12    2   12      0.11      0.00
   13    2   12     -0.13      0.00
   14    2   12      0.10      0.00
  -11    3   12     -0.06      0.00
  -10    3   12      0.00      0.00
   -9    3   12      0.05      0.00
   -8    3   12     -0.05      0.00
   -7    3   12      0.03      0.00
   -6    3   12     -0.05      0.00
   -5    3   12      0.10      0.00
   -4    3   12     -0.18      0.00
   -3    3   12      0.25      0.00
   -2    3   12     -0.26      0.00
   -1    3   12      0.15      0.00
    0    3   12      0.05      0.00
    1    3   12     -0.21      0.00
    2    3   12      0.23      0.00
    3    3   12     -0.11      0.00
    4    3   12     -0.07      0.00
    5    3   12      0.21      0.00
    6    3   12     -0.28      0.00
    7    3   12      0.28      0.00
    8    3   12     -0.23      0.00
    9    3   12      0.16      0.00
   10    3   12     -0.09      0.00
   11    3   12      0.05      0.00
   12    3   12     -0.05      0.00
   13    3   12      0.09      0.00
   14    3   12     -0.12      0.00
  -11    4   12      0.06      0.00
  -10    4   12     -0.04      0.00
   -9    4   12     -0.02      0.00
   -8    4   12      0.03      0.00
   -7    4   12      0.01      0.00
   -6    4   12     -0.02      0.00
   -5    4   12     -0.04      0.00
   -4    4   12      0.14      0.00
   -3    4   12     -0.24      0.00
   -2    4   12      0.29      0.00
   -1    4   12     -0.24      0.00
    0    4   12      0.10      0.00
    1    4   12      0.07      0.00
    2    4   12     -0.18      0.00
    3    4   12      0.15      0.00
    4    4   12     -0.02      0.00
    5    4   12     -0.13      0.00
    6    4   12      0.24      0.00
    7    4   12     -0.30      0.00
    8    4   12      0.32      0.00
    9    4   12     -0.28      0.00
   10    4   12      0.21      0.00
   11    4   12     -0.11      0.00
   12    4   12      0.02      0.00
   13    4   12     -0.00      0.00
   14    4   12      0.04      0.00
   15    4   12     -0.07      0.00
  -10    5   12      0.05      0.00
   -9    5   12     -0.00      0.00
   -8    5   12     -0.02      0.00
   -7    5   12     -0.02      0.00
   -6    5   12      0.07      0.00
   -5    5   12     -0.06      0.00
   -4    5   12     -0.06      0.00
   -3    5   12      0.20      0.00
   -2    5   12     -0.28      0.00
   -1    5   12      0.29      0.00
    0    5   12     -0.23      0.00
    1    5   12      0.11      0.00
    2    5   12      0.01      0.00
    3    5   12     -0.08      0.00
    4    5   12      0.06      0.00
    5    5   12      0.04      0.00
    6    5   12     -0.17      0.00
    7    5   12      0.28      0.00
    8    5   12     -0.32      0.00
    9    5   12      0.32      0.00
   10    5   12     -0.28      0.00
   11    5   12      0.20      0.00
   12    5   12     -0.08      0.00
   13    5   12     -0.02      0.00
   14    5   12      0.06      0.00
   15    5   12     -0.03      0.00
  -10    6   12     -0.03      0.00
   -9    6   12      0.00      0.00
   -8    6   12      0.05      0.00
   -7    6   12     -0.04      0.00
   -6    6   12     -0.04      0.00
   -5    6   12      0.10      0.00
   -4    6   12     -0.05      0.00
   -3    6   12     -0.07      0.00
   -2    6   12      0.20      0.00
   -1    6   12     -0.28      0.00
    0    6   12      0.31      0.00
    1    6   12     -0.28      0.00
    2    6   12      0.20      0.00
    3    6   12     -0.08      0.00
    4    6   12     -0.01      0.00
    5    6   12      0.01      0.00
    6    6   12      0.09      0.00
    7    6   12     -0.21      0.00
    8    6   12      0.28      0.00
    9    6   12     -0.28      0.00
   10    6   12      0.26      0.00
   11    6   12     -0.24      0.00
   12    6   12      0.19      0.00
   13    6   12     -0.08      0.00
   14    6   12     -0.04      0.00
   15    6   12      0.08      0.00
   -9    7   12      0.04      0.00
   -8    7   12     -0.10      0.00
   -7    7   12      0.13      0.00
   -6    7   12     -0.07      0.00
   -5    7   12     -0.03      0.00
   -4    7   12      0.10      0.00
   -3    7   12     -0.06      0.00
   -2    7   12     -0.05      0.00
   -1    7   12      0.18      0.00
    0    7   12     -0.30      0.00
    1    7   12      0.38      0.00
    2    7   12     -0.38      0.00
    3    7   12      0.28      0.00
    4    7   12     -0.13      0.00
    5    7   12      0.01      0.00
    6    7   12     -0.01      0.00
    7    7   12      0.11      0.00
    8    7   12     -0.20      0.00
    9    7   12      0.22      0.00
   10    7   12     -0.20      0.00
   11    7   12      0.20      0.00
   12    7   12     -0.24      0.00
   13    7   12      0.22      0.00
   14    7   12     -0.11      0.00
   15    7   12     -0.01      0.00
   -8    8   12      0.14      0.00
   -7    8   12     -0.18      0.00
   -6    8   12      0.17      0.00
   -5    8   12     -0.08      0.00
   -4    8   12     -0.03      0.00
   -3    8   12      0.09      0.00
   -2    8   12     -0.06      0.00
   -1    8   12     -0.04      0.00
    0    8   12      0.19      0.00
    1    8   12     -0.34      0.00
    2    8   12      0.44      0.00
    3    8   12     -0.43      0.00
    4    8   12      0.31      0.00
    5    8   12     -0.15      0.00
    6    8   12      0.03      0.00
    7    8   12     -0.02      0.00
    8    8   12      0.08      0.00
    9    8   12     -0.14      0.00
   10    8   12      0.16      0.00
   11    8   12     -0.18      0.00
   12    8   12      0.24      0.00
   13    8   12     -0.29      0.00
   14    8   12      0.25      0.00
   15    8   12     -0.13      0.00
   -8    9   12     -0.13      0.00
   -7    9   12      0.17      0.00
   -6    9   12     -0.17      0.00
   -5    9   12      0.14      0.00
   -4    9   12     -0.07      0.00
   -3    9   12     -0.01      0.00
   -2    9   12      0.04      0.00
   -1    9   12     -0.02      0.00
    0    9   12     -0.07      0.00
    1    9   12      0.21      0.00
    2    9   12     -0.35      0.00
    3    9   12      0.45      0.00
    4    9   12     -0.44      0.00
    5    9   12      0.33      0.00
    6    9   12     -0.16      0.00
    7    9   12      0.03      0.00
    8    9   12      0.01      0.00
    9    9   12      0.04      0.00
   10    9   12     -0.12      0.00
   11    9   12      0.19      0.00
   12    9   12     -0.24      0.00
   13    9   12      0.27      0.00
   14    9   12     -0.27      0.00
   15    9   12      0.19      0.00
   -6   10   12      0.10      0.00
   -5   10   12     -0.10      0.00
   -4   10   12      0.10      0.00
   -3   10   12     -0.08      0.00
   -2   10   12      0.05      0.00
   -1   10   12     -0.03      0.00
    0   10   12      0.03      0.00
    1   10   12     -0.08      0.00
    2   10   12      0.20      0.00
    3   10   12     -0.33      0.00
    4   10   12      0.43      0.00
    5   10   12     -0.43      0.00
    6   10   12      0.33      0.00
    7   10   12     -0.17      0.00
    8   10   12      0.04      0.00
    9   10   12     -0.00      0.00
   10   10   12      0.07      0.00
   11   10   12     -0.17      0.00
   12   10   12      0.23      0.00
   13   10   12     -0.22      0.00
   14   10   12      0.19      0.00
   15   10   12     -0.14      0.00
   -6   11   12     -0.02      0.00
   -5   11   12      0.02      0.00
   -4   11   12     -0.05      0.00
   -3   11   12      0.07      0.00
   -2   11   12     -0.08      0.00
   -1   11   12      0.07      0.00
    0   11   12     -0.05      0.00
    1   11   12      0.04      0.00
    2   11   12     -0.07      0.00
    3   11   12      0.17      0.00
    4   11   12     -0.30      0.00
    5   11   12      0.39      0.00
    6   11   12     -0.40      0.00
    7   11   12      0.32      0.00
    8   11   12     -0.20      0.00
    9   11   12      0.09      0.00
   10   11   12     -0.07      0.00
   11   11   12      0.12      0.00
   12   11   12     -0.17      0.00
   13   11   12      0.16      0.00
   14   11   12     -0.10      0.00
   -4   12   12     -0.02      0.00
   -3   12   12      0.00      0.00
   -2   12   12      0.02      0.00
   -1   12   12     -0.04      0.00
    0   12   12      0.06      0.00
    1   12   12     -0.05      0.00
    2   12   12      0.03      0.00
    3   12   12     -0.05      0.00
    4   12   12      0.14      0.00
    5   12   12     -0.26      0.00
    6   12   12      0.34      0.00
    7   12   12     -0.37      0.00
    8   12   12      0.33      0.00
    9   12   12     -0.24      0.00
   10   12   12      0.14      0.00
   11   12   12     -0.08      0.00
   12   12   12      0.07      0.00
   13   12   12     -0.07      0.00
   14   12   12      0.04      0.00
   -3   13   12     -0.06      0.00
   -2   13   12      0.06      0.00
   -1   13   12     -0.03      0.00
    0   13   12     -0.02      0.00
    1   13   12      0.06      0.00
    2   13   12     -0.04      0.00
    3   13   12     -0.00      0.00
    4   13   12     -0.01      0.00
    5   13   12      0.10      0.00
    6   13   12     -0.21      0.00
    7   13   12      0.31      0.00
    8   13   12     -0.34      0.00
    9   13   12      0.31      0.00
   10   13   12     -0.21      0.00
   11   13   12      0.10      0.00
   12   13   12     -0.03      0.00
   13   13   12      0.01      0.00
   14   13   12     -0.00      0.00
   -1   14   12      0.06      0.00
    0   14   12     -0.01      0.00
    1   14   12     -0.04      0.00
    2   14   12      0.05      0.00
    3   14   12      0.00      0.00
    4   14   12     -0.05      0.00
    5   14   12      0.02      0.00
    6   14   12      0.09      0.00
    7   14   12     -0.21      0.00
    8   14   12      0.28      0.00
    9   14   12     -0.28      0.00
   10   14   12      0.22      0.00
   11   14   12     -0.13      0.00
   12   14   12      0.05      0.00
   13   14   12     -0.00      0.00
    1   15   12      0.02      0.00
    2   15   12     -0.05      0.00
    3   15   12      0.02      0.00
    4   15   12      0.03      0.00
    5   15   12     -0.05      0.00
    6   15   12     -0.01      0.00
    7   15   12      0.11      0.00
    8   15   12     -0.19      0.00
    9   15   12      0.21      0.00
   10   15   12     -0.17      0.00
   11   15   12      0.12      0.00
    3   16   12     -0.03      0.00
    4   16   12      0.01      0.00
    5   16   12      0.01      0.00
    6   16   12     -0.01      0.00
    7   16   12     -0.03      0.00
    8   16   12      0.10      0.00
    9   16   12     -0.13      0.00
   -5  -11   13      0.01      0.00
   -4  -11   13     -0.04      0.00
   -3  -11   13      0.08      0.00
   -2  -11   13     -0.09      0.00
   -8  -10   13      0.07      0.00
   -7  -10   13     -0.01      0.00
   -6  -10   13     -0.04      0.00
   -5  -10   13      0.04      0.00
   -4  -10   13     -0.01      0.00
   -3  -10   13     -0.04      0.00
   -2  -10   13      0.08      0.00
   -1  -10   13     -0.07      0.00
    0  -10   13     -0.02      0.00
    1  -10   13      0.09      0.00
   -9   -9   13      0.07      0.00
   -8   -9   13     -0.06      0.00
   -7   -9   13      0.00      0.00
   -6   -9   13      0.07      0.00
   -5   -9   13     -0.10      0.00
   -4   -9   13      0.08      0.00
   -3   -9   13     -0.03      0.00
   -2   -9   13     -0.04      0.00
   -1   -9   13      0.08      0.00
    0   -9   13     -0.05      0.00
    1   -9   13     -0.06      0.00
    2   -9   13      0.13      0.00
    3   -9   13     -0.11      0.00
  -10   -8   13     -0.01      0.00
   -9   -8   13     -0.02      0.00
   -8   -8   13      0.04      0.00
   -7   -8   13     -0.01      0.00
   -6   -8   13     -0.06      0.00
   -5   -8   13      0.11      0.00
   -4   -8   13     -0.10      0.00
   -3   -8   13      0.06      0.00
   -2   -8   13      0.01      0.00
   -1   -8   13     -0.08      0.00
    0   -8   13      0.11      0.00
    1   -8   13     -0.04      0.00
    2   -8   13     -0.07      0.00
    3   -8   13      0.13      0.00
    4   -8   13     -0.07      0.00
    5   -8   13     -0.03      0.00
  -11   -7   13     -0.00      0.00
  -10   -7   13      0.02      0.00
   -9   -7   13     -0.00      0.00
   -8   -7   13     -0.03      0.00
   -7   -7   13      0.04      0.00
   -6   -7   13      0.00      0.00
   -5   -7   13     -0.05      0.00
   -4   -7   13      0.05      0.00
   -3   -7   13     -0.00      0.00
   -2   -7   13     -0.05      0.00
   -1   -7   13      0.10      0.00
    0   -7   13     -0.13      0.00
    1   -7   13      0.11      0.00
    2   -7   13     -0.02      0.00
    3   -7   13     -0.07      0.00
    4   -7   13      0.07      0.00
    5   -7   13      0.02      0.00
    6   -7   13     -0.09      0.00
  -12   -6   13     -0.06      0.00
  -11   -6   13      0.04      0.00
  -10   -6   13     -0.02      0.00
   -9   -6   13     -0.00      0.00
   -8   -6   13      0.04      0.00
   -7   -6   13     -0.07      0.00
   -6   -6   13      0.06      0.00
   -5   -6   13     -0.02      0.00
   -4   -6   13      0.02      0.00
   -3   -6   13     -0.07      0.00
   -2   -6   13      0.13      0.00
   -1   -6   13     -0.14      0.00
    0   -6   13      0.11      0.00
    1   -6   13     -0.09      0.00
    2   -6   13      0.05      0.00
    3   -6   13      0.01      0.00
    4   -6   13     -0.04      0.00
    5   -6   13     -0.01      0.00
    6   -6   13      0.09      0.00
    7   -6   13     -0.12      0.00
    8   -6   13      0.08      0.00
  -12   -5   13      0.12      0.00
  -11   -5   13     -0.10      0.00
  -10   -5   13      0.04      0.00
   -9   -5   13      0.01      0.00
   -8   -5   13     -0.04      0.00
   -7   -5   13      0.07      0.00
   -6   -5   13     -0.07      0.00
   -5   -5   13      0.04      0.00
   -4   -5   13     -0.03      0.00
   -3   -5   13      0.07      0.00
   -2   -5   13     -0.14      0.00
   -1   -5   13      0.15      0.00
    0   -5   13     -0.10      0.00
    1   -5   13      0.04      0.00
    2   -5   13     -0.02      0.00
    3   -5   13      0.01      0.00
    4   -5   13      0.01      0.00
    5   -5   13     -0.01      0.00
    6   -5   13     -0.04      0.00
    7   -5   13      0.10      0.00
    8   -5   13     -0.11      0.00
    9   -5   13      0.07      0.00
  -12   -4   13     -0.13      0.00
  -11   -4   13      0.11      0.00
  -10   -4   13     -0.06      0.00
   -9   -4   13      0.00      0.00
   -8   -4   13      0.03      0.00
   -7   -4   13     -0.05      0.00
   -6   -4   13      0.06      0.00
   -5   -4   13     -0.04      0.00
   -4   -4   13      0.01      0.00
   -3   -4   13     -0.01      0.00
   -2   -4   13      0.05      0.00
   -1   -4   13     -0.09      0.00
    0   -4   13      0.07      0.00
    1   -4   13     -0.02      0.00
    2   -4   13     -0.00      0.00
    3   -4   13     -0.01      0.00
    4   -4   13      0.01      0.00
    5   -4   13      0.03      0.00
    6   -4   13     -0.03      0.00
    7   -4   13     -0.01      0.00
    8   -4   13      0.07      0.00
    9   -4   13     -0.09      0.00
  -12   -3   13      0.09      0.00
  -11   -3   13     -0.08      0.00
  -10   -3   13      0.06      0.00
   -9   -3   13     -0.03      0.00
   -8   -3   13     -0.01      0.00
   -7   -3   13      0.04      0.00
   -6   -3   13     -0.06      0.00
   -5   -3   13      0.05      0.00
   -4   -3   13     -0.02      0.00
   -3   -3   13     -0.02      0.00
   -2   -3   13      0.03      0.00
   -1   -3   13     -0.01      0.00
    0   -3   13     -0.01      0.00
    1   -3   13      0.01      0.00
    2   -3   13     -0.00      0.00
    3   -3   13      0.02      0.00
    4   -3   13     -0.02      0.00
    5   -3   13     -0.02      0.00
    6   -3   13      0.07      0.00
    7   -3   13     -0.07      0.00
    8   -3   13      0.01      0.00
    9   -3   13      0.06      0.00
   10   -3   13     -0.07      0.00
  -12   -2   13     -0.07      0.00
  -11   -2   13      0.06      0.00
  -10   -2   13     -0.05      0.00
   -9   -2   13      0.04      0.00
   -8   -2   13     -0.01      0.00
   -7   -2   13     -0.03      0.00
   -6   -2   13      0.06      0.00
   -5   -2   13     -0.07      0.00
   -4   -2   13      0.07      0.00
   -3   -2   13     -0.04      0.00
   -2   -2   13     -0.00      0.00
   -1   -2   13      0.03      0.00
    0   -2   13     -0.04      0.00
    1   -2   13      0.03      0.00
    2   -2   13     -0.02      0.00
    3   -2   13     -0.00      0.00
    4   -2   13      0.02      0.00
    5   -2   13     -0.01      0.00
    6   -2   13     -0.03      0.00
    7   -2   13      0.08      0.00
    8   -2   13     -0.07      0.00
    9   -2   13      0.01      0.00
   10   -2   13      0.05      0.00
   11   -2   13     -0.06      0.00
  -12   -1   13      0.08      0.00
  -11   -1   13     -0.07      0.00
  -10   -1   13      0.05      0.00
   -9   -1   13     -0.03      0.00
   -8   -1   13      0.00      0.00
   -7   -1   13      0.04      0.00
   -6   -1   13     -0.07      0.00
   -5   -1   13      0.07      0.00
   -4   -1   13     -0.07      0.00
   -3   -1   13      0.08      0.00
   -2   -1   13     -0.08      0.00
   -1   -1   13      0.05      0.00
    0   -1   13      0.02      0.00
    1   -1   13     -0.07      0.00
    2   -1   13      0.08      0.00
    3   -1   13     -0.07      0.00
    4   -1   13      0.04      0.00
    5   -1   13      0.01      0.00
    6   -1   13     -0.02      0.00
    7   -1   13     -0.00      0.00
    8   -1   13      0.05      0.00
    9   -1   13     -0.05      0.00
   10   -1   13      0.01      0.00
   11   -1   13      0.04      0.00
   12   -1   13     -0.06      0.00
  -12    0   13     -0.07      0.00
  -11    0   13      0.10      0.00
  -10    0   13     -0.08      0.00
   -9    0   13      0.04      0.00
   -8    0   13      0.01      0.00
   -7    0   13     -0.05      0.00
   -6    0   13      0.07      0.00
   -5    0   13     -0.04      0.00
   -4    0   13      0.00      0.00
   -3    0   13     -0.02      0.00
   -2    0   13      0.09      0.00
   -1    0   13     -0.13      0.00
    0    0   13      0.08      0.00
    1    0   13      0.02      0.00
    2    0   13     -0.11      0.00
    3    0   13      0.15      0.00
    4    0   13     -0.13      0.00
    5    0   13      0.07      0.00
    6    0   13      0.01      0.00
    7    0   13     -0.05      0.00
    8    0   13      0.03      0.00
    9    0   13      0.02      0.00
   10    0   13     -0.04      0.00
   11    0   13      0.01      0.00
   12    0   13      0.04      0.00
  -12    1   13      0.02      0.00
  -11    1   13     -0.08      0.00
  -10    1   13      0.09      0.00
   -9    1   13     -0.05      0.00
   -8    1   13      0.00      0.00
   -7    1   13      0.03      0.00
   -6    1   13     -0.04      0.00
   -5    1   13      0.00      0.00
   -4    1   13      0.06      0.00
   -3    1   13     -0.09      0.00
   -2    1   13      0.03      0.00
   -1    1   13      0.09      0.00
    0    1   13     -0.14      0.00
    1    1   13      0.08      0.00
    2    1   13      0.04      0.00
    3    1   13     -0.14      0.00
    4    1   13      0.19      0.00
    5    1   13     -0.17      0.00
    6    1   13      0.09      0.00
    7    1   13      0.01      0.00
    8    1   13     -0.06      0.00
    9    1   13      0.03      0.00
   10    1   13      0.02      0.00
   11    1   13     -0.04      0.00
   12    1   13      0.02      0.00
   13    1   13      0.02      0.00
  -11    2   13      0.02      0.00
  -10    2   13     -0.07      0.00
   -9    2   13      0.06      0.00
   -8    2   13     -0.02      0.00
   -7    2   13      0.00      0.00
   -6    2   13     -0.00      0.00
   -5    2   13      0.03      0.00
   -4    2   13     -0.09      0.00
   -3    2   13      0.15      0.00
   -2    2   13     -0.15      0.00
   -1    2   13      0.04      0.00
    0    2   13      0.10      0.00
    1    2   13     -0.15      0.00
    2    2   13      0.08      0.00
    3    2   13      0.05      0.00
    4    2   13     -0.15      0.00
    5    2   13      0.20      0.00
    6    2   13     -0.19      0.00
    7    2   13      0.12      0.00
    8    2   13     -0.03      0.00
    9    2   13     -0.02      0.00
   10    2   13      0.01      0.00
   11    2   13      0.02      0.00
   12    2   13     -0.04      0.00
   13    2   13      0.04      0.00
   14    2   13     -0.03      0.00
  -11    3   13      0.02      0.00
  -10    3   13      0.03      0.00
   -9    3   13     -0.06      0.00
   -8    3   13      0.04      0.00
   -7    3   13     -0.01      0.00
   -6    3   13      0.01      0.00
   -5    3   13     -0.02      0.00
   -4    3   13      0.07      0.00
   -3    3   13     -0.15      0.00
   -2    3   13      0.20      0.00
   -1    3   13     -0.15      0.00
    0    3   13      0.01      0.00
    1    3   13      0.12      0.00
    2    3   13     -0.15      0.00
    3    3   13      0.06      0.00
    4    3   13      0.06      0.00
    5    3   13     -0.16      0.00
    6    3   13      0.21      0.00
    7    3   13     -0.21      0.00
    8    3   13      0.17      0.00
    9    3   13     -0.11      0.00
   10    3   13      0.06      0.00
   11    3   13     -0.02      0.00
   12    3   13      0.02      0.00
   13    3   13     -0.05      0.00
   14    3   13      0.07      0.00
  -11    4   13     -0.03      0.00
  -10    4   13     -0.00      0.00
   -9    4   13      0.05      0.00
   -8    4   13     -0.05      0.00
   -7    4   13      0.01      0.00
   -6    4   13      0.03      0.00
   -5    4   13     -0.02      0.00
   -4    4   13     -0.04      0.00
   -3    4   13      0.13      0.00
   -2    4   13     -0.20      0.00
   -1    4   13      0.21      0.00
    0    4   13     -0.12      0.00
    1    4   13     -0.03      0.00
    2    4   13      0.12      0.00
    3    4   13     -0.11      0.00
    4    4   13      0.02      0.00
    5    4   13      0.08      0.00
    6    4   13     -0.17      0.00
    7    4   13      0.22      0.00
    8    4   13     -0.25      0.00
    9    4   13      0.25      0.00
   10    4   13     -0.20      0.00
   11    4   13      0.12      0.00
   12    4   13     -0.04      0.00
   13    4   13      0.01      0.00
   14    4   13     -0.03      0.00
  -10    5   13     -0.01      0.00
   -9    5   13     -0.03      0.00
   -8    5   13      0.05      0.00
   -7    5   13     -0.01      0.00
   -6    5   13     -0.07      0.00
   -5    5   13      0.09      0.00
   -4    5   13     -0.02      0.00
   -3    5   13     -0.10      0.00
   -2    5   13      0.20      0.00
   -1    5   13     -0.25      0.00
    0    5   13      0.21      0.00
    1    5   13     -0.10      0.00
    2    5   13     -0.01      0.00
    3    5   13      0.07      0.00
    4    5   13     -0.06      0.00
    5    5   13     -0.01      0.00
    6    5   13      0.10      0.00
    7    5   13     -0.17      0.00
    8    5   13      0.24      0.00
    9    5   13     -0.28      0.00
   10    5   13      0.29      0.00
   11    5   13     -0.23      0.00
   12    5   13      0.12      0.00
   13    5   13     -0.01      0.00
   14    5   13     -0.04      0.00
   -9    6   13      0.02      0.00
   -8    6   13     -0.06      0.00
   -7    6   13      0.05      0.00
   -6    6   13      0.03      0.00
   -5    6   13     -0.11      0.00
   -4    6   13      0.09      0.00
   -3    6   13      0.02      0.00
   -2    6   13     -0.15      0.00
   -1    6   13      0.24      0.00
    0    6   13     -0.27      0.00
    1    6   13      0.23      0.00
    2    6   13     -0.15      0.00
    3    6   13      0.05      0.00
    4    6   13      0.02      0.00
    5    6   13     -0.03      0.00
    6    6   13     -0.03      0.00
    7    6   13      0.12      0.00
    8    6   13     -0.19      0.00
    9    6   13      0.22      0.00
   10    6   13     -0.24      0.00
   11    6   13      0.23      0.00
   12    6   13     -0.18      0.00
   13    6   13      0.06      0.00
   14    6   13      0.05      0.00
   15    6   13     -0.09      0.00
   -9    7   13     -0.03      0.00
   -8    7   13      0.09      0.00
   -7    7   13     -0.13      0.00
   -6    7   13      0.08      0.00
   -5    7   13      0.03      0.00
   -4    7   13     -0.10      0.00
   -3    7   13      0.07      0.00
   -2    7   13      0.03      0.00
   -1    7   13     -0.15      0.00
    0    7   13      0.24      0.00
    1    7   13     -0.30      0.00
    2    7   13      0.29      0.00
    3    7   13     -0.22      0.00
    4    7   13      0.10      0.00
    5    7   13     -0.01      0.00
    6    7   13     -0.00      0.00
    7    7   13     -0.05      0.00
    8    7   13      0.12      0.00
    9    7   13     -0.14      0.00
   10    7   13      0.13      0.00
   11    7   13     -0.13      0.00
   12    7   13      0.14      0.00
   13    7   13     -0.12      0.00
   14    7   13      0.03      0.00
   15    7   13      0.06      0.00
   -8    8   13     -0.12      0.00
   -7    8   13      0.18      0.00
   -6    8   13     -0.18      0.00
   -5    8   13      0.09      0.00
   -4    8   13      0.03      0.00
   -3    8   13     -0.10      0.00
   -2    8   13      0.09      0.00
   -1    8   13     -0.00      0.00
    0    8   13     -0.12      0.00
    1    8   13      0.25      0.00
    2    8   13     -0.33      0.00
    3    8   13      0.34      0.00
    4    8   13     -0.26      0.00
    5    8   13      0.14      0.00
    6    8   13     -0.05      0.00
    7    8   13      0.03      0.00
    8    8   13     -0.05      0.00
    9    8   13      0.07      0.00
   10    8   13     -0.06      0.00
   11    8   13      0.05      0.00
   12    8   13     -0.09      0.00
   13    8   13      0.13      0.00
   14    8   13     -0.12      0.00
   15    8   13      0.04      0.00
   -7    9   13     -0.17      0.00
   -6    9   13      0.20      0.00
   -5    9   13     -0.16      0.00
   -4    9   13      0.07      0.00
   -3    9   13      0.03      0.00
   -2    9   13     -0.08      0.00
   -1    9   13      0.07      0.00
    0    9   13     -0.01      0.00
    1    9   13     -0.11      0.00
    2    9   13      0.24      0.00
    3    9   13     -0.33      0.00
    4    9   13      0.35      0.00
    5    9   13     -0.29      0.00
    6    9   13      0.19      0.00
    7    9   13     -0.08      0.00
    8    9   13      0.03      0.00
    9    9   13     -0.02      0.00
   10    9   13      0.05      0.00
   11    9   13     -0.08      0.00
   12    9   13      0.11      0.00
   13    9   13     -0.15      0.00
   14    9   13      0.16      0.00
   15    9   13     -0.11      0.00
   -7   10   13      0.12      0.00
   -6   10   13     -0.14      0.00
   -5   10   13      0.14      0.00
   -4   10   13     -0.12      0.00
   -3   10   13      0.07      0.00
   -2   10   13     -0.02      0.00
   -1   10   13     -0.02      0.00
    0   10   13      0.03      0.00
    1   10   13     -0.00      0.00
    2   10   13     -0.09      0.00
    3   10   13      0.21      0.00
    4   10   13     -0.31      0.00
    5   10   13      0.35      0.00
    6   10   13     -0.31      0.00
    7   10   13      0.21      0.00
    8   10   13     -0.10      0.00
    9   10   13      0.03      0.00
   10   10   13     -0.05      0.00
   11   10   13      0.12      0.00
   12   10   13     -0.18      0.00
   13   10   13      0.19      0.00
   14   10   13     -0.16      0.00
   15   10   13      0.11      0.00
   -5   11   13     -0.08      0.00
   -4   11   13      0.09      0.00
   -3   11   13     -0.10      0.00
   -2   11   13      0.09      0.00
   -1   11   13     -0.06      0.00
    0   11   13      0.02      0.00
    1   11   13      0.01      0.00
    2   11   13     -0.00      0.00
    3   11   13     -0.08      0.00
    4   11   13      0.20      0.00
    5   11   13     -0.29      0.00
    6   11   13      0.33      0.00
    7   11   13     -0.30      0.00
    8   11   13      0.22      0.00
    9   11   13     -0.13      0.00
   10   11   13      0.10      0.00
   11   11   13     -0.13      0.00
   12   11   13      0.18      0.00
   13   11   13     -0.20      0.00
   14   11   13      0.15      0.00
   -4   12   13     -0.03      0.00
   -3   12   13      0.06      0.00
   -2   12   13     -0.07      0.00
   -1   12   13      0.07      0.00
    0   12   13     -0.06      0.00
    1   12   13      0.03      0.00
    2   12   13      0.01      0.00
    3   12   13      0.01      0.00
    4   12   13     -0.09      0.00
    5   12   13      0.19      0.00
    6   12   13     -0.26      0.00
    7   12   13      0.30      0.00
    8   12   13     -0.30      0.00
    9   12   13      0.26      0.00
   10   12   13     -0.19      0.00
   11   12   13      0.13      0.00
   12   12   13     -0.12      0.00
   13   12   13      0.13      0.00
   14   12   13     -0.11      0.00
   -3   13   13      0.00      0.00
   -2   13   13      0.01      0.00
   -1   13   13     -0.02      0.00
    0   13   13      0.04      0.00
    1   13   13     -0.06      0.00
    2   13   13      0.04      0.00
    3   13   13     -0.01      0.00
    4   13   13      0.03      0.00
    5   13   13     -0.10      0.00
    6   13   13      0.18      0.00
    7   13   13     -0.24      0.00
    8   13   13      0.29      0.00
    9   13   13     -0.31      0.00
   10   13   13      0.27      0.00
   11   13   13     -0.17      0.00
   12   13   13      0.08      0.00
   13   13   13     -0.04      0.00
   -1   14   13     -0.03      0.00
    0   14   13     -0.01      0.00
    1   14   13      0.06      0.00
    2   14   13     -0.07      0.00
    3   14   13      0.04      0.00
    4   14   13     -0.00      0.00
    5   14   13      0.03      0.00
    6   14   13     -0.11      0.00
    7   14   13      0.19      0.00
    8   14   13     -0.24      0.00
    9   14   13      0.27      0.00
   10   14   13     -0.27      0.00
   11   14   13      0.20      0.00
   12   14   13     -0.10      0.00
   13   14   13      0.02      0.00
    1   15   13     -0.04      0.00
    2   15   13      0.07      0.00
    3   15   13     -0.05      0.00
    4   15   13      0.01      0.00
    5   15   13      0.00      0.00
    6   15   13      0.05      0.00
    7   15   13     -0.14      0.00
    8   15   13      0.19      0.00
    9   15   13     -0.21      0.00
   10   15   13      0.19      0.00
   11   15   13     -0.16      0.00
    3   16   13      0.04      0.00
    4   16   13     -0.02      0.00
    5   16   13      0.01      0.00
    6   16   13     -0.03      0.00
    7   16   13      0.08      0.00
    8   16   13     -0.13      0.00
    9   16   13      0.14      0.00
   -6  -10   14     -0.01      0.00
   -5  -10   14      0.03      0.00
   -4  -10   14     -0.05      0.00
   -3  -10   14      0.07      0.00
   -2  -10   14     -0.09      0.00
   -1  -10   14      0.07      0.00
   -8   -9   14      0.01      0.00
   -7   -9   14      0.03      0.00
   -6   -9   14     -0.05      0.00
   -5   -9   14      0.05      0.00
   -4   -9   14     -0.02      0.00
   -3   -9   14     -0.01      0.00
   -2   -9   14      0.05      0.00
   -1   -9   14     -0.09      0.00
    0   -9   14      0.05      0.00
    1   -9   14      0.05      0.00
    2   -9   14     -0.12      0.00
   -9   -8   14     -0.01      0.00
   -8   -8   14     -0.00      0.00
   -7   -8   14     -0.03      0.00
   -6   -8   14      0.09      0.00
   -5   -8   14     -0.11      0.00
   -4   -8   14      0.09      0.00
   -3   -8   14     -0.05      0.00
   -2   -8   14     -0.00      0.00
   -1   -8   14      0.08      0.00
    0   -8   14     -0.11      0.00
    1   -8   14      0.04      0.00
    2   -8   14      0.08      0.00
    3   -8   14     -0.14      0.00
    4   -8   14      0.08      0.00
  -10   -7   14     -0.03      0.00
   -9   -7   14      0.02      0.00
   -8   -7   14      0.01      0.00
   -7   -7   14     -0.00      0.00
   -6   -7   14     -0.05      0.00
   -5   -7   14      0.09      0.00
   -4   -7   14     -0.08      0.00
   -3   -7   14      0.04      0.00
   -2   -7   14      0.02      0.00
   -1   -7   14     -0.08      0.00
    0   -7   14      0.13      0.00
    1   -7   14     -0.12      0.00
    2   -7   14      0.01      0.00
    3   -7   14      0.10      0.00
    4   -7   14     -0.12      0.00
    5   -7   14      0.02      0.00
  -11   -6   14     -0.03      0.00
  -10   -6   14      0.03      0.00
   -9   -6   14     -0.01      0.00
   -8   -6   14     -0.03      0.00
   -7   -6   14      0.06      0.00
   -6   -6   14     -0.03      0.00
   -5   -6   14     -0.02      0.00
   -4   -6   14      0.03      0.00
   -3   -6   14      0.03      0.00
   -2   -6   14     -0.09      0.00
   -1   -6   14      0.12      0.00
    0   -6   14     -0.13      0.00
    1   -6   14      0.13      0.00
    2   -6   14     -0.07      0.00
    3   -6   14     -0.03      0.00
    4   -6   14      0.09      0.00
    5   -6   14     -0.04      0.00
    6   -6   14     -0.08      0.00
    7   -6   14      0.14      0.00
  -12   -5   14     -0.12      0.00
  -11   -5   14      0.10      0.00
  -10   -5   14     -0.05      0.00
   -9   -5   14      0.00      0.00
   -8   -5   14      0.04      0.00
   -7   -5   14     -0.09      0.00
   -6   -5   14      0.09      0.00
   -5   -5   14     -0.04      0.00
   -4   -5   14      0.00      0.00
   -3   -5   14     -0.04      0.00
   -2   -5   14      0.12      0.00
   -1   -5   14     -0.15      0.00
    0   -5   14      0.13      0.00
    1   -5   14     -0.08      0.00
    2   -5   14      0.06      0.00
    3   -5   14     -0.02      0.00
    4   -5   14     -0.03      0.00
    5   -5   14      0.04      0.00
    6   -5   14      0.03      0.00
    7   -5   14     -0.13      0.00
    8   -5   14      0.15      0.00
  -12   -4   14      0.16      0.00
  -11   -4   14     -0.15      0.00
  -10   -4   14      0.09      0.00
   -9   -4   14     -0.02      0.00
   -8   -4   14     -0.04      0.00
   -7   -4   14      0.08      0.00
   -6   -4   14     -0.09      0.00
   -5   -4   14      0.06      0.00
   -4   -4   14     -0.00      0.00
   -3   -4   14     -0.01      0.00
   -2   -4   14     -0.05      0.00
   -1   -4   14      0.10      0.00
    0   -4   14     -0.10      0.00
    1   -4   14      0.05      0.00
    2   -4   14     -0.03      0.00
    3   -4   14      0.04      0.00
    4   -4   14     -0.02      0.00
    5   -4   14     -0.02      0.00
    6   -4   14      0.03      0.00
    7   -4   14      0.04      0.00
    8   -4   14     -0.12      0.00
    9   -4   14      0.13      0.00
  -12   -3   14     -0.12      0.00
  -11   -3   14      0.14      0.00
  -10   -3   14     -0.11      0.00
   -9   -3   14      0.05      0.00
   -8   -3   14      0.01      0.00
   -7   -3   14     -0.05      0.00
   -6   -3   14      0.07      0.00
   -5   -3   14     -0.06      0.00
   -4   -3   14      0.02      0.00
   -3   -3   14      0.03      0.00
   -2   -3   14     -0.03      0.00
   -1   -3   14     -0.00      0.00
    0   -3   14      0.03      0.00
    1   -3   14     -0.03      0.00
    2   -3   14      0.03      0.00
    3   -3   14     -0.05      0.00
    4   -3   14      0.06      0.00
    5   -3   14     -0.01      0.00
    6   -3   14     -0.05      0.00
    7   -3   14      0.05      0.00
    8   -3   14      0.03      0.00
    9   -3   14     -0.11      0.00
   10   -3   14      0.11      0.00
  -12   -2   14      0.07      0.00
  -11   -2   14     -0.08      0.00
  -10   -2   14      0.07      0.00
   -9   -2   14     -0.05      0.00
   -8   -2   14      0.00      0.00
   -7   -2   14      0.04      0.00
   -6   -2   14     -0.06      0.00
   -5   -2   14      0.07      0.00
   -4   -2   14     -0.06      0.00
   -3   -2   14      0.03      0.00
   -2   -2   14      0.01      0.00
   -1   -2   14     -0.03      0.00
    0   -2   14      0.02      0.00
    1   -2   14      0.00      0.00
    2   -2   14     -0.02      0.00
    3   -2   14      0.04      0.00
    4   -2   14     -0.06      0.00
    5   -2   14      0.04      0.00
    6   -2   14      0.02      0.00
    7   -2   14     -0.08      0.00
    8   -2   14      0.05      0.00
    9   -2   14      0.03      0.00
   10   -2   14     -0.10      0.00
   11   -2   14      0.08      0.00
  -12   -1   14     -0.05      0.00
  -11   -1   14      0.05      0.00
  -10   -1   14     -0.03      0.00
   -9   -1   14      0.01      0.00
   -8   -1   14      0.02      0.00
   -7   -1   14     -0.06      0.00
   -6   -1   14      0.09      0.00
   -5   -1   14     -0.09      0.00
   -4   -1   14      0.08      0.00
   -3   -1   14     -0.08      0.00
   -2   -1   14      0.08      0.00
   -1   -1   14     -0.05      0.00
    0   -1   14      0.01      0.00
    1   -1   14      0.01      0.00
    2   -1   14     -0.02      0.00
    3   -1   14      0.01      0.00
    4   -1   14      0.01      0.00
    5   -1   14     -0.03      0.00
    6   -1   14      0.02      0.00
    7   -1   14      0.02      0.00
    8   -1   14     -0.05      0.00
    9   -1   14      0.02      0.00
   10   -1   14      0.04      0.00
   11   -1   14     -0.09      0.00
  -11    0   14     -0.04      0.00
  -10    0   14      0.01      0.00
   -9    0   14      0.03      0.00
   -8    0   14     -0.06      0.00
   -7    0   14      0.09      0.00
   -6    0   14     -0.11      0.00
   -5    0   14      0.08      0.00
   -4    0   14     -0.05      0.00
   -3    0   14      0.05      0.00
   -2    0   14     -0.10      0.00
   -1    0   14      0.13      0.00
    0    0   14     -0.10      0.00
    1    0   14      0.02      0.00
    2    0   14      0.05      0.00
    3    0   14     -0.08      0.00
    4    0   14      0.08      0.00
    5    0   14     -0.05      0.00
    6    0   14     -0.01      0.00
    7    0   14      0.03      0.00
    8    0   14     -0.02      0.00
    9    0   14     -0.01      0.00
   10    0   14     -0.00      0.00
   11    0   14      0.05      0.00
   12    0   14     -0.08      0.00
  -11    1   14      0.04      0.00
  -10    1   14     -0.03      0.00
   -9    1   14     -0.03      0.00
   -8    1   14      0.08      0.00
   -7    1   14     -0.10      0.00
   -6    1   14      0.10      0.00
   -5    1   14     -0.06      0.00
   -4    1   14     -0.00      0.00
   -3    1   14      0.04      0.00
   -2    1   14      0.01      0.00
   -1    1   14     -0.10      0.00
    0    1   14      0.14      0.00
    1    1   14     -0.08      0.00
    2    1   14     -0.02      0.00
    3    1   14      0.10      0.00
    4    1   14     -0.14      0.00
    5    1   14      0.14      0.00
    6    1   14     -0.08      0.00
    7    1   14     -0.01      0.00
    8    1   14      0.06      0.00
    9    1   14     -0.05      0.00
   10    1   14      0.02      0.00
   11    1   14     -0.02      0.00
   12    1   14      0.05      0.00
   13    1   14     -0.07      0.00
  -11    2   14     -0.03      0.00
  -10    2   14      0.04      0.00
   -9    2   14      0.00      0.00
   -8    2   14     -0.05      0.00
   -7    2   14      0.07      0.00
   -6    2   14     -0.06      0.00
   -5    2   14      0.03      0.00
   -4    2   14      0.02      0.00
   -3    2   14     -0.08      0.00
   -2    2   14      0.09      0.00
   -1    2   14     -0.02      0.00
    0    2   14     -0.08      0.00
    1    2   14      0.10      0.00
    2    2   14     -0.04      0.00
    3    2   14     -0.05      0.00
    4    2   14      0.13      0.00
    5    2   14     -0.17      0.00
    6    2   14      0.16      0.00
    7    2   14     -0.09      0.00
    8    2   14      0.00      0.00
    9    2   14      0.05      0.00
   10    2   14     -0.05      0.00
   11    2   14      0.03      0.00
   12    2   14     -0.02      0.00
   13    2   14      0.03      0.00
  -10    3   14     -0.05      0.00
   -9    3   14      0.04      0.00
   -8    3   14     -0.00      0.00
   -7    3   14     -0.02      0.00
   -6    3   14      0.02      0.00
   -5    3   14     -0.02      0.00
   -4    3   14     -0.01      0.00
   -3    3   14      0.06      0.00
   -2    3   14     -0.12      0.00
   -1    3   14      0.11      0.00
    0    3   14     -0.02      0.00
    1    3   14     -0.07      0.00
    2    3   14      0.08      0.00
    3    3   14     -0.02      0.00
    4    3   14     -0.07      0.00
    5    3   14      0.13      0.00
    6    3   14     -0.17      0.00
    7    3   14      0.16      0.00
    8    3   14     -0.12      0.00
    9    3   14      0.06      0.00
   10    3   14     -0.00      0.00
   11    3   14     -0.02      0.00
   12    3   14      0.02      0.00
   13    3   14     -0.01      0.00
   14    3   14     -0.01      0.00
  -10    4   14      0.04      0.00
   -9    4   14     -0.07      0.00
   -8    4   14      0.05      0.00
   -7    4   14     -0.01      0.00
   -6    4   14     -0.03      0.00
   -5    4   14      0.04      0.00
   -4    4   14     -0.02      0.00
   -3    4   14     -0.03      0.00
   -2    4   14      0.11      0.00
   -1    4   14     -0.15      0.00
    0    4   14      0.11      0.00
    1    4   14     -0.01      0.00
    2    4   14     -0.06      0.00
    3    4   14      0.05      0.00
    4    4   14      0.01      0.00
    5    4   14     -0.07      0.00
    6    4   14      0.12      0.00
    7    4   14     -0.16      0.00
    8    4   14      0.19      0.00
    9    4   14     -0.19      0.00
   10    4   14      0.15      0.00
   11    4   14     -0.09      0.00
   12    4   14      0.02      0.00
   13    4   14      0.00      0.00
   14    4   14      0.02      0.00
  -10    5   14     -0.03      0.00
   -9    5   14      0.06      0.00
   -8    5   14     -0.07      0.00
   -7    5   14      0.03      0.00
   -6    5   14      0.04      0.00
   -5    5   14     -0.09      0.00
   -4    5   14      0.07      0.00
   -3    5   14      0.01      0.00
   -2    5   14     -0.11      0.00
   -1    5   14      0.19      0.00
    0    5   14     -0.18      0.00
    1    5   14      0.10      0.00
    2    5   14     -0.00      0.00
    3    5   14     -0.04      0.00
    4    5   14      0.03      0.00
    5    5   14      0.01      0.00
    6    5   14     -0.05      0.00
    7    5   14      0.10      0.00
    8    5   14     -0.17      0.00
    9    5   14      0.24      0.00
   10    5   14     -0.27      0.00
   11    5   14      0.23      0.00
   12    5   14     -0.13      0.00
   13    5   14      0.03      0.00
   14    5   14      0.01      0.00
   -9    6   14     -0.03      0.00
   -8    6   14      0.07      0.00
   -7    6   14     -0.05      0.00
   -6    6   14     -0.02      0.00
   -5    6   14      0.10      0.00
   -4    6   14     -0.10      0.00
   -3    6   14      0.03      0.00
   -2    6   14      0.10      0.00
   -1    6   14     -0.20      0.00
    0    6   14      0.24      0.00
    1    6   14     -0.20      0.00
    2    6   14      0.11      0.00
    3    6   14     -0.03      0.00
    4    6   14     -0.01      0.00
    5    6   14      0.02      0.00
    6    6   14     -0.01      0.00
    7    6   14     -0.04      0.00
    8    6   14      0.11      0.00
    9    6   14     -0.19      0.00
   10    6   14      0.24      0.00
   11    6   14     -0.25      0.00
   12    6   14      0.19      0.00
   13    6   14     -0.08      0.00
   14    6   14     -0.02      0.00
   -8    7   14     -0.06      0.00
   -7    7   14      0.09      0.00
   -6    7   14     -0.06      0.00
   -5    7   14     -0.03      0.00
   -4    7   14      0.09      0.00
   -3    7   14     -0.07      0.00
   -2    7   14     -0.02      0.00
   -1    7   14      0.13      0.00
    0    7   14     -0.21      0.00
    1    7   14      0.25      0.00
    2    7   14     -0.22      0.00
    3    7   14      0.16      0.00
    4    7   14     -0.07      0.00
    5    7   14      0.01      0.00
    6    7   14      0.02      0.00
    7    7   14      0.00      0.00
    8    7   14     -0.05      0.00
    9    7   14      0.10      0.00
   10    7   14     -0.12      0.00
   11    7   14      0.13      0.00
   12    7   14     -0.13      0.00
   13    7   14      0.08      0.00
   14    7   14      0.00      0.00
   15    7   14     -0.07      0.00
   -8    8   14      0.07      0.00
   -7    8   14     -0.13      0.00
   -6    8   14      0.14      0.00
   -5    8   14     -0.08      0.00
   -4    8   14     -0.02      0.00
   -3    8   14      0.09      0.00
   -2    8   14     -0.08      0.00
   -1    8   14      0.01      0.00
    0    8   14      0.09      0.00
    1    8   14     -0.19      0.00
    2    8   14      0.25      0.00
    3    8   14     -0.25      0.00
    4    8   14      0.20      0.00
    5    8   14     -0.12      0.00
    6    8   14      0.05      0.00
    7    8   14     -0.02      0.00
    8    8   14      0.02      0.00
    9    8   14     -0.03      0.00
   10    8   14      0.03      0.00
   11    8   14     -0.01      0.00
   12    8   14      0.01      0.00
   13    8   14     -0.02      0.00
   14    8   14      0.01      0.00
   15    8   14      0.04      0.00
   -7    9   14      0.13      0.00
   -6    9   14     -0.17      0.00
   -5    9   14      0.15      0.00
   -4    9   14     -0.06      0.00
   -3    9   14     -0.03      0.00
   -2    9   14      0.09      0.00
   -1    9   14     -0.10      0.00
    0    9   14      0.05      0.00
    1    9   14      0.05      0.00
    2    9   14     -0.16      0.00
    3    9   14      0.24      0.00
    4    9   14     -0.26      0.00
    5    9   14      0.24      0.00
    6    9   14     -0.19      0.00
    7    9   14      0.11      0.00
    8    9   14     -0.05      0.00
    9    9   14      0.01      0.00
   10    9   14      0.01      0.00
   11    9   14     -0.01      0.00
   12    9   14      0.00      0.00
   13    9   14      0.02      0.00
   14    9   14     -0.03      0.00
   15    9   14      0.01      0.00
   -6   10   14      0.13      0.00
   -5   10   14     -0.14      0.00
   -4   10   14      0.11      0.00
   -3   10   14     -0.05      0.00
   -2   10   14     -0.01      0.00
   -1   10   14      0.06      0.00
    0   10   14     -0.08      0.00
    1   10   14      0.06      0.00
    2   10   14      0.01      0.00
    3   10   14     -0.12      0.00
    4   10   14      0.21      0.00
    5   10   14     -0.27      0.00
    6   10   14      0.28      0.00
    7   10   14     -0.24      0.00
    8   10   14      0.15      0.00
    9   10   14     -0.05      0.00
   10   10   14      0.01      0.00
   11   10   14     -0.04      0.00
   12   10   14      0.09      0.00
   13   10   14     -0.10      0.00
   14   10   14      0.08      0.00
   -5   11   14      0.08      0.00
   -4   11   14     -0.10      0.00
   -3   11   14      0.10      0.00
   -2   11   14     -0.07      0.00
   -1   11   14      0.04      0.00
    0   11   14      0.01      0.00
    1   11   14     -0.06      0.00
    2   11   14      0.06      0.00
    3   11   14     -0.00      0.00
    4   11   14     -0.10      0.00
    5   11   14      0.20      0.00
    6   11   14     -0.27      0.00
    7   11   14      0.29      0.00
    8   11   14     -0.25      0.00
    9   11   14      0.16      0.00
   10   11   14     -0.09      0.00
   11   11   14      0.09      0.00
   12   11   14     -0.14      0.00
   13   11   14      0.18      0.00
   14   11   14     -0.16      0.00
   -4   12   14      0.06      0.00
   -3   12   14     -0.10      0.00
   -2   12   14      0.10      0.00
   -1   12   14     -0.09      0.00
    0   12   14      0.06      0.00
    1   12   14     -0.01      0.00
    2   12   14     -0.04      0.00
    3   12   14      0.04      0.00
    4   12   14      0.03      0.00
    5   12   14     -0.12      0.00
    6   12   14      0.19      0.00
    7   12   14     -0.25      0.00
    8   12   14      0.28      0.00
    9   12   14     -0.27      0.00
   10   12   14      0.20      0.00
   11   12   14     -0.13      0.00
   12   12   14      0.12      0.00
   13   12   14     -0.15      0.00
   14   12   14      0.15      0.00
   -3   13   14      0.06      0.00
   -2   13   14     -0.08      0.00
   -1   13   14      0.08      0.00
    0   13   14     -0.07      0.00
    1   13   14      0.06      0.00
    2   13   14     -0.03      0.00
    3   13   14      0.00      0.00
    4   13   14     -0.02      0.00
    5   13   14      0.08      0.00
    6   13   14     -0.14      0.00
    7   13   14      0.18      0.00
    8   13   14     -0.23      0.00
    9   13   14      0.29      0.00
   10   13   14     -0.29      0.00
   11   13   14      0.20      0.00
   12   13   14     -0.10      0.00
   13   13   14      0.06      0.00
   -1   14   14     -0.03      0.00
    0   14   14      0.05      0.00
    1   14   14     -0.07      0.00
    2   14   14      0.08      0.00
    3   14   14     -0.06      0.00
    4   14   14      0.04      0.00
    5   14   14     -0.07      0.00
    6   14   14      0.12      0.00
    7   14   14     -0.15      0.00
    8   14   14      0.18      0.00
    9   14   14     -0.23      0.00
   10   14   14      0.28      0.00
   11   14   14     -0.24      0.00
   12   14   14      0.13      0.00
    1   15   14      0.06      0.00
    2   15   14     -0.08      0.00
    3   15   14      0.08      0.00
    4   15   14     -0.06      0.00
    5   15   14      0.06      0.00
    6   15   14     -0.10      0.00
    7   15   14      0.15      0.00
    8   15   14     -0.17      0.00
    9   15   14      0.17      0.00
   10   15   14     -0.19      0.00
   11   15   14      0.20      0.00
    4   16   14      0.04      0.00
    5   16   14     -0.04      0.00
    6   16   14      0.07      0.00
    7   16   14     -0.12      0.00
    8   16   14      0.14      0.00
   -6   -9   15      0.02      0.00
   -5   -9   15      0.02      0.00
   -4   -9   15     -0.04      0.00
   -3   -9   15      0.04      0.00
   -2   -9   15     -0.06      0.00
   -1   -9   15      0.08      0.00
    0   -9   15     -0.06      0.00
    1   -9   15     -0.02      0.00
   -8   -8   15     -0.04      0.00
   -7   -8   15      0.07      0.00
   -6   -8   15     -0.09      0.00
   -5   -8   15      0.07      0.00
   -4   -8   15     -0.04      0.00
   -3   -8   15      0.02      0.00
   -2   -8   15      0.00      0.00
   -1   -8   15     -0.06      0.00
    0   -8   15      0.10      0.00
    1   -8   15     -0.05      0.00
    2   -8   15     -0.06      0.00
    3   -8   15      0.12      0.00
   -9   -7   15     -0.02      0.00
   -8   -7   15      0.02      0.00
   -7   -7   15     -0.04      0.00
   -6   -7   15      0.09      0.00
   -5   -7   15     -0.11      0.00
   -4   -7   15      0.08      0.00
   -3   -7   15     -0.05      0.00
   -2   -7   15      0.01      0.00
   -1   -7   15      0.04      0.00
    0   -7   15     -0.12      0.00
    1   -7   15      0.13      0.00
    2   -7   15     -0.02      0.00
    3   -7   15     -0.11      0.00
    4   -7   15      0.14      0.00
  -10   -6   15     -0.01      0.00
   -9   -6   15      0.01      0.00
   -8   -6   15      0.02      0.00
   -7   -6   15     -0.03      0.00
   -6   -6   15     -0.01      0.00
   -5   -6   15      0.06      0.00
   -4   -6   15     -0.07      0.00
   -3   -6   15      0.02      0.00
   -2   -6   15      0.04      0.00
   -1   -6   15     -0.08      0.00
    0   -6   15      0.12      0.00
    1   -6   15     -0.14      0.00
    2   -6   15      0.09      0.00
    3   -6   15      0.03      0.00
    4   -6   15     -0.12      0.00
    5   -6   15      0.09      0.00
    6   -6   15      0.03      0.00
  -11   -5   15     -0.07      0.00
  -10   -5   15      0.04      0.00
   -9   -5   15     -0.00      0.00
   -8   -5   15     -0.05      0.00
   -7   -5   15      0.09      0.00
   -6   -5   15     -0.08      0.00
   -5   -5   15      0.02      0.00
   -4   -5   15      0.03      0.00
   -3   -5   15      0.00      0.00
   -2   -5   15     -0.07      0.00
   -1   -5   15      0.12      0.00
    0   -5   15     -0.12      0.00
    1   -5   15      0.11      0.00
    2   -5   15     -0.09      0.00
    3   -5   15      0.04      0.00
    4   -5   15      0.05      0.00
    5   -5   15     -0.08      0.00
    6   -5   15     -0.00      0.00
    7   -5   15      0.11      0.00
    8   -5   15     -0.14      0.00
  -11   -4   15      0.15      0.00
  -10   -4   15     -0.11      0.00
   -9   -4   15      0.03      0.00
   -8   -4   15      0.04      0.00
   -7   -4   15     -0.09      0.00
   -6   -4   15      0.11      0.00
   -5   -4   15     -0.07      0.00
   -4   -4   15      0.00      0.00
   -3   -4   15      0.02      0.00
   -2   -4   15      0.03      0.00
   -1   -4   15     -0.09      0.00
    0   -4   15      0.10      0.00
    1   -4   15     -0.07      0.00
    2   -4   15      0.06      0.00
    3   -4   15     -0.06      0.00
    4   -4   15      0.03      0.00
    5   -4   15      0.02      0.00
    6   -4   15     -0.03      0.00
    7   -4   15     -0.05      0.00
    8   -4   15      0.13      0.00
    9   -4   15     -0.14      0.00
  -11   -3   15     -0.16      0.00
  -10   -3   15      0.15      0.00
   -9   -3   15     -0.08      0.00
   -8   -3   15      0.00      0.00
   -7   -3   15      0.06      0.00
   -6   -3   15     -0.09      0.00
   -5   -3   15      0.08      0.00
   -4   -3   15     -0.03      0.00
   -3   -3   15     -0.03      0.00
   -2   -3   15      0.04      0.00
   -1   -3   15     -0.00      0.00
    0   -3   15     -0.03      0.00
    1   -3   15      0.03      0.00
    2   -3   15     -0.04      0.00
    3   -3   15      0.07      0.00
    4   -3   15     -0.09      0.00
    5   -3   15      0.05      0.00
    6   -3   15      0.02      0.00
    7   -3   15     -0.03      0.00
    8   -3   15     -0.05      0.00
    9   -3   15      0.13      0.00
  -11   -2   15      0.11      0.00
  -10   -2   15     -0.11      0.00
   -9   -2   15      0.08      0.00
   -8   -2   15     -0.03      0.00
   -7   -2   15     -0.03      0.00
   -6   -2   15      0.06      0.00
   -5   -2   15     -0.08      0.00
   -4   -2   15      0.06      0.00
   -3   -2   15     -0.01      0.00
   -2   -2   15     -0.03      0.00
   -1   -2   15      0.04      0.00
    0   -2   15     -0.01      0.00
    1   -2   15     -0.01      0.00
    2   -2   15      0.03      0.00
    3   -2   15     -0.07      0.00
    4   -2   15      0.10      0.00
    5   -2   15     -0.09      0.00
    6   -2   15      0.02      0.00
    7   -2   15      0.05      0.00
    8   -2   15     -0.03      0.00
    9   -2   15     -0.06      0.00
   10   -2   15      0.12      0.00
  -11   -1   15     -0.03      0.00
  -10   -1   15      0.04      0.00
   -9   -1   15     -0.03      0.00
   -8   -1   15     -0.00      0.00
   -7   -1   15      0.05      0.00
   -6   -1   15     -0.08      0.00
   -5   -1   15      0.08      0.00
   -4   -1   15     -0.08      0.00
   -3   -1   15      0.07      0.00
   -2   -1   15     -0.06      0.00
   -1   -1   15      0.04      0.00
    0   -1   15     -0.02      0.00
    1   -1   15      0.01      0.00
    2   -1   15     -0.02      0.00
    3   -1   15      0.04      0.00
    4   -1   15     -0.06      0.00
    5   -1   15      0.07      0.00
    6   -1   15     -0.04      0.00
    7   -1   15     -0.01      0.00
    8   -1   15      0.05      0.00
    9   -1   15     -0.00      0.00
   10   -1   15     -0.07      0.00
   11   -1   15      0.11      0.00
  -11    0   15      0.00      0.00
  -10    0   15      0.02      0.00
   -9    0   15     -0.06      0.00
   -8    0   15      0.09      0.00
   -7    0   15     -0.11      0.00
   -6    0   15      0.12      0.00
   -5    0   15     -0.10      0.00
   -4    0   15      0.06      0.00
   -3    0   15     -0.06      0.00
   -2    0   15      0.09      0.00
   -1    0   15     -0.12      0.00
    0    0   15      0.10      0.00
    1    0   15     -0.05      0.00
    2    0   15      0.01      0.00
    3    0   15      0.00      0.00
    4    0   15     -0.01      0.00
    5    0   15      0.00      0.00
    6    0   15      0.02      0.00
    7    0   15     -0.03      0.00
    8    0   15      0.01      0.00
    9    0   15     -0.00      0.00
   10    0   15      0.03      0.00
   11    0   15     -0.08      0.00
   12    0   15      0.09      0.00
  -11    1   15     -0.01      0.00
  -10    1   15     -0.03      0.00
   -9    1   15      0.10      0.00
   -8    1   15     -0.15      0.00
   -7    1   15      0.17      0.00
   -6    1   15     -0.15      0.00
   -5    1   15      0.11      0.00
   -4    1   15     -0.04      0.00
   -3    1   15     -0.00      0.00
   -2    1   15     -0.03      0.00
   -1    1   15      0.11      0.00
    0    1   15     -0.14      0.00
    1    1   15      0.10      0.00
    2    1   15     -0.03      0.00
    3    1   15     -0.03      0.00
    4    1   15      0.07      0.00
    5    1   15     -0.09      0.00
    6    1   15      0.06      0.00
    7    1   15      0.00      0.00
    8    1   15     -0.05      0.00
    9    1   15      0.06      0.00
   10    1   15     -0.04      0.00
   11    1   15      0.05      0.00
   12    1   15     -0.07      0.00
  -10    2   15     -0.00      0.00
   -9    2   15     -0.07      0.00
   -8    2   15      0.14      0.00
   -7    2   15     -0.16      0.00
   -6    2   15      0.13      0.00
   -5    2   15     -0.09      0.00
   -4    2   15      0.02      0.00
   -3    2   15      0.04      0.00
   -2    2   15     -0.05      0.00
   -1    2   15     -0.01      0.00
    0    2   15      0.09      0.00
    1    2   15     -0.11      0.00
    2    2   15      0.05      0.00
    3    2   15      0.02      0.00
    4    2   15     -0.08      0.00
    5    2   15      0.12      0.00
    6    2   15     -0.12      0.00
    7    2   15      0.07      0.00
    8    2   15      0.01      0.00
    9    2   15     -0.07      0.00
   10    2   15      0.08      0.00
   11    2   15     -0.06      0.00
   12    2   15      0.05      0.00
   13    2   15     -0.06      0.00
  -10    3   15      0.04      0.00
   -9    3   15     -0.00      0.00
   -8    3   15     -0.06      0.00
   -7    3   15      0.08      0.00
   -6    3   15     -0.07      0.00
   -5    3   15      0.05      0.00
   -4    3   15     -0.03      0.00
   -3    3   15     -0.02      0.00
   -2    3   15      0.06      0.00
   -1    3   15     -0.06      0.00
    0    3   15     -0.00      0.00
    1    3   15      0.06      0.00
    2    3   15     -0.06      0.00
    3    3   15      0.01      0.00
    4    3   15      0.05      0.00
    5    3   15     -0.09      0.00
    6    3   15      0.13      0.00
    7    3   15     -0.13      0.00
    8    3   15      0.08      0.00
    9    3   15     -0.00      0.00
   10    3   15     -0.05      0.00
   11    3   15      0.07      0.00
   12    3   15     -0.06      0.00
   13    3   15      0.04      0.00
  -10    4   15     -0.06      0.00
   -9    4   15      0.06      0.00
   -8    4   15     -0.03      0.00
   -7    4   15     -0.01      0.00
   -6    4   15      0.02      0.00
   -5    4   15     -0.03      0.00
   -4    4   15      0.04      0.00
   -3    4   15     -0.03      0.00
   -2    4   15     -0.03      0.00
   -1    4   15      0.08      0.00
    0    4   15     -0.07      0.00
    1    4   15      0.01      0.00
    2    4   15      0.03      0.00
    3    4   15     -0.02      0.00
    4    4   15     -0.02      0.00
    5    4   15      0.05      0.00
    6    4   15     -0.08      0.00
    7    4   15      0.11      0.00
    8    4   15     -0.13      0.00
    9    4   15      0.11      0.00
   10    4   15     -0.07      0.00
   11    4   15      0.02      0.00
   12    4   15      0.02      0.00
   13    4   15     -0.02      0.00
   -9    5   15     -0.07      0.00
   -8    5   15      0.06      0.00
   -7    5   15     -0.02      0.00
   -6    5   15     -0.02      0.00
   -5    5   15      0.06      0.00
   -4    5   15     -0.07      0.00
   -3    5   15      0.05      0.00
   -2    5   15      0.02      0.00
   -1    5   15     -0.11      0.00
    0    5   15      0.14      0.00
    1    5   15     -0.09      0.00
    2    5   15      0.02      0.00
    3    5   15      0.01      0.00
    4    5   15      0.01      0.00
    5    5   15     -0.02      0.00
    6    5   15      0.03      0.00
    7    5   15     -0.06      0.00
    8    5   15      0.11      0.00
    9    5   15     -0.17      0.00
   10    5   15      0.20      0.00
   11    5   15     -0.17      0.00
   12    5   15      0.10      0.00
   13    5   15     -0.03      0.00
   14    5   15      0.01      0.00
   -9    6   15      0.05      0.00
   -8    6   15     -0.05      0.00
   -7    6   15      0.03      0.00
   -6    6   15      0.03      0.00
   -5    6   15     -0.09      0.00
   -4    6   15      0.11      0.00
   -3    6   15     -0.07      0.00
   -2    6   15     -0.03      0.00
   -1    6   15      0.14      0.00
    0    6   15     -0.20      0.00
    1    6   15      0.17      0.00
    2    6   15     -0.10      0.00
    3    6   15      0.04      0.00
    4    6   15     -0.01      0.00
    5    6   15     -0.01      0.00
    6    6   15      0.02      0.00
    7    6   15     -0.00      0.00
    8    6   15     -0.06      0.00
    9    6   15      0.15      0.00
   10    6   15     -0.22      0.00
   11    6   15      0.24      0.00
   12    6   15     -0.19      0.00
   13    6   15      0.10      0.00
   14    6   15     -0.02      0.00
   -8    7   15      0.03      0.00
   -7    7   15     -0.04      0.00
   -6    7   15      0.01      0.00
   -5    7   15      0.05      0.00
   -4    7   15     -0.09      0.00
   -3    7   15      0.08      0.00
   -2    7   15     -0.00      0.00
   -1    7   15     -0.10      0.00
    0    7   15      0.19      0.00
    1    7   15     -0.22      0.00
    2    7   15      0.18      0.00
    3    7   15     -0.11      0.00
    4    7   15      0.06      0.00
    5    7   15     -0.01      0.00
    6    7   15     -0.03      0.00
    7    7   15      0.04      0.00
    8    7   15      0.01      0.00
    9    7   15     -0.08      0.00
   10    7   15      0.14      0.00
   11    7   15     -0.16      0.00
   12    7   15      0.15      0.00
   13    7   15     -0.09      0.00
   14    7   15      0.01      0.00
   -7    8   15      0.06      0.00
   -6    8   15     -0.07      0.00
   -5    8   15      0.03      0.00
   -4    8   15      0.02      0.00
   -3    8   15     -0.06      0.00
   -2    8   15      0.05      0.00
   -1    8   15      0.00      0.00
    0    8   15     -0.08      0.00
    1    8   15      0.16      0.00
    2    8   15     -0.19      0.00
    3    8   15      0.18      0.00
    4    8   15     -0.13      0.00
    5    8   15      0.08      0.00
    6    8   15     -0.03      0.00
    7    8   15     -0.01      0.00
    8    8   15      0.01      0.00
    9    8   15      0.02      0.00
   10    8   15     -0.04      0.00
   11    8   15      0.04      0.00
   12    8   15     -0.02      0.00
   13    8   15     -0.00      0.00
   14    8   15      0.03      0.00
   -7    9   15     -0.07      0.00
   -6    9   15      0.10      0.00
   -5    9   15     -0.10      0.00
   -4    9   15      0.05      0.00
   -3    9   15      0.02      0.00
   -2    9   15     -0.06      0.00
   -1    9   15      0.08      0.00
    0    9   15     -0.05      0.00
    1    9   15     -0.03      0.00
    2    9   15      0.11      0.00
    3    9   15     -0.16      0.00
    4    9   15      0.18      0.00
    5    9   15     -0.17      0.00
    6    9   15      0.15      0.00
    7    9   15     -0.11      0.00
    8    9   15      0.05      0.00
    9    9   15      0.00      0.00
   10    9   15     -0.02      0.00
   11    9   15      0.02      0.00
   12    9   15     -0.04      0.00
   13    9   15      0.05      0.00
   14    9   15     -0.06      0.00
   -6   10   15     -0.08      0.00
   -5   10   15      0.10      0.00
   -4   10   15     -0.08      0.00
   -3   10   15      0.03      0.00
   -2   10   15      0.02      0.00
   -1   10   15     -0.06      0.00
    0   10   15      0.09      0.00
    1   10   15     -0.07      0.00
    2   10   15      0.02      0.00
    3   10   15      0.06      0.00
    4   10   15     -0.13      0.00
    5   10   15      0.19      0.00
    6   10   15     -0.24      0.00
    7   10   15      0.24      0.00
    8   10   15     -0.17      0.00
    9   10   15      0.06      0.00
   10   10   15      0.02      0.00
   11   10   15     -0.02      0.00
   12   10   15     -0.01      0.00
   13   10   15      0.02      0.00
   14   10   15      0.01      0.00
   -5   11   15     -0.05      0.00
   -4   11   15      0.06      0.00
   -3   11   15     -0.06      0.00
   -2   11   15      0.04      0.00
   -1   11   15     -0.02      0.00
    0   11   15     -0.02      0.00
    1   11   15      0.07      0.00
    2   11   15     -0.08      0.00
    3   11   15      0.04      0.00
    4   11   15      0.04      0.00
    5   11   15     -0.13      0.00
    6   11   15      0.22      0.00
    7   11   15     -0.28      0.00
    8   11   15      0.28      0.00
    9   11   15     -0.18      0.00
   10   11   15      0.06      0.00
   11   11   15     -0.02      0.00
   12   11   15      0.06      0.00
   13   11   15     -0.11      0.00
   14   11   15      0.11      0.00
   -4   12   15     -0.05      0.00
   -3   12   15      0.08      0.00
   -2   12   15     -0.09      0.00
   -1   12   15      0.08      0.00
    0   12   15     -0.05      0.00
    1   12   15     -0.00      0.00
    2   12   15      0.06      0.00
    3   12   15     -0.07      0.00
    4   12   15      0.02      0.00
    5   12   15      0.06      0.00
    6   12   15     -0.14      0.00
    7   12   15      0.21      0.00
    8   12   15     -0.27      0.00
    9   12   15      0.27      0.00
   10   12   15     -0.19      0.00
   11   12   15      0.09      0.00
   12   12   15     -0.07      0.00
   13   12   15      0.11      0.00
   -2   13   15      0.10      0.00
   -1   13   15     -0.10      0.00
    0   13   15      0.08      0.00
    1   13   15     -0.06      0.00
    2   13   15      0.01      0.00
    3   13   15      0.02      0.00
    4   13   15     -0.01      0.00
    5   13   15     -0.05      0.00
    6   13   15      0.09      0.00
    7   13   15     -0.13      0.00
    8   13   15      0.18      0.00
    9   13   15     -0.26      0.00
   10   13   15      0.27      0.00
   11   13   15     -0.19      0.00
   12   13   15      0.08      0.00
   13   13   15     -0.04      0.00
   -1   14   15      0.08      0.00
    0   14   15     -0.08      0.00
    1   14   15      0.08      0.00
    2   14   15     -0.07      0.00
    3   14   15      0.05      0.00
    4   14   15     -0.05      0.00
    5   14   15      0.08      0.00
    6   14   15     -0.11      0.00
    7   14   15      0.11      0.00
    8   14   15     -0.12      0.00
    9   14   15      0.18      0.00
   10   14   15     -0.25      0.00
   11   14   15      0.25      0.00
   12   14   15     -0.14      0.00
    1   15   15     -0.07      0.00
    2   15   15      0.09      0.00
    3   15   15     -0.09      0.00
    4   15   15      0.09      0.00
    5   15   15     -0.10      0.00
    6   15   15      0.12      0.00
    7   15   15     -0.14      0.00
    8   15   15      0.12      0.00
    9   15   15     -0.12      0.00
   10   15   15      0.16      0.00
   11   15   15     -0.20      0.00
    5   16   15      0.07      0.00
    6   16   15     -0.10      0.00
    7   16   15      0.13      0.00
    8   16   15     -0.13      0.00
   -4   -9   16      0.08      0.00
   -3   -9   16     -0.05      0.00
   -2   -9   16      0.05      0.00
   -1   -9   16     -0.07      0.00
   -7   -8   16     -0.09      0.00
   -6   -8   16      0.07      0.00
   -5   -8   16     -0.01      0.00
   -4   -8   16     -0.03      0.00
   -3   -8   16      0.02      0.00
   -2   -8   16     -0.00      0.00
   -1   -8   16      0.04      0.00
    0   -8   16     -0.09      0.00
    1   -8   16      0.07      0.00
    2   -8   16      0.02      0.00
   -8   -7   16     -0.03      0.00
   -7   -7   16      0.07      0.00
   -6   -7   16     -0.11      0.00
   -5   -7   16      0.09      0.00
   -4   -7   16     -0.05      0.00
   -3   -7   16      0.03      0.00
   -2   -7   16     -0.03      0.00
   -1   -7   16     -0.01      0.00
    0   -7   16      0.09      0.00
    1   -7   16     -0.13      0.00
    2   -7   16      0.05      0.00
    3   -7   16      0.08      0.00
    4   -7   16     -0.12      0.00
   -9   -6   16      0.01      0.00
   -8   -6   16     -0.02      0.00
   -7   -6   16      0.01      0.00
   -6   -6   16      0.04      0.00
   -5   -6   16     -0.09      0.00
   -4   -6   16      0.08      0.00
   -3   -6   16     -0.03      0.00
   -2   -6   16      0.00      0.00
   -1   -6   16      0.02      0.00
    0   -6   16     -0.08      0.00
    1   -6   16      0.14      0.00
    2   -6   16     -0.12      0.00
    3   -6   16     -0.01      0.00
    4   -6   16      0.13      0.00
    5   -6   16     -0.12      0.00
  -10   -5   16     -0.01      0.00
   -9   -5   16     -0.01      0.00
   -8   -5   16      0.05      0.00
   -7   -5   16     -0.08      0.00
   -6   -5   16      0.06      0.00
   -5   -5   16      0.00      0.00
   -4   -5   16     -0.05      0.00
   -3   -5   16      0.03      0.00
   -2   -5   16      0.03      0.00
   -1   -5   16     -0.07      0.00
    0   -5   16      0.08      0.00
    1   -5   16     -0.11      0.00
    2   -5   16      0.12      0.00
    3   -5   16     -0.05      0.00
    4   -5   16     -0.06      0.00
    5   -5   16      0.11      0.00
    6   -5   16     -0.04      0.00
  -10   -4   16      0.08      0.00
   -9   -4   16     -0.03      0.00
   -8   -4   16     -0.04      0.00
   -7   -4   16      0.10      0.00
   -6   -4   16     -0.12      0.00
   -5   -4   16      0.08      0.00
   -4   -4   16     -0.00      0.00
   -3   -4   16     -0.03      0.00
   -2   -4   16     -0.01      0.00
   -1   -4   16      0.06      0.00
    0   -4   16     -0.07      0.00
    1   -4   16      0.06      0.00
    2   -4   16     -0.07      0.00
    3   -4   16      0.08      0.00
    4   -4   16     -0.04      0.00
    5   -4   16     -0.02      0.00
    6   -4   16      0.03      0.00
    7   -4   16      0.03      0.00
    8   -4   16     -0.11      0.00
  -11   -3   16      0.14      0.00
  -10   -3   16     -0.14      0.00
   -9   -3   16      0.09      0.00
   -8   -3   16     -0.02      0.00
   -7   -3   16     -0.05      0.00
   -6   -3   16      0.10      0.00
   -5   -3   16     -0.10      0.00
   -4   -3   16      0.04      0.00
   -3   -3   16      0.02      0.00
   -2   -3   16     -0.04      0.00
   -1   -3   16      0.01      0.00
    0   -3   16      0.02      0.00
    1   -3   16     -0.02      0.00
    2   -3   16      0.03      0.00
    3   -3   16     -0.07      0.00
    4   -3   16      0.11      0.00
    5   -3   16     -0.08      0.00
    6   -3   16      0.02      0.00
    7   -3   16     -0.00      0.00
    8   -3   16      0.06      0.00
    9   -3   16     -0.11      0.00
  -11   -2   16     -0.10      0.00
  -10   -2   16      0.14      0.00
   -9   -2   16     -0.12      0.00
   -8   -2   16      0.07      0.00
   -7   -2   16     -0.01      0.00
   -6   -2   16     -0.05      0.00
   -5   -2   16      0.07      0.00
   -4   -2   16     -0.06      0.00
   -3   -2   16      0.01      0.00
   -2   -2   16      0.03      0.00
   -1   -2   16     -0.04      0.00
    0   -2   16      0.02      0.00
    1   -2   16     -0.00      0.00
    2   -2   16     -0.02      0.00
    3   -2   16      0.07      0.00
    4   -2   16     -0.13      0.00
    5   -2   16      0.14      0.00
    6   -2   16     -0.07      0.00
    7   -2   16     -0.01      0.00
    8   -2   16      0.01      0.00
    9   -2   16      0.06      0.00
   10   -2   16     -0.11      0.00
  -11   -1   16      0.03      0.00
  -10   -1   16     -0.06      0.00
   -9   -1   16      0.07      0.00
   -8   -1   16     -0.05      0.00
   -7   -1   16      0.01      0.00
   -6   -1   16      0.03      0.00
   -5   -1   16     -0.05      0.00
   -4   -1   16      0.06      0.00
   -3   -1   16     -0.05      0.00
   -2   -1   16      0.03      0.00
   -1   -1   16     -0.01      0.00
    0   -1   16     -0.00      0.00
    1   -1   16     -0.01      0.00
    2   -1   16      0.03      0.00
    3   -1   16     -0.06      0.00
    4   -1   16      0.09      0.00
    5   -1   16     -0.12      0.00
    6   -1   16      0.09      0.00
    7   -1   16     -0.02      0.00
    8   -1   16     -0.03      0.00
    9   -1   16     -0.01      0.00
   10   -1   16      0.08      0.00
   11   -1   16     -0.10      0.00
  -10    0   16     -0.02      0.00
   -9    0   16      0.03      0.00
   -8    0   16     -0.05      0.00
   -7    0   16      0.07      0.00
   -6    0   16     -0.09      0.00
   -5    0   16      0.08      0.00
   -4    0   16     -0.05      0.00
   -3    0   16      0.04      0.00
   -2    0   16     -0.07      0.00
   -1    0   16      0.09      0.00
    0    0   16     -0.08      0.00
    1    0   16      0.05      0.00
    2    0   16     -0.04      0.00
    3    0   16      0.04      0.00
    4    0   16     -0.04      0.00
    5    0   16      0.04      0.00
    6    0   16     -0.05      0.00
    7    0   16      0.04      0.00
    8    0   16     -0.02      0.00
    9    0   16      0.01      0.00
   10    0   16     -0.05      0.00
   11    0   16      0.09      0.00
  -10    1   16      0.05      0.00
   -9    1   16     -0.10      0.00
   -8    1   16      0.15      0.00
   -7    1   16     -0.18      0.00
   -6    1   16      0.17      0.00
   -5    1   16     -0.12      0.00
   -4    1   16      0.04      0.00
   -3    1   16      0.01      0.00
   -2    1   16      0.02      0.00
   -1    1   16     -0.09      0.00
    0    1   16      0.13      0.00
    1    1   16     -0.11      0.00
    2    1   16      0.06      0.00
    3    1   16     -0.03      0.00
    4    1   16     -0.00      0.00
    5    1   16      0.03      0.00
    6    1   16     -0.03      0.00
    7    1   16     -0.01      0.00
    8    1   16      0.05      0.00
    9    1   16     -0.06      0.00
   10    1   16      0.06      0.00
   11    1   16     -0.06      0.00
   12    1   16      0.08      0.00
  -10    2   16     -0.02      0.00
   -9    2   16      0.10      0.00
   -8    2   16     -0.18      0.00
   -7    2   16      0.21      0.00
   -6    2   16     -0.19      0.00
   -5    2   16      0.13      0.00
   -4    2   16     -0.05      0.00
   -3    2   16     -0.03      0.00
   -2    2   16      0.04      0.00
   -1    2   16      0.02      0.00
    0    2   16     -0.10      0.00
    1    2   16      0.12      0.00
    2    2   16     -0.08      0.00
    3    2   16      0.03      0.00
    4    2   16      0.01      0.00
    5    2   16     -0.06      0.00
    6    2   16      0.08      0.00
    7    2   16     -0.05      0.00
    8    2   16     -0.03      0.00
    9    2   16      0.09      0.00
   10    2   16     -0.10      0.00
   11    2   16      0.08      0.00
   12    2   16     -0.06      0.00
   -9    3   16     -0.04      0.00
   -8    3   16      0.11      0.00
   -7    3   16     -0.15      0.00
   -6    3   16      0.13      0.00
   -5    3   16     -0.09      0.00
   -4    3   16      0.05      0.00
   -3    3   16      0.00      0.00
   -2    3   16     -0.04      0.00
   -1    3   16      0.03      0.00
    0    3   16      0.03      0.00
    1    3   16     -0.08      0.00
    2    3   16      0.07      0.00
    3    3   16     -0.04      0.00
    4    3   16      0.00      0.00
    5    3   16      0.04      0.00
    6    3   16     -0.09      0.00
    7    3   16      0.09      0.00
    8    3   16     -0.04      0.00
    9    3   16     -0.05      0.00
   10    3   16      0.10      0.00
   11    3   16     -0.10      0.00
   12    3   16      0.07      0.00
   13    3   16     -0.05      0.00
   -9    4   16     -0.03      0.00
   -8    4   16     -0.02      0.00
   -7    4   16      0.05      0.00
   -6    4   16     -0.04      0.00
   -5    4   16      0.03      0.00
   -4    4   16     -0.04      0.00
   -3    4   16      0.04      0.00
   -2    4   16     -0.01      0.00
   -1    4   16     -0.03      0.00
    0    4   16      0.02      0.00
    1    4   16      0.02      0.00
    2    4   16     -0.04      0.00
    3    4   16      0.02      0.00
    4    4   16      0.00      0.00
    5    4   16     -0.02      0.00
    6    4   16      0.05      0.00
    7    4   16     -0.08      0.00
    8    4   16      0.08      0.00
    9    4   16     -0.04      0.00
   10    4   16     -0.02      0.00
   11    4   16      0.06      0.00
   12    4   16     -0.06      0.00
   13    4   16      0.04      0.00
   -9    5   16      0.07      0.00
   -8    5   16     -0.04      0.00
   -7    5   16      0.00      0.00
   -6    5   16      0.02      0.00
   -5    5   16     -0.03      0.00
   -4    5   16      0.05      0.00
   -3    5   16     -0.07      0.00
   -2    5   16      0.04      0.00
   -1    5   16      0.03      0.00
    0    5   16     -0.08      0.00
    1    5   16      0.06      0.00
    2    5   16     -0.02      0.00
    3    5   16      0.01      0.00
    4    5   16     -0.02      0.00
    5    5   16      0.02      0.00
    6    5   16     -0.01      0.00
    7    5   16      0.03      0.00
    8    5   16     -0.07      0.00
    9    5   16      0.10      0.00
   10    5   16     -0.09      0.00
   11    5   16      0.06      0.00
   12    5   16     -0.02      0.00
   13    5   16     -0.00      0.00
   -8    6   16      0.04      0.00
   -7    6   16      0.00      0.00
   -6    6   16     -0.04      0.00
   -5    6   16      0.07      0.00
   -4    6   16     -0.09      0.00
   -3    6   16      0.09      0.00
   -2    6   16     -0.03      0.00
   -1    6   16     -0.06      0.00
    0    6   16      0.14      0.00
    1    6   16     -0.14      0.00
    2    6   16      0.09      0.00
    3    6   16     -0.05      0.00
    4    6   16      0.03      0.00
    5    6   16     -0.01      0.00
    6    6   16     -0.02      0.00
    7    6   16      0.02      0.00
    8    6   16      0.03      0.00
    9    6   16     -0.10      0.00
   10    6   16      0.16      0.00
   11    6   16     -0.17      0.00
   12    6   16      0.13      0.00
   13    6   16     -0.07      0.00
   -8    7   16     -0.01      0.00
   -7    7   16     -0.02      0.00
   -6    7   16      0.06      0.00
   -5    7   16     -0.09      0.00
   -4    7   16      0.10      0.00
   -3    7   16     -0.09      0.00
   -2    7   16      0.03      0.00
   -1    7   16      0.06      0.00
    0    7   16     -0.16      0.00
    1    7   16      0.19      0.00
    2    7   16     -0.15      0.00
    3    7   16      0.09      0.00
    4    7   16     -0.05      0.00
    5    7   16      0.02      0.00
    6    7   16      0.03      0.00
    7    7   16     -0.06      0.00
    8    7   16      0.02      0.00
    9    7   16      0.07      0.00
   10    7   16     -0.15      0.00
   11    7   16      0.17      0.00
   12    7   16     -0.15      0.00
   13    7   16      0.10      0.00
   14    7   16     -0.04      0.00
   -7    8   16      0.01      0.00
   -6    8   16     -0.02      0.00
   -5    8   16      0.04      0.00
   -4    8   16     -0.05      0.00
   -3    8   16      0.05      0.00
   -2    8   16     -0.04      0.00
   -1    8   16     -0.01      0.00
    0    8   16      0.08      0.00
    1    8   16     -0.14      0.00
    2    8   16      0.16      0.00
    3    8   16     -0.12      0.00
    4    8   16      0.08      0.00
    5    8   16     -0.05      0.00
    6    8   16      0.01      0.00
    7    8   16      0.03      0.00
    8    8   16     -0.03      0.00
    9    8   16     -0.02      0.00
   10    8   16      0.08      0.00
   11    8   16     -0.10      0.00
   12    8   16      0.07      0.00
   13    8   16     -0.02      0.00
   14    8   16     -0.02      0.00
   -6    9   16     -0.02      0.00
   -5    9   16      0.03      0.00
   -4    9   16     -0.02      0.00
   -3    9   16      0.00      0.00
   -2    9   16      0.02      0.00
   -1    9   16     -0.04      0.00
    0    9   16      0.02      0.00
    1    9   16      0.03      0.00
    2    9   16     -0.09      0.00
    3    9   16      0.11      0.00
    4    9   16     -0.10      0.00
    5    9   16      0.09      0.00
    6    9   16     -0.09      0.00
    7    9   16      0.07      0.00
    8    9   16     -0.03      0.00
    9    9   16      0.00      0.00
   10    9   16     -0.01      0.00
   11    9   16      0.02      0.00
   12    9   16      0.01      0.00
   13    9   16     -0.05      0.00
   14    9   16      0.08      0.00
   -5   10   16     -0.04      0.00
   -4   10   16      0.04      0.00
   -3   10   16     -0.03      0.00
   -2   10   16      0.01      0.00
   -1   10   16      0.03      0.00
    0   10   16     -0.06      0.00
    1   10   16      0.06      0.00
    2   10   16     -0.01      0.00
    3   10   16     -0.04      0.00
    4   10   16      0.07      0.00
    5   10   16     -0.11      0.00
    6   10   16      0.16      0.00
    7   10   16     -0.20      0.00
    8   10   16      0.16      0.00
    9   10   16     -0.07      0.00
   10   10   16     -0.01      0.00
   11   10   16      0.03      0.00
   12   10   16     -0.02      0.00
   13   10   16      0.03      0.00
   14   10   16     -0.06      0.00
   -4   11   16     -0.02      0.00
   -3   11   16      0.03      0.00
   -2   11   16     -0.03      0.00
   -1   11   16      0.02      0.00
    0   11   16      0.01      0.00
    1   11   16     -0.05      0.00
    2   11   16      0.06      0.00
    3   11   16     -0.04      0.00
    4   11   16     -0.00      0.00
    5   11   16      0.07      0.00
    6   11   16     -0.15      0.00
    7   11   16      0.25      0.00
    8   11   16     -0.27      0.00
    9   11   16      0.19      0.00
   10   11   16     -0.05      0.00
   11   11   16     -0.03      0.00
   12   11   16      0.01      0.00
   13   11   16      0.04      0.00
   -3   12   16     -0.02      0.00
   -2   12   16      0.04      0.00
   -1   12   16     -0.05      0.00
    0   12   16      0.05      0.00
    1   12   16     -0.01      0.00
    2   12   16     -0.04      0.00
    3   12   16      0.07      0.00
    4   12   16     -0.04      0.00
    5   12   16     -0.01      0.00
    6   12   16      0.09      0.00
    7   12   16     -0.18      0.00
    8   12   16      0.26      0.00
    9   12   16     -0.27      0.00
   10   12   16      0.16      0.00
   11   12   16     -0.04      0.00
   12   12   16     -0.00      0.00
   13   12   16     -0.04      0.00
   -2   13   16     -0.07      0.00
   -1   13   16      0.07      0.00
    0   13   16     -0.07      0.00
    1   13   16      0.06      0.00
    2   13   16     -0.01      0.00
    3   13   16     -0.03      0.00
    4   13   16      0.03      0.00
    5   13   16      0.01      0.00
    6   13   16     -0.05      0.00
    7   13   16      0.09      0.00
    8   13   16     -0.16      0.00
    9   13   16      0.23      0.00
   10   13   16     -0.24      0.00
   11   13   16      0.15      0.00
   12   13   16     -0.04      0.00
   13   13   16     -0.00      0.00
    0   14   16      0.07      0.00
    1   14   16     -0.06      0.00
    2   14   16      0.06      0.00
    3   14   16     -0.04      0.00
    4   14   16      0.03      0.00
    5   14   16     -0.05      0.00
    6   14   16      0.08      0.00
    7   14   16     -0.07      0.00
    8   14   16      0.07      0.00
    9   14   16     -0.13      0.00
   10   14   16      0.21      0.00
   11   14   16     -0.21      0.00
   12   14   16      0.11      0.00
    2   15   16     -0.07      0.00
    3   15   16      0.07      0.00
    4   15   16     -0.08      0.00
    5   15   16      0.09      0.00
    6   15   16     -0.12      0.00
    7   15   16      0.11      0.00
    8   15   16     -0.07      0.00
    9   15   16      0.06      0.00
   10   15   16     -0.11      0.00
   -4   -8   17      0.07      0.00
   -3   -8   17     -0.04      0.00
   -2   -8   17     -0.00      0.00
   -1   -8   17     -0.02      0.00
    0   -8   17      0.08      0.00
    1   -8   17     -0.07      0.00
   -7   -7   17     -0.07      0.00
   -6   -7   17      0.09      0.00
   -5   -7   17     -0.05      0.00
   -4   -7   17     -0.01      0.00
   -3   -7   17      0.01      0.00
   -2   -7   17      0.02      0.00
   -1   -7   17     -0.01      0.00
    0   -7   17     -0.07      0.00
    1   -7   17      0.12      0.00
    2   -7   17     -0.07      0.00
    3   -7   17     -0.03      0.00
   -8   -6   17      0.03      0.00
   -7   -6   17      0.00      0.00
   -6   -6   17     -0.05      0.00
   -5   -6   17      0.07      0.00
   -4   -6   17     -0.05      0.00
   -3   -6   17      0.01      0.00
   -2   -6   17     -0.01      0.00
   -1   -6   17      0.01      0.00
    0   -6   17      0.05      0.00
    1   -6   17     -0.13      0.00
    2   -6   17      0.13      0.00
    3   -6   17     -0.02      0.00
    4   -6   17     -0.10      0.00
   -9   -5   17      0.03      0.00
   -8   -5   17     -0.06      0.00
   -7   -5   17      0.07      0.00
   -6   -5   17     -0.05      0.00
   -5   -5   17     -0.01      0.00
   -4   -5   17      0.04      0.00
   -3   -5   17     -0.02      0.00
   -2   -5   17     -0.01      0.00
   -1   -5   17      0.02      0.00
    0   -5   17     -0.04      0.00
    1   -5   17      0.10      0.00
    2   -5   17     -0.13      0.00
    3   -5   17      0.07      0.00
    4   -5   17      0.05      0.00
    5   -5   17     -0.12      0.00
    6   -5   17      0.08      0.00
  -10   -4   17     -0.04      0.00
   -9   -4   17      0.01      0.00
   -8   -4   17      0.04      0.00
   -7   -4   17     -0.10      0.00
   -6   -4   17      0.12      0.00
   -5   -4   17     -0.08      0.00
   -4   -4   17      0.01      0.00
   -3   -4   17      0.02      0.00
   -2   -4   17      0.00      0.00
   -1   -4   17     -0.04      0.00
    0   -4   17      0.04      0.00
    1   -4   17     -0.04      0.00
    2   -4   17      0.06      0.00
    3   -4   17     -0.08      0.00
    4   -4   17      0.04      0.00
    5   -4   17      0.03      0.00
    6   -4   17     -0.04      0.00
    7   -4   17     -0.01      0.00
  -10   -3   17      0.10      0.00
   -9   -3   17     -0.08      0.00
   -8   -3   17      0.02      0.00
   -7   -3   17      0.04      0.00
   -6   -3   17     -0.10      0.00
   -5   -3   17      0.10      0.00
   -4   -3   17     -0.06      0.00
   -3   -3   17     -0.01      0.00
   -2   -3   17      0.03      0.00
   -1   -3   17     -0.00      0.00
    0   -3   17     -0.01      0.00
    1   -3   17      0.00      0.00
    2   -3   17     -0.00      0.00
    3   -3   17      0.05      0.00
    4   -3   17     -0.10      0.00
    5   -3   17      0.09      0.00
    6   -3   17     -0.04      0.00
    7   -3   17      0.02      0.00
    8   -3   17     -0.05      0.00
  -10   -2   17     -0.12      0.00
   -9   -2   17      0.13      0.00
   -8   -2   17     -0.10      0.00
   -7   -2   17      0.04      0.00
   -6   -2   17      0.02      0.00
   -5   -2   17     -0.06      0.00
   -4   -2   17      0.06      0.00
   -3   -2   17     -0.02      0.00
   -2   -2   17     -0.03      0.00
   -1   -2   17      0.04      0.00
    0   -2   17     -0.03      0.00
    1   -2   17      0.02      0.00
    2   -2   17     -0.01      0.00
    3   -2   17     -0.03      0.00
    4   -2   17      0.11      0.00
    5   -2   17     -0.15      0.00
    6   -2   17      0.12      0.00
    7   -2   17     -0.04      0.00
    8   -2   17      0.01      0.00
    9   -2   17     -0.05      0.00
  -10   -1   17      0.07      0.00
   -9   -1   17     -0.11      0.00
   -8   -1   17      0.12      0.00
   -7   -1   17     -0.08      0.00
   -6   -1   17      0.03      0.00
   -5   -1   17      0.00      0.00
   -4   -1   17     -0.02      0.00
   -3   -1   17      0.03      0.00
   -2   -1   17     -0.01      0.00
   -1   -1   17     -0.01      0.00
    0   -1   17      0.02      0.00
    1   -1   17     -0.01      0.00
    2   -1   17     -0.01      0.00
    3   -1   17      0.04      0.00
    4   -1   17     -0.09      0.00
    5   -1   17      0.14      0.00
    6   -1   17     -0.13      0.00
    7   -1   17      0.06      0.00
    8   -1   17     -0.00      0.00
    9   -1   17      0.01      0.00
   10   -1   17     -0.06      0.00
  -10    0   17     -0.01      0.00
   -9    0   17      0.03      0.00
   -8    0   17     -0.04      0.00
   -7    0   17      0.01      0.00
   -6    0   17      0.01      0.00
   -5    0   17     -0.02      0.00
   -4    0   17      0.00      0.00
   -3    0   17     -0.00      0.00
   -2    0   17      0.03      0.00
   -1    0   17     -0.05      0.00
    0    0   17      0.04      0.00
    1    0   17     -0.03      0.00
    2    0   17      0.04      0.00
    3    0   17     -0.05      0.00
    4    0   17      0.06      0.00
    5    0   17     -0.07      0.00
    6    0   17      0.08      0.00
    7    0   17     -0.06      0.00
    8    0   17      0.03      0.00
    9    0   17     -0.01      0.00
   10    0   17      0.04      0.00
   11    0   17     -0.08      0.00
  -10    1   17     -0.03      0.00
   -9    1   17      0.05      0.00
   -8    1   17     -0.08      0.00
   -7    1   17      0.12      0.00
   -6    1   17     -0.13      0.00
   -5    1   17      0.10      0.00
   -4    1   17     -0.02      0.00
   -3    1   17     -0.03      0.00
   -2    1   17      0.01      0.00
   -1    1   17      0.05      0.00
    0    1   17     -0.09      0.00
    1    1   17      0.09      0.00
    2    1   17     -0.06      0.00
    3    1   17      0.05      0.00
    4    1   17     -0.03      0.00
    5    1   17      0.01      0.00
    6    1   17      0.00      0.00
    7    1   17      0.03      0.00
    8    1   17     -0.06      0.00
    9    1   17      0.07      0.00
   10    1   17     -0.06      0.00
   11    1   17      0.06      0.00
   -9    2   17     -0.07      0.00
   -8    2   17      0.15      0.00
   -7    2   17     -0.21      0.00
   -6    2   17      0.22      0.00
   -5    2   17     -0.17      0.00
   -4    2   17      0.06      0.00
   -3    2   17      0.04      0.00
   -2    2   17     -0.06      0.00
   -1    2   17     -0.00      0.00
    0    2   17      0.08      0.00
    1    2   17     -0.11      0.00
    2    2   17      0.09      0.00
    3    2   17     -0.06      0.00
    4    2   17      0.03      0.00
    5    2   17      0.01      0.00
    6    2   17     -0.05      0.00
    7    2   17      0.03      0.00
    8    2   17      0.05      0.00
    9    2   17     -0.11      0.00
   10    2   17      0.12      0.00
   11    2   17     -0.08      0.00
   12    2   17      0.06      0.00
   -9    3   17      0.05      0.00
   -8    3   17     -0.13      0.00
   -7    3   17      0.18      0.00
   -6    3   17     -0.19      0.00
   -5    3   17      0.15      0.00
   -4    3   17     -0.08      0.00
   -3    3   17      0.00      0.00
   -2    3   17      0.05      0.00
   -1    3   17     -0.03      0.00
    0    3   17     -0.04      0.00
    1    3   17      0.09      0.00
    2    3   17     -0.09      0.00
    3    3   17      0.07      0.00
    4    3   17     -0.04      0.00
    5    3   17      0.00      0.00
    6    3   17      0.05      0.00
    7    3   17     -0.07      0.00
    8    3   17      0.00      0.00
    9    3   17      0.09      0.00
   10    3   17     -0.15      0.00
   11    3   17      0.13      0.00
   12    3   17     -0.08      0.00
   -9    4   17      0.00      0.00
   -8    4   17      0.06      0.00
   -7    4   17     -0.09      0.00
   -6    4   17      0.09      0.00
   -5    4   17     -0.06      0.00
   -4    4   17      0.05      0.00
   -3    4   17     -0.04      0.00
   -2    4   17      0.01      0.00
   -1    4   17      0.01      0.00
    0    4   17      0.01      0.00
    1    4   17     -0.05      0.00
    2    4   17      0.07      0.00
    3    4   17     -0.05      0.00
    4    4   17      0.04      0.00
    5    4   17     -0.02      0.00
    6    4   17     -0.03      0.00
    7    4   17      0.07      0.00
    8    4   17     -0.05      0.00
    9    4   17     -0.02      0.00
   10    4   17      0.10      0.00
   11    4   17     -0.13      0.00
   12    4   17      0.10      0.00
   13    4   17     -0.05      0.00
   -9    5   17     -0.04      0.00
   -8    5   17      0.00      0.00
   -7    5   17      0.03      0.00
   -6    5   17     -0.03      0.00
   -5    5   17      0.01      0.00
   -4    5   17     -0.03      0.00
   -3    5   17      0.07      0.00
   -2    5   17     -0.06      0.00
   -1    5   17      0.02      0.00
    0    5   17      0.02      0.00
    1    5   17     -0.01      0.00
    2    5   17     -0.01      0.00
    3    5   17      0.01      0.00
    4    5   17     -0.01      0.00
    5    5   17      0.01      0.00
    6    5   17      0.00      0.00
    7    5   17     -0.03      0.00
    8    5   17      0.05      0.00
    9    5   17     -0.04      0.00
   10    5   17     -0.01      0.00
   11    5   17      0.05      0.00
   12    5   17     -0.06      0.00
   13    5   17      0.04      0.00
   -8    6   17     -0.01      0.00
   -7    6   17     -0.03      0.00
   -6    6   17      0.06      0.00
   -5    6   17     -0.06      0.00
   -4    6   17      0.07      0.00
   -3    6   17     -0.09      0.00
   -2    6   17      0.07      0.00
   -1    6   17     -0.00      0.00
    0    6   17     -0.07      0.00
    1    6   17      0.09      0.00
    2    6   17     -0.06      0.00
    3    6   17      0.03      0.00
    4    6   17     -0.03      0.00
    5    6   17      0.02      0.00
    6    6   17      0.01      0.00
    7    6   17     -0.02      0.00
    8    6   17     -0.02      0.00
    9    6   17      0.07      0.00
   10    6   17     -0.08      0.00
   11    6   17      0.07      0.00
   12    6   17     -0.04      0.00
   13    6   17      0.02      0.00
   -7    7   17      0.06      0.00
   -6    7   17     -0.11      0.00
   -5    7   17      0.12      0.00
   -4    7   17     -0.12      0.00
   -3    7   17      0.10      0.00
   -2    7   17     -0.07      0.00
   -1    7   17     -0.01      0.00
    0    7   17      0.11      0.00
    1    7   17     -0.15      0.00
    2    7   17      0.12      0.00
    3    7   17     -0.07      0.00
    4    7   17      0.05      0.00
    5    7   17     -0.03      0.00
    6    7   17     -0.02      0.00
    7    7   17      0.06      0.00
    8    7   17     -0.03      0.00
    9    7   17     -0.05      0.00
   10    7   17      0.13      0.00
   11    7   17     -0.14      0.00
   12    7   17      0.12      0.00
   13    7   17     -0.08      0.00
   -6    8   17      0.10      0.00
   -5    8   17     -0.12      0.00
   -4    8   17      0.10      0.00
   -3    8   17     -0.07      0.00
   -2    8   17      0.04      0.00
   -1    8   17      0.00      0.00
    0    8   17     -0.07      0.00
    1    8   17      0.13      0.00
    2    8   17     -0.12      0.00
    3    8   17      0.08      0.00
    4    8   17     -0.05      0.00
    5    8   17      0.03      0.00
    6    8   17      0.00      0.00
    7    8   17     -0.05      0.00
    8    8   17      0.05      0.00
    9    8   17      0.02      0.00
   10    8   17     -0.11      0.00
   11    8   17      0.14      0.00
   12    8   17     -0.11      0.00
   13    8   17      0.06      0.00
   -6    9   17     -0.04      0.00
   -5    9   17      0.05      0.00
   -4    9   17     -0.03      0.00
   -3    9   17      0.00      0.00
   -2    9   17      0.01      0.00
   -1    9   17     -0.00      0.00
    0    9   17      0.00      0.00
    1    9   17     -0.03      0.00
    2    9   17      0.07      0.00
    3    9   17     -0.06      0.00
    4    9   17      0.04      0.00
    5    9   17     -0.03      0.00
    6    9   17      0.04      0.00
    7    9   17     -0.03      0.00
    8    9   17      0.00      0.00
    9    9   17     -0.01      0.00
   10    9   17      0.05      0.00
   11    9   17     -0.09      0.00
   12    9   17      0.06      0.00
   13    9   17      0.00      0.00
   -5   10   17     -0.00      0.00
   -4   10   17     -0.01      0.00
   -3   10   17      0.04      0.00
   -2   10   17     -0.05      0.00
   -1   10   17      0.03      0.00
    0   10   17      0.01      0.00
    1   10   17     -0.03      0.00
    2   10   17      0.01      0.00
    3   10   17      0.02      0.00
    4   10   17     -0.02      0.00
    5   10   17      0.03      0.00
    6   10   17     -0.08      0.00
    7   10   17      0.13      0.00
    8   10   17     -0.13      0.00
    9   10   17      0.07      0.00
   10   10   17     -0.02      0.00
   11   10   17      0.01      0.00
   12   10   17     -0.01      0.00
   13   10   17     -0.02      0.00
   -3   11   17     -0.02      0.00
   -2   11   17      0.04      0.00
   -1   11   17     -0.05      0.00
    0   11   17      0.03      0.00
    1   11   17      0.01      0.00
    2   11   17     -0.03      0.00
    3   11   17      0.02      0.00
    4   11   17     -0.01      0.00
    5   11   17     -0.01      0.00
    6   11   17      0.07      0.00
    7   11   17     -0.18      0.00
    8   11   17      0.24      0.00
    9   11   17     -0.18      0.00
   10   11   17      0.06      0.00
   11   11   17      0.03      0.00
   12   11   17     -0.04      0.00
   13   11   17      0.01      0.00
   -2   12   17     -0.01      0.00
   -1   12   17      0.04      0.00
    0   12   17     -0.06      0.00
    1   12   17      0.04      0.00
    2   12   17     -0.00      0.00
    3   12   17     -0.03      0.00
    4   12   17      0.04      0.00
    5   12   17     -0.01      0.00
    6   12   17     -0.04      0.00
    7   12   17      0.13      0.00
    8   12   17     -0.23      0.00
    9   12   17      0.25      0.00
   10   12   17     -0.15      0.00
   11   12   17      0.01      0.00
   12   12   17      0.05      0.00
   -1   13   17     -0.02      0.00
    0   13   17      0.05      0.00
    1   13   17     -0.06      0.00
    2   13   17      0.04      0.00
    3   13   17      0.01      0.00
    4   13   17     -0.03      0.00
    5   13   17      0.01      0.00
    6   13   17      0.02      0.00
    7   13   17     -0.06      0.00
    8   13   17      0.13      0.00
    9   13   17     -0.20      0.00
   10   13   17      0.21      0.00
   11   13   17     -0.11      0.00
   12   13   17     -0.00      0.00
    1   14   17      0.04      0.00
    2   14   17     -0.04      0.00
    3   14   17      0.02      0.00
    4   14   17     -0.01      0.00
    5   14   17      0.02      0.00
    6   14   17     -0.04      0.00
    7   14   17      0.04      0.00
    8   14   17     -0.04      0.00
    9   14   17      0.09      0.00
   10   14   17     -0.16      0.00
   11   14   17      0.17      0.00
    3   15   17     -0.04      0.00
    4   15   17      0.04      0.00
    5   15   17     -0.06      0.00
    6   15   17      0.08      0.00
    7   15   17     -0.07      0.00
    8   15   17      0.03      0.00
    9   15   17     -0.01      0.00
   10   15   17      0.06      0.00
   -5   -7   18      0.01      0.00
   -4   -7   18      0.05      0.00
   -3   -7   18     -0.04      0.00
   -2   -7   18     -0.01      0.00
   -1   -7   18      0.02      0.00
    0   -7   18      0.05      0.00
    1   -7   18     -0.11      0.00
   -7   -6   18      0.01      0.00
   -6   -6   18      0.03      0.00
   -5   -6   18     -0.04      0.00
   -4   -6   18      0.00      0.00
   -3   -6   18      0.03      0.00
   -2   -6   18     -0.00      0.00
   -1   -6   18     -0.02      0.00
    0   -6   18     -0.03      0.00
    1   -6   18      0.12      0.00
    2   -6   18     -0.14      0.00
    3   -6   18      0.06      0.00
    4   -6   18      0.05      0.00
   -8   -5   18      0.06      0.00
   -7   -5   18     -0.07      0.00
   -6   -5   18      0.05      0.00
   -5   -5   18     -0.00      0.00
   -4   -5   18     -0.01      0.00
   -3   -5   18     -0.01      0.00
   -2   -5   18      0.02      0.00
   -1   -5   18     -0.01      0.00
    0   -5   18      0.02      0.00
    1   -5   18     -0.08      0.00
    2   -5   18      0.14      0.00
    3   -5   18     -0.09      0.00
    4   -5   18     -0.02      0.00
    5   -5   18      0.10      0.00
   -9   -4   18      0.01      0.00
   -8   -4   18     -0.05      0.00
   -7   -4   18      0.09      0.00
   -6   -4   18     -0.11      0.00
   -5   -4   18      0.08      0.00
   -4   -4   18     -0.03      0.00
   -3   -4   18      0.00      0.00
   -2   -4   18     -0.02      0.00
   -1   -4   18      0.03      0.00
    0   -4   18     -0.03      0.00
    1   -4   18      0.03      0.00
    2   -4   18     -0.06      0.00
    3   -4   18      0.07      0.00
    4   -4   18     -0.03      0.00
    5   -4   18     -0.04      0.00
    6   -4   18      0.06      0.00
    7   -4   18     -0.02      0.00
   -9   -3   18      0.04      0.00
   -8   -3   18     -0.01      0.00
   -7   -3   18     -0.04      0.00
   -6   -3   18      0.09      0.00
   -5   -3   18     -0.10      0.00
   -4   -3   18      0.07      0.00
   -3   -3   18     -0.02      0.00
   -2   -3   18     -0.00      0.00
   -1   -3   18     -0.01      0.00
    0   -3   18      0.01      0.00
    1   -3   18      0.01      0.00
    2   -3   18     -0.02      0.00
    3   -3   18     -0.01      0.00
    4   -3   18      0.06      0.00
    5   -3   18     -0.07      0.00
    6   -3   18      0.04      0.00
    7   -3   18     -0.03      0.00
    8   -3   18      0.04      0.00
   -9   -2   18     -0.10      0.00
   -8   -2   18      0.09      0.00
   -7   -2   18     -0.05      0.00
   -6   -2   18      0.00      0.00
   -5   -2   18      0.04      0.00
   -4   -2   18     -0.05      0.00
   -3   -2   18      0.02      0.00
   -2   -2   18      0.01      0.00
   -1   -2   18     -0.03      0.00
    0   -2   18      0.02      0.00
    1   -2   18     -0.02      0.00
    2   -2   18      0.04      0.00
    3   -2   18     -0.02      0.00
    4   -2   18     -0.05      0.00
    5   -2   18      0.12      0.00
    6   -2   18     -0.13      0.00
    7   -2   18      0.08      0.00
    8   -2   18     -0.04      0.00
    9   -2   18      0.04      0.00
   -9   -1   18      0.12      0.00
   -8   -1   18     -0.14      0.00
   -7   -1   18      0.13      0.00
   -6   -1   18     -0.09      0.00
   -5   -1   18      0.05      0.00
   -4   -1   18     -0.01      0.00
   -3   -1   18     -0.01      0.00
   -2   -1   18      0.00      0.00
   -1   -1   18      0.02      0.00
    0   -1   18     -0.03      0.00
    1   -1   18      0.03      0.00
    2   -1   18     -0.02      0.00
    3   -1   18     -0.00      0.00
    4   -1   18      0.05      0.00
    5   -1   18     -0.11      0.00
    6   -1   18      0.14      0.00
    7   -1   18     -0.10      0.00
    8   -1   18      0.03      0.00
    9   -1   18     -0.01      0.00
   10   -1   18      0.03      0.00
   -9    0   18     -0.08      0.00
   -8    0   18      0.11      0.00
   -7    0   18     -0.10      0.00
   -6    0   18      0.08      0.00
   -5    0   18     -0.06      0.00
   -4    0   18      0.06      0.00
   -3    0   18     -0.03      0.00
   -2    0   18      0.00      0.00
   -1    0   18      0.01      0.00
    0    0   18     -0.00      0.00
    1    0   18     -0.00      0.00
    2    0   18     -0.01      0.00
    3    0   18      0.03      0.00
    4    0   18     -0.04      0.00
    5    0   18      0.06      0.00
    6    0   18     -0.09      0.00
    7    0   18      0.08      0.00
    8    0   18     -0.04      0.00
    9    0   18      0.00      0.00
   10    0   18     -0.01      0.00
   -9    1   18      0.03      0.00
   -8    1   18     -0.02      0.00
   -7    1   18     -0.01      0.00
   -6    1   18      0.05      0.00
   -5    1   18     -0.03      0.00
   -4    1   18     -0.03      0.00
   -3    1   18      0.07      0.00
   -2    1   18     -0.04      0.00
   -1    1   18     -0.02      0.00
    0    1   18      0.05      0.00
    1    1   18     -0.05      0.00
    2    1   18      0.04      0.00
    3    1   18     -0.04      0.00
    4    1   18      0.03      0.00
    5    1   18     -0.02      0.00
    6    1   18      0.01      0.00
    7    1   18     -0.03      0.00
    8    1   18      0.06      0.00
    9    1   18     -0.05      0.00
   10    1   18      0.05      0.00
   11    1   18     -0.05      0.00
   -9    2   18      0.02      0.00
   -8    2   18     -0.06      0.00
   -7    2   18      0.13      0.00
   -6    2   18     -0.18      0.00
   -5    2   18      0.16      0.00
   -4    2   18     -0.07      0.00
   -3    2   18     -0.04      0.00
   -2    2   18      0.08      0.00
   -1    2   18     -0.03      0.00
    0    2   18     -0.05      0.00
    1    2   18      0.08      0.00
    2    2   18     -0.07      0.00
    3    2   18      0.05      0.00
    4    2   18     -0.04      0.00
    5    2   18     -0.00      0.00
    6    2   18      0.04      0.00
    7    2   18     -0.02      0.00
    8    2   18     -0.05      0.00
    9    2   18      0.11      0.00
   10    2   18     -0.12      0.00
   11    2   18      0.09      0.00
   -8    3   18      0.09      0.00
   -7    3   18     -0.16      0.00
   -6    3   18      0.21      0.00
   -5    3   18     -0.20      0.00
   -4    3   18      0.13      0.00
   -3    3   18     -0.02      0.00
   -2    3   18     -0.06      0.00
   -1    3   18      0.04      0.00
    0    3   18      0.03      0.00
    1    3   18     -0.09      0.00
    2    3   18      0.09      0.00
    3    3   18     -0.07      0.00
    4    3   18      0.06      0.00
    5    3   18     -0.02      0.00
    6    3   18     -0.04      0.00
    7    3   18      0.05      0.00
    8    3   18      0.02      0.00
    9    3   18     -0.12      0.00
   10    3   18      0.17      0.00
   11    3   18     -0.14      0.00
   12    3   18      0.08      0.00
   -8    4   18     -0.07      0.00
   -7    4   18      0.11      0.00
   -6    4   18     -0.13      0.00
   -5    4   18      0.12      0.00
   -4    4   18     -0.10      0.00
   -3    4   18      0.06      0.00
   -2    4   18     -0.01      0.00
   -1    4   18     -0.01      0.00
    0    4   18     -0.02      0.00
    1    4   18      0.07      0.00
    2    4   18     -0.08      0.00
    3    4   18      0.08      0.00
    4    4   18     -0.07      0.00
    5    4   18      0.04      0.00
    6    4   18      0.02      0.00
    7    4   18     -0.07      0.00
    8    4   18      0.04      0.00
    9    4   18      0.06      0.00
   10    4   18     -0.15      0.00
   11    4   18      0.17      0.00
   12    4   18     -0.12      0.00
   -8    5   18      0.03      0.00
   -7    5   18     -0.06      0.00
   -6    5   18      0.05      0.00
   -5    5   18     -0.03      0.00
   -4    5   18      0.04      0.00
   -3    5   18     -0.06      0.00
   -2    5   18      0.07      0.00
   -1    5   18     -0.04      0.00
    0    5   18      0.02      0.00
    1    5   18     -0.03      0.00
    2    5   18      0.05      0.00
    3    5   18     -0.04      0.00
    4    5   18      0.04      0.00
    5    5   18     -0.04      0.00
    6    5   18      0.01      0.00
    7    5   18      0.04      0.00
    8    5   18     -0.06      0.00
    9    5   18      0.01      0.00
   10    5   18      0.07      0.00
   11    5   18     -0.12      0.00
   12    5   18      0.11      0.00
   -7    6   18      0.05      0.00
   -6    6   18     -0.06      0.00
   -5    6   18      0.04      0.00
   -4    6   18     -0.04      0.00
   -3    6   18      0.07      0.00
   -2    6   18     -0.09      0.00
   -1    6   18      0.04      0.00
    0    6   18      0.02      0.00
    1    6   18     -0.04      0.00
    2    6   18      0.02      0.00
    3    6   18     -0.01      0.00
    4    6   18      0.01      0.00
    5    6   18      0.01      0.00
    6    6   18     -0.02      0.00
    7    6   18      0.01      0.00
    8    6   18      0.03      0.00
    9    6   18     -0.05      0.00
   10    6   18      0.02      0.00
   11    6   18      0.02      0.00
   12    6   18     -0.04      0.00
   13    6   18      0.03      0.00
   -7    7   18     -0.06      0.00
   -6    7   18      0.12      0.00
   -5    7   18     -0.13      0.00
   -4    7   18      0.11      0.00
   -3    7   18     -0.10      0.00
   -2    7   18      0.09      0.00
   -1    7   18     -0.03      0.00
    0    7   18     -0.06      0.00
    1    7   18      0.10      0.00
    2    7   18     -0.08      0.00
    3    7   18      0.04      0.00
    4    7   18     -0.03      0.00
    5    7   18      0.02      0.00
    6    7   18      0.02      0.00
    7    7   18     -0.06      0.00
    8    7   18      0.03      0.00
    9    7   18      0.05      0.00
   10    7   18     -0.09      0.00
   11    7   18      0.08      0.00
   12    7   18     -0.05      0.00
   13    7   18      0.03      0.00
   -6    8   18     -0.13      0.00
   -5    8   18      0.17      0.00
   -4    8   18     -0.14      0.00
   -3    8   18      0.10      0.00
   -2    8   18     -0.06      0.00
   -1    8   18      0.01      0.00
    0    8   18      0.05      0.00
    1    8   18     -0.10      0.00
    2    8   18      0.09      0.00
    3    8   18     -0.05      0.00
    4    8   18      0.02      0.00
    5    8   18     -0.01      0.00
    6    8   18     -0.01      0.00
    7    8   18      0.06      0.00
    8    8   18     -0.06      0.00
    9    8   18     -0.01      0.00
   10    8   18      0.11      0.00
   11    8   18     -0.14      0.00
   12    8   18      0.11      0.00
   13    8   18     -0.06      0.00
   -5    9   18     -0.11      0.00
   -4    9   18      0.09      0.00
   -3    9   18     -0.03      0.00
   -2    9   18     -0.01      0.00
   -1    9   18      0.02      0.00
    0    9   18     -0.02      0.00
    1    9   18      0.03      0.00
    2    9   18     -0.04      0.00
    3    9   18      0.02      0.00
    4    9   18      0.01      0.00
    5    9   18     -0.01      0.00
    6    9   18      0.00      0.00
    7    9   18     -0.01      0.00
    8    9   18      0.03      0.00
    9    9   18      0.00      0.00
   10    9   18     -0.08      0.00
   11    9   18      0.13      0.00
   12    9   18     -0.11      0.00
   13    9   18      0.05      0.00
   -4   10   18     -0.02      0.00
   -3   10   18     -0.03      0.00
   -2   10   18      0.08      0.00
   -1   10   18     -0.08      0.00
    0   10   18      0.03      0.00
    1   10   18      0.01      0.00
    2   10   18     -0.01      0.00
    3   10   18      0.01      0.00
    4   10   18     -0.03      0.00
    5   10   18      0.04      0.00
    6   10   18      0.00      0.00
    7   10   18     -0.06      0.00
    8   10   18      0.08      0.00
    9   10   18     -0.06      0.00
   10   10   18      0.05      0.00
   11   10   18     -0.06      0.00
   12   10   18      0.05      0.00
   13   10   18     -0.02      0.00
   -3   11   18      0.03      0.00
   -2   11   18     -0.08      0.00
   -1   11   18      0.10      0.00
    0   11   18     -0.07      0.00
    1   11   18      0.02      0.00
    2   11   18      0.02      0.00
    3   11   18     -0.02      0.00
    4   11   18      0.03      0.00
    5   11   18     -0.04      0.00
    6   11   18      0.01      0.00
    7   11   18      0.09      0.00
    8   11   18     -0.17      0.00
    9   11   18      0.16      0.00
   10   11   18     -0.08      0.00
   11   11   18      0.01      0.00
   12   11   18      0.02      0.00
   -2   12   18      0.01      0.00
   -1   12   18     -0.06      0.00
    0   12   18      0.08      0.00
    1   12   18     -0.08      0.00
    2   12   18      0.04      0.00
    3   12   18      0.00      0.00
    4   12   18     -0.02      0.00
    5   12   18      0.04      0.00
    6   12   18     -0.02      0.00
    7   12   18     -0.06      0.00
    8   12   18      0.17      0.00
    9   12   18     -0.22      0.00
   10   12   18      0.15      0.00
   11   12   18     -0.03      0.00
   12   12   18     -0.05      0.00
    0   13   18     -0.04      0.00
    1   13   18      0.07      0.00
    2   13   18     -0.07      0.00
    3   13   18      0.03      0.00
    4   13   18      0.01      0.00
    5   13   18     -0.03      0.00
    6   13   18      0.02      0.00
    7   13   18      0.01      0.00
    8   13   18     -0.08      0.00
    9   13   18      0.16      0.00
   10   13   18     -0.18      0.00
   11   13   18      0.10      0.00
   12   13   18      0.01      0.00
    2   14   18      0.05      0.00
    3   14   18     -0.03      0.00
    4   14   18      0.00      0.00
    5   14   18      0.01      0.00
    6   14   18      0.01      0.00
    7   14   18     -0.01      0.00
    8   14   18      0.01      0.00
    9   14   18     -0.05      0.00
   10   14   18      0.11      0.00
    4   15   18     -0.01      0.00
    5   15   18      0.01      0.00
    6   15   18     -0.03      0.00
    7   15   18      0.04      0.00
    8   15   18     -0.01      0.00
   -5   -6   19      0.01      0.00
   -4   -6   19      0.03      0.00
   -3   -6   19     -0.06      0.00
   -2   -6   19      0.03      0.00
   -1   -6   19      0.01      0.00
    0   -6   19      0.02      0.00
    1   -6   19     -0.10      0.00
    2   -6   19      0.13      0.00
   -6   -5   19     -0.05      0.00
   -5   -5   19      0.02      0.00
   -4   -5   19     -0.02      0.00
   -3   -5   19      0.05      0.00
   -2   -5   19     -0.05      0.00
   -1   -5   19      0.03      0.00
    0   -5   19     -0.03      0.00
    1   -5   19      0.08      0.00
    2   -5   19     -0.13      0.00
    3   -5   19      0.11      0.00
    4   -5   19     -0.01      0.00
   -7   -4   19     -0.08      0.00
   -6   -4   19      0.10      0.00
   -5   -4   19     -0.08      0.00
   -4   -4   19      0.05      0.00
   -3   -4   19     -0.04      0.00
   -2   -4   19      0.05      0.00
   -1   -4   19     -0.06      0.00
    0   -4   19      0.04      0.00
    1   -4   19     -0.04      0.00
    2   -4   19      0.06      0.00
    3   -4   19     -0.07      0.00
    4   -4   19      0.03      0.00
    5   -4   19      0.04      0.00
    6   -4   19     -0.06      0.00
   -8   -3   19     -0.01      0.00
   -7   -3   19      0.05      0.00
   -6   -3   19     -0.09      0.00
   -5   -3   19      0.10      0.00
   -4   -3   19     -0.07      0.00
   -3   -3   19      0.04      0.00
   -2   -3   19     -0.03      0.00
   -1   -3   19      0.04      0.00
    0   -3   19     -0.04      0.00
    1   -3   19      0.01      0.00
    2   -3   19      0.02      0.00
    3   -3   19     -0.01      0.00
    4   -3   19     -0.01      0.00
    5   -3   19      0.02      0.00
    6   -3   19     -0.02      0.00
    7   -3   19      0.02      0.00
   -8   -2   19     -0.06      0.00
   -7   -2   19      0.04      0.00
   -6   -2   19      0.00      0.00
   -5   -2   19     -0.04      0.00
   -4   -2   19      0.05      0.00
   -3   -2   19     -0.03      0.00
   -2   -2   19     -0.00      0.00
   -1   -2   19      0.01      0.00
    0   -2   19     -0.00      0.00
    1   -2   19      0.01      0.00
    2   -2   19     -0.04      0.00
    3   -2   19      0.06      0.00
    4   -2   19     -0.02      0.00
    5   -2   19     -0.05      0.00
    6   -2   19      0.10      0.00
    7   -2   19     -0.09      0.00
    8   -2   19      0.06      0.00
   -9   -1   19     -0.08      0.00
   -8   -1   19      0.12      0.00
   -7   -1   19     -0.12      0.00
   -6   -1   19      0.10      0.00
   -5   -1   19     -0.07      0.00
   -4   -1   19      0.03      0.00
   -3   -1   19     -0.01      0.00
   -2   -1   19      0.01      0.00
   -1   -1   19     -0.03      0.00
    0   -1   19      0.04      0.00
    1   -1   19     -0.03      0.00
    2   -1   19      0.03      0.00
    3   -1   19     -0.04      0.00
    4   -1   19      0.02      0.00
    5   -1   19      0.05      0.00
    6   -1   19     -0.11      0.00
    7   -1   19      0.11      0.00
    8   -1   19     -0.06      0.00
    9   -1   19      0.02      0.00
   -9    0   19      0.09      0.00
   -8    0   19     -0.13      0.00
   -7    0   19      0.15      0.00
   -6    0   19     -0.14      0.00
   -5    0   19      0.12      0.00
   -4    0   19     -0.10      0.00
   -3    0   19      0.06      0.00
   -2    0   19     -0.02      0.00
   -1    0   19      0.01      0.00
    0    0   19     -0.02      0.00
    1    0   19      0.03      0.00
    2    0   19     -0.01      0.00
    3    0   19     -0.00      0.00
    4    0   19      0.01      0.00
    5    0   19     -0.03      0.00
    6    0   19      0.06      0.00
    7    0   19     -0.08      0.00
    8    0   19      0.04      0.00
    9    0   19      0.00      0.00
   10    0   19     -0.01      0.00
   -8    1   19      0.10      0.00
   -7    1   19     -0.08      0.00
   -6    1   19      0.05      0.00
   -5    1   19     -0.04      0.00
   -4    1   19      0.07      0.00
   -3    1   19     -0.09      0.00
   -2    1   19      0.06      0.00
   -1    1   19     -0.01      0.00
    0    1   19     -0.02      0.00
    1    1   19      0.01      0.00
    2    1   19     -0.01      0.00
    3    1   19      0.02      0.00
    4    1   19     -0.02      0.00
    5    1   19      0.00      0.00
    6    1   19     -0.00      0.00
    7    1   19      0.02      0.00
    8    1   19     -0.04      0.00
    9    1   19      0.02      0.00
   10    1   19     -0.01      0.00
   -8    2   19     -0.03      0.00
   -7    2   19     -0.03      0.00
   -6    2   19      0.10      0.00
   -5    2   19     -0.12      0.00
   -4    2   19      0.05      0.00
   -3    2   19      0.05      0.00
   -2    2   19     -0.08      0.00
   -1    2   19      0.04      0.00
    0    2   19      0.03      0.00
    1    2   19     -0.05      0.00
    2    2   19      0.04      0.00
    3    2   19     -0.03      0.00
    4    2   19      0.02      0.00
    5    2   19      0.01      0.00
    6    2   19     -0.04      0.00
    7    2   19      0.02      0.00
    8    2   19      0.04      0.00
    9    2   19     -0.09      0.00
   10    2   19      0.09      0.00
   11    2   19     -0.07      0.00
   -8    3   19     -0.02      0.00
   -7    3   19      0.09      0.00
   -6    3   19     -0.18      0.00
   -5    3   19      0.22      0.00
   -4    3   19     -0.17      0.00
   -3    3   19      0.05      0.00
   -2    3   19      0.04      0.00
   -1    3   19     -0.04      0.00
    0    3   19     -0.02      0.00
    1    3   19      0.07      0.00
    2    3   19     -0.07      0.00
    3    3   19      0.06      0.00
    4    3   19     -0.04      0.00
    5    3   19      0.00      0.00
    6    3   19      0.05      0.00
    7    3   19     -0.06      0.00
    8    3   19     -0.01      0.00
    9    3   19      0.11      0.00
   10    3   19     -0.16      0.00
   11    3   19      0.14      0.00
   -7    4   19     -0.09      0.00
   -6    4   19      0.15      0.00
   -5    4   19     -0.18      0.00
   -4    4   19      0.17      0.00
   -3    4   19     -0.11      0.00
   -2    4   19      0.03      0.00
   -1    4   19      0.00      0.00
    0    4   19      0.03      0.00
    1    4   19     -0.07      0.00
    2    4   19      0.08      0.00
    3    4   19     -0.08      0.00
    4    4   19      0.07      0.00
    5    4   19     -0.04      0.00
    6    4   19     -0.02      0.00
    7    4   19      0.08      0.00
    8    4   19     -0.04      0.00
    9    4   19     -0.07      0.00
   10    4   19      0.17      0.00
   11    4   19     -0.18      0.00
   12    4   19      0.12      0.00
   -7    5   19      0.07      0.00
   -6    5   19     -0.07      0.00
   -5    5   19      0.07      0.00
   -4    5   19     -0.08      0.00
   -3    5   19      0.09      0.00
   -2    5   19     -0.08      0.00
   -1    5   19      0.05      0.00
    0    5   19     -0.04      0.00
    1    5   19      0.05      0.00
    2    5   19     -0.06      0.00
    3    5   19      0.06      0.00
    4    5   19     -0.07      0.00
    5    5   19      0.06      0.00
    6    5   19     -0.02      0.00
    7    5   19     -0.06      0.00
    8    5   19      0.08      0.00
    9    5   19     -0.01      0.00
   10    5   19     -0.10      0.00
   11    5   19      0.15      0.00
   12    5   19     -0.13      0.00
   -6    6   19      0.06      0.00
   -5    6   19     -0.03      0.00
   -4    6   19      0.03      0.00
   -3    6   19     -0.06      0.00
   -2    6   19      0.08      0.00
   -1    6   19     -0.06      0.00
    0    6   19      0.02      0.00
    1    6   19     -0.01      0.00
    2    6   19      0.01      0.00
    3    6   19     -0.02      0.00
    4    6   19      0.02      0.00
    5    6   19     -0.04      0.00
    6    6   19      0.04      0.00
    7    6   19     -0.00      0.00
    8    6   19     -0.06      0.00
    9    6   19      0.06      0.00
   10    6   19      0.00      0.00
   11    6   19     -0.07      0.00
   12    6   19      0.08      0.00
   -6    7   19     -0.10      0.00
   -5    7   19      0.10      0.00
   -4    7   19     -0.08      0.00
   -3    7   19      0.08      0.00
   -2    7   19     -0.08      0.00
   -1    7   19      0.05      0.00
    0    7   19      0.02      0.00
    1    7   19     -0.06      0.00
    2    7   19      0.04      0.00
    3    7   19     -0.02      0.00
    4    7   19      0.01      0.00
    5    7   19      0.00      0.00
    6    7   19     -0.04      0.00
    7    7   19      0.06      0.00
    8    7   19     -0.02      0.00
    9    7   19     -0.04      0.00
   10    7   19      0.06      0.00
   11    7   19     -0.03      0.00
   12    7   19      0.00      0.00
   -6    8   19      0.12      0.00
   -5    8   19     -0.17      0.00
   -4    8   19      0.15      0.00
   -3    8   19     -0.11      0.00
   -2    8   19      0.07      0.00
   -1    8   19     -0.03      0.00
    0    8   19     -0.03      0.00
    1    8   19      0.07      0.00
    2    8   19     -0.06      0.00
    3    8   19      0.02      0.00
    4    8   19      0.00      0.00
    5    8   19      0.00      0.00
    6    8   19      0.03      0.00
    7    8   19     -0.08      0.00
    8    8   19      0.08      0.00
    9    8   19     -0.01      0.00
   10    8   19     -0.08      0.00
   11    8   19      0.11      0.00
   12    8   19     -0.08      0.00
   -5    9   19      0.14      0.00
   -4    9   19     -0.13      0.00
   -3    9   19      0.07      0.00
   -2    9   19     -0.00      0.00
   -1    9   19     -0.02      0.00
    0    9   19      0.03      0.00
    1    9   19     -0.03      0.00
    2    9   19      0.02      0.00
    3    9   19      0.01      0.00
    4    9   19     -0.04      0.00
    5    9   19      0.04      0.00
    6    9   19     -0.03      0.00
    7    9   19      0.04      0.00
    8    9   19     -0.07      0.00
    9    9   19      0.03      0.00
   10    9   19      0.06      0.00
   11    9   19     -0.13      0.00
   12    9   19      0.12      0.00
   -4   10   19      0.05      0.00
   -3   10   19      0.01      0.00
   -2   10   19     -0.08      0.00
   -1   10   19      0.10      0.00
    0   10   19     -0.05      0.00
    1   10   19     -0.01      0.00
    2   10   19      0.04      0.00
    3   10   19     -0.05      0.00
    4   10   19      0.07      0.00
    5   10   19     -0.07      0.00
    6   10   19      0.04      0.00
    7   10   19      0.00      0.00
    8   10   19     -0.02      0.00
    9   10   19      0.03      0.00
   10   10   19     -0.06      0.00
   11   10   19      0.09      0.00
   12   10   19     -0.09      0.00
   -2   11   19      0.11      0.00
   -1   11   19     -0.14      0.00
    0   11   19      0.11      0.00
    1   11   19     -0.03      0.00
    2   11   19     -0.03      0.00
    3   11   19      0.05      0.00
    4   11   19     -0.06      0.00
    5   11   19      0.08      0.00
    6   11   19     -0.07      0.00
    7   11   19     -0.01      0.00
    8   11   19      0.10      0.00
    9   11   19     -0.13      0.00
   10   11   19      0.09      0.00
   11   11   19     -0.05      0.00
   12   11   19      0.02      0.00
   -1   12   19      0.09      0.00
    0   12   19     -0.12      0.00
    1   12   19      0.09      0.00
    2   12   19     -0.04      0.00
    3   12   19     -0.00      0.00
    4   12   19      0.03      0.00
    5   12   19     -0.06      0.00
    6   12   19      0.07      0.00
    7   12   19     -0.02      0.00
    8   12   19     -0.09      0.00
    9   12   19      0.17      0.00
   10   12   19     -0.15      0.00
   11   12   19      0.06      0.00
    0   13   19      0.04      0.00
    1   13   19     -0.09      0.00
    2   13   19      0.09      0.00
    3   13   19     -0.05      0.00
    4   13   19      0.00      0.00
    5   13   19      0.03      0.00
    6   13   19     -0.05      0.00
    7   13   19      0.04      0.00
    8   13   19      0.02      0.00
    9   13   19     -0.11      0.00
   10   13   19      0.15      0.00
   11   13   19     -0.09      0.00
    2   14   19     -0.06      0.00
    3   14   19      0.06      0.00
    4   14   19     -0.02      0.00
    5   14   19     -0.01      0.00
    6   14   19      0.02      0.00
    7   14   19     -0.02      0.00
    8   14   19      0.02      0.00
    9   14   19      0.02      0.00
   -1   -6   20      0.01      0.00
   -4   -5   20      0.04      0.00
   -3   -5   20     -0.07      0.00
   -2   -5   20      0.07      0.00
   -1   -5   20     -0.05      0.00
    0   -5   20      0.04      0.00
    1   -5   20     -0.07      0.00
    2   -5   20      0.12      0.00
    3   -5   20     -0.11      0.00
   -6   -4   20     -0.09      0.00
   -5   -4   20      0.08      0.00
   -4   -4   20     -0.06      0.00
   -3   -4   20      0.06      0.00
   -2   -4   20     -0.08      0.00
   -1   -4   20      0.09      0.00
    0   -4   20     -0.07      0.00
    1   -4   20      0.06      0.00
    2   -4   20     -0.07      0.00
    3   -4   20      0.07      0.00
    4   -4   20     -0.03      0.00
   -7   -3   20     -0.05      0.00
   -6   -3   20      0.08      0.00
   -5   -3   20     -0.10      0.00
   -4   -3   20      0.08      0.00
   -3   -3   20     -0.05      0.00
   -2   -3   20      0.05      0.00
   -1   -3   20     -0.07      0.00
    0   -3   20      0.08      0.00
    1   -3   20     -0.05      0.00
    2   -3   20      0.01      0.00
    3   -3   20      0.02      0.00
    4   -3   20     -0.02      0.00
    5   -3   20      0.02      0.00
    6   -3   20     -0.01      0.00
   -8   -2   20      0.02      0.00
   -7   -2   20     -0.00      0.00
   -6   -2   20     -0.02      0.00
   -5   -2   20      0.05      0.00
   -4   -2   20     -0.05      0.00
   -3   -2   20      0.03      0.00
   -2   -2   20     -0.00      0.00
   -1   -2   20      0.01      0.00
    0   -2   20     -0.03      0.00
    1   -2   20      0.03      0.00
    2   -2   20      0.02      0.00
    3   -2   20     -0.07      0.00
    4   -2   20      0.08      0.00
    5   -2   20     -0.02      0.00
    6   -2   20     -0.04      0.00
    7   -2   20      0.07      0.00
   -8   -1   20     -0.07      0.00
   -7   -1   20      0.08      0.00
   -6   -1   20     -0.07      0.00
   -5   -1   20      0.05      0.00
   -4   -1   20     -0.02      0.00
   -3   -1   20      0.01      0.00
   -2   -1   20     -0.02      0.00
   -1   -1   20      0.04      0.00
    0   -1   20     -0.04      0.00
    1   -1   20      0.01      0.00
    2   -1   20     -0.02      0.00
    3   -1   20      0.06      0.00
    4   -1   20     -0.08      0.00
    5   -1   20      0.03      0.00
    6   -1   20      0.05      0.00
    7   -1   20     -0.09      0.00
    8   -1   20      0.07      0.00
   -8    0   20      0.10      0.00
   -7    0   20     -0.12      0.00
   -6    0   20      0.13      0.00
   -5    0   20     -0.12      0.00
   -4    0   20      0.10      0.00
   -3    0   20     -0.07      0.00
   -2    0   20      0.04      0.00
   -1    0   20     -0.04      0.00
    0    0   20      0.05      0.00
    1    0   20     -0.04      0.00
    2    0   20      0.02      0.00
    3    0   20     -0.02      0.00
    4    0   20      0.03      0.00
    5    0   20     -0.03      0.00
    6    0   20     -0.02      0.00
    7    0   20      0.05      0.00
    8    0   20     -0.04      0.00
    9    0   20     -0.00      0.00
   -8    1   20     -0.10      0.00
   -7    1   20      0.11      0.00
   -6    1   20     -0.09      0.00
   -5    1   20      0.09      0.00
   -4    1   20     -0.10      0.00
   -3    1   20      0.09      0.00
   -2    1   20     -0.06      0.00
   -1    1   20      0.02      0.00
    0    1   20     -0.01      0.00
    1    1   20      0.02      0.00
    2    1   20     -0.02      0.00
    3    1   20      0.00      0.00
    4    1   20     -0.01      0.00
    5    1   20      0.02      0.00
    6    1   20     -0.02      0.00
    7    1   20      0.00      0.00
    8    1   20      0.01      0.00
    9    1   20      0.01      0.00
   -7    2   20     -0.05      0.00
   -6    2   20     -0.02      0.00
   -5    2   20      0.06      0.00
   -4    2   20     -0.03      0.00
   -3    2   20     -0.04      0.00
   -2    2   20      0.06      0.00
   -1    2   20     -0.02      0.00
    0    2   20     -0.02      0.00
    1    2   20      0.03      0.00
    2    2   20     -0.01      0.00
    3    2   20      0.01      0.00
    4    2   20     -0.00      0.00
    5    2   20     -0.03      0.00
    6    2   20      0.05      0.00
    7    2   20     -0.04      0.00
    8    2   20      0.00      0.00
    9    2   20      0.03      0.00
   10    2   20     -0.04      0.00
   -7    3   20     -0.01      0.00
   -6    3   20      0.12      0.00
   -5    3   20     -0.20      0.00
   -4    3   20      0.19      0.00
   -3    3   20     -0.08      0.00
   -2    3   20     -0.01      0.00
   -1    3   20      0.02      0.00
    0    3   20      0.02      0.00
    1    3   20     -0.05      0.00
    2    3   20      0.05      0.00
    3    3   20     -0.03      0.00
    4    3   20      0.02      0.00
    5    3   20      0.01      0.00
    6    3   20     -0.06      0.00
    7    3   20      0.07      0.00
    8    3   20     -0.01      0.00
    9    3   20     -0.07      0.00
   10    3   20      0.12      0.00
   11    3   20     -0.11      0.00
   -7    4   20      0.05      0.00
   -6    4   20     -0.13      0.00
   -5    4   20      0.21      0.00
   -4    4   20     -0.23      0.00
   -3    4   20      0.16      0.00
   -2    4   20     -0.06      0.00
   -1    4   20      0.02      0.00
    0    4   20     -0.03      0.00
    1    4   20      0.06      0.00
    2    4   20     -0.06      0.00
    3    4   20      0.06      0.00
    4    4   20     -0.06      0.00
    5    4   20      0.03      0.00
    6    4   20      0.04      0.00
    7    4   20     -0.09      0.00
    8    4   20      0.06      0.00
    9    4   20      0.05      0.00
   10    4   20     -0.14      0.00
   11    4   20      0.15      0.00
   -6    5   20      0.08      0.00
   -5    5   20     -0.11      0.00
   -4    5   20      0.14      0.00
   -3    5   20     -0.14      0.00
   -2    5   20      0.10      0.00
   -1    5   20     -0.06      0.00
    0    5   20      0.05      0.00
    1    5   20     -0.05      0.00
    2    5   20      0.05      0.00
    3    5   20     -0.05      0.00
    4    5   20      0.06      0.00
    5    5   20     -0.07      0.00
    6    5   20      0.02      0.00
    7    5   20      0.07      0.00
    8    5   20     -0.10      0.00
    9    5   20      0.03      0.00
   10    5   20      0.09      0.00
   11    5   20     -0.14      0.00
   -6    6   20     -0.05      0.00
   -5    6   20      0.03      0.00
   -4    6   20     -0.03      0.00
   -3    6   20      0.07      0.00
   -2    6   20     -0.09      0.00
   -1    6   20      0.07      0.00
    0    6   20     -0.04      0.00
    1    6   20      0.03      0.00
    2    6   20     -0.02      0.00
    3    6   20      0.02      0.00
    4    6   20     -0.03      0.00
    5    6   20      0.06      0.00
    6    6   20     -0.06      0.00
    7    6   20     -0.00      0.00
    8    6   20      0.08      0.00
    9    6   20     -0.08      0.00
   10    6   20      0.00      0.00
   11    6   20      0.07      0.00
   12    6   20     -0.08      0.00
   -5    7   20     -0.05      0.00
   -4    7   20      0.04      0.00
   -3    7   20     -0.05      0.00
   -2    7   20      0.07      0.00
   -1    7   20     -0.05      0.00
    0    7   20      0.01      0.00
    1    7   20      0.02      0.00
    2    7   20     -0.02      0.00
    3    7   20      0.01      0.00
    4    7   20     -0.00      0.00
    5    7   20     -0.02      0.00
    6    7   20      0.07      0.00
    7    7   20     -0.08      0.00
    8    7   20      0.02      0.00
    9    7   20      0.05      0.00
   10    7   20     -0.05      0.00
   11    7   20      0.01      0.00
   12    7   20      0.02      0.00
   -5    8   20      0.11      0.00
   -4    8   20     -0.11      0.00
   -3    8   20      0.08      0.00
   -2    8   20     -0.06      0.00
   -1    8   20      0.03      0.00
    0    8   20      0.02      0.00
    1    8   20     -0.05      0.00
    2    8   20      0.04      0.00
    3    8   20     -0.00      0.00
    4    8   20     -0.01      0.00
    5    8   20      0.01      0.00
    6    8   20     -0.05      0.00
    7    8   20      0.10      0.00
    8    8   20     -0.11      0.00
    9    8   20      0.04      0.00
   10    8   20      0.05      0.00
   11    8   20     -0.07      0.00
   12    8   20      0.05      0.00
   -4    9   20      0.14      0.00
   -3    9   20     -0.09      0.00
   -2    9   20      0.03      0.00
   -1    9   20      0.01      0.00
    0    9   20     -0.02      0.00
    1    9   20      0.03      0.00
    2    9   20     -0.00      0.00
    3    9   20     -0.04      0.00
    4    9   20      0.06      0.00
    5    9   20     -0.04      0.00
    6    9   20      0.04      0.00
    7    9   20     -0.07      0.00
    8    9   20      0.11      0.00
    9    9   20     -0.08      0.00
   10    9   20     -0.02      0.00
   11    9   20      0.09      0.00
   12    9   20     -0.09      0.00
   -3   10   20      0.03      0.00
   -2   10   20      0.05      0.00
   -1   10   20     -0.09      0.00
    0   10   20      0.06      0.00
    1   10   20      0.01      0.00
    2   10   20     -0.06      0.00
    3   10   20      0.09      0.00
    4   10   20     -0.10      0.00
    5   10   20      0.09      0.00
    6   10   20     -0.06      0.00
    7   10   20      0.03      0.00
    8   10   20     -0.03      0.00
    9   10   20      0.02      0.00
   10   10   20      0.03      0.00
   11   10   20     -0.08      0.00
   12   10   20      0.09      0.00
   -1   11   20      0.15      0.00
    0   11   20     -0.12      0.00
    1   11   20      0.03      0.00
    2   11   20      0.06      0.00
    3   11   20     -0.10      0.00
    4   11   20      0.10      0.00
    5   11   20     -0.10      0.00
    6   11   20      0.09      0.00
    7   11   20     -0.03      0.00
    8   11   20     -0.04      0.00
    9   11   20      0.08      0.00
   10   11   20     -0.08      0.00
   11   11   20      0.07      0.00
   -1   12   20     -0.12      0.00
    0   12   20      0.14      0.00
    1   12   20     -0.09      0.00
    2   12   20      0.01      0.00
    3   12   20      0.04      0.00
    4   12   20     -0.06      0.00
    5   12   20      0.08      0.00
    6   12   20     -0.09      0.00
    7   12   20      0.06      0.00
    8   12   20      0.03      0.00
    9   12   20     -0.11      0.00
   10   12   20      0.13      0.00
   11   12   20     -0.08      0.00
    1   13   20      0.09      0.00
    2   13   20     -0.08      0.00
    3   13   20      0.04      0.00
    4   13   20      0.01      0.00
    5   13   20     -0.04      0.00
    6   13   20      0.07      0.00
    7   13   20     -0.07      0.00
    8   13   20      0.03      0.00
    9   13   20      0.05      0.00
    6   14   20     -0.03      0.00
    7   14   20      0.05      0.00
   -1   -5   21      0.05      0.00
   -5   -4   21     -0.06      0.00
   -4   -4   21      0.05      0.00
   -3   -4   21     -0.06      0.00
   -2   -4   21      0.09      0.00
   -1   -4   21     -0.10      0.00
    0   -4   21      0.09      0.00
    1   -4   21     -0.07      0.00
    2   -4   21      0.07      0.00
   -6   -3   21     -0.07      0.00
   -5   -3   21      0.08      0.00
   -4   -3   21     -0.06      0.00
   -3   -3   21      0.05      0.00
   -2   -3   21     -0.06      0.00
   -1   -3   21      0.09      0.00
    0   -3   21     -0.11      0.00
    1   -3   21      0.09      0.00
    2   -3   21     -0.05      0.00
    3   -3   21      0.00      0.00
    4   -3   21      0.02      0.00
    5   -3   21     -0.03      0.00
   -6   -2   21      0.04      0.00
   -5   -2   21     -0.06      0.00
   -4   -2   21      0.05      0.00
   -3   -2   21     -0.02      0.00
   -2   -2   21     -0.00      0.00
   -1   -2   21     -0.01      0.00
    0   -2   21      0.06      0.00
    1   -2   21     -0.07      0.00
    2   -2   21      0.03      0.00
    3   -2   21      0.05      0.00
    4   -2   21     -0.09      0.00
    5   -2   21      0.07      0.00
    6   -2   21     -0.01      0.00
   -7   -1   21     -0.02      0.00
   -6   -1   21      0.01      0.00
   -5   -1   21     -0.01      0.00
   -4   -1   21     -0.00      0.00
   -3   -1   21     -0.01      0.00
   -2   -1   21      0.04      0.00
   -1   -1   21     -0.06      0.00
    0   -1   21      0.04      0.00
    1   -1   21      0.01      0.00
    2   -1   21     -0.01      0.00
    3   -1   21     -0.04      0.00
    4   -1   21      0.10      0.00
    5   -1   21     -0.09      0.00
    6   -1   21      0.02      0.00
    7   -1   21      0.06      0.00
   -7    0   21      0.06      0.00
   -6    0   21     -0.07      0.00
   -5    0   21      0.07      0.00
   -4    0   21     -0.06      0.00
   -3    0   21      0.05      0.00
   -2    0   21     -0.04      0.00
   -1    0   21      0.06      0.00
    0    0   21     -0.07      0.00
    1    0   21      0.05      0.00
    2    0   21     -0.02      0.00
    3    0   21      0.02      0.00
    4    0   21     -0.06      0.00
    5    0   21      0.07      0.00
    6    0   21     -0.03      0.00
    7    0   21     -0.02      0.00
   -7    1   21     -0.08      0.00
   -6    1   21      0.08      0.00
   -5    1   21     -0.08      0.00
   -4    1   21      0.08      0.00
   -3    1   21     -0.06      0.00
   -2    1   21      0.04      0.00
   -1    1   21     -0.02      0.00
    0    1   21      0.03      0.00
    1    1   21     -0.04      0.00
    2    1   21      0.03      0.00
    3    1   21     -0.01      0.00
    4    1   21      0.02      0.00
    5    1   21     -0.04      0.00
    6    1   21      0.05      0.00
    7    1   21     -0.03      0.00
    8    1   21      0.01      0.00
   -7    2   21      0.07      0.00
   -6    2   21     -0.02      0.00
   -5    2   21     -0.02      0.00
   -4    2   21      0.01      0.00
   -3    2   21      0.02      0.00
   -2    2   21     -0.03      0.00
   -1    2   21     -0.00      0.00
    0    2   21      0.02      0.00
    1    2   21     -0.01      0.00
    2    2   21     -0.00      0.00
    3    2   21      0.00      0.00
    4    2   21     -0.01      0.00
    5    2   21      0.03      0.00
    6    2   21     -0.06      0.00
    7    2   21      0.06      0.00
    8    2   21     -0.04      0.00
    9    2   21      0.02      0.00
   -6    3   21     -0.06      0.00
   -5    3   21      0.15      0.00
   -4    3   21     -0.17      0.00
   -3    3   21      0.10      0.00
   -2    3   21     -0.02      0.00
   -1    3   21      0.01      0.00
    0    3   21     -0.04      0.00
    1    3   21      0.05      0.00
    2    3   21     -0.04      0.00
    3    3   21      0.02      0.00
    4    3   21     -0.01      0.00
    5    3   21     -0.02      0.00
    6    3   21      0.07      0.00
    7    3   21     -0.08      0.00
    8    3   21      0.04      0.00
    9    3   21      0.01      0.00
   -6    4   21      0.09      0.00
   -5    4   21     -0.20      0.00
   -4    4   21      0.25      0.00
   -3    4   21     -0.19      0.00
   -2    4   21      0.10      0.00
   -1    4   21     -0.04      0.00
    0    4   21      0.04      0.00
    1    4   21     -0.05      0.00
    2    4   21      0.04      0.00
    3    4   21     -0.04      0.00
    4    4   21      0.04      0.00
    5    4   21     -0.02      0.00
    6    4   21     -0.04      0.00
    7    4   21      0.09      0.00
    8    4   21     -0.07      0.00
    9    4   21     -0.02      0.00
   10    4   21      0.09      0.00
   11    4   21     -0.10      0.00
   -5    5   21      0.13      0.00
   -4    5   21     -0.19      0.00
   -3    5   21      0.18      0.00
   -2    5   21     -0.13      0.00
   -1    5   21      0.07      0.00
    0    5   21     -0.05      0.00
    1    5   21      0.04      0.00
    2    5   21     -0.02      0.00
    3    5   21      0.01      0.00
    4    5   21     -0.04      0.00
    5    5   21      0.06      0.00
    6    5   21     -0.02      0.00
    7    5   21     -0.07      0.00
    8    5   21      0.11      0.00
    9    5   21     -0.04      0.00
   10    5   21     -0.06      0.00
   11    5   21      0.10      0.00
   -5    6   21     -0.04      0.00
   -4    6   21      0.06      0.00
   -3    6   21     -0.09      0.00
   -2    6   21      0.10      0.00
   -1    6   21     -0.08      0.00
    0    6   21      0.05      0.00
    1    6   21     -0.03      0.00
    2    6   21     -0.00      0.00
    3    6   21      0.02      0.00
    4    6   21      0.00      0.00
    5    6   21     -0.05      0.00
    6    6   21      0.07      0.00
    7    6   21      0.00      0.00
    8    6   21     -0.09      0.00
    9    6   21      0.10      0.00
   10    6   21     -0.02      0.00
   11    6   21     -0.05      0.00
   -4    7   21     -0.00      0.00
   -3    7   21      0.03      0.00
   -2    7   21     -0.06      0.00
   -1    7   21      0.06      0.00
    0    7   21     -0.03      0.00
    1    7   21     -0.00      0.00
    2    7   21      0.02      0.00
    3    7   21     -0.03      0.00
    4    7   21      0.03      0.00
    5    7   21      0.02      0.00
    6    7   21     -0.08      0.00
    7    7   21      0.08      0.00
    8    7   21     -0.01      0.00
    9    7   21     -0.06      0.00
   10    7   21      0.06      0.00
   11    7   21     -0.01      0.00
   -4    8   21      0.04      0.00
   -3    8   21     -0.04      0.00
   -2    8   21      0.05      0.00
   -1    8   21     -0.04      0.00
    0    8   21      0.00      0.00
    1    8   21      0.03      0.00
    2    8   21     -0.03      0.00
    3    8   21      0.01      0.00
    4    8   21     -0.01      0.00
    5    8   21     -0.00      0.00
    6    8   21      0.05      0.00
    7    8   21     -0.12      0.00
    8    8   21      0.12      0.00
    9    8   21     -0.05      0.00
   10    8   21     -0.02      0.00
   11    8   21      0.04      0.00
   -3    9   21      0.08      0.00
   -2    9   21     -0.04      0.00
   -1    9   21      0.01      0.00
    0    9   21      0.01      0.00
    1    9   21     -0.02      0.00
    2    9   21     -0.01      0.00
    3    9   21      0.04      0.00
    4    9   21     -0.05      0.00
    5    9   21      0.04      0.00
    6    9   21     -0.04      0.00
    7    9   21      0.09      0.00
    8    9   21     -0.14      0.00
    9    9   21      0.12      0.00
   10    9   21     -0.03      0.00
   11    9   21     -0.05      0.00
   -2   10   21     -0.00      0.00
   -1   10   21      0.06      0.00
    0   10   21     -0.05      0.00
    1   10   21     -0.00      0.00
    2   10   21      0.07      0.00
    3   10   21     -0.11      0.00
    4   10   21      0.11      0.00
    5   10   21     -0.09      0.00
    6   10   21      0.05      0.00
    7   10   21     -0.04      0.00
    8   10   21      0.07      0.00
    9   10   21     -0.07      0.00
   10   10   21      0.03      0.00
   11   10   21      0.04      0.00
   -1   11   21     -0.12      0.00
    0   11   21      0.11      0.00
    1   11   21     -0.02      0.00
    2   11   21     -0.09      0.00
    3   11   21      0.14      0.00
    4   11   21     -0.14      0.00
    5   11   21      0.11      0.00
    6   11   21     -0.07      0.00
    7   11   21      0.03      0.00
    8   11   21      0.00      0.00
    9   11   21     -0.03      0.00
   10   11   21      0.04      0.00
    1   12   21      0.07      0.00
    2   12   21      0.03      0.00
    3   12   21     -0.10      0.00
    4   12   21      0.11      0.00
    5   12   21     -0.09      0.00
    6   12   21      0.08      0.00
    7   12   21     -0.06      0.00
    8   12   21      0.00      0.00
    9   12   21      0.07      0.00
    4   13   21     -0.04      0.00
    5   13   21      0.05      0.00
    6   13   21     -0.06      0.00
    7   13   21      0.07      0.00
    8   13   21     -0.05      0.00
   -4   -3   22      0.04      0.00
   -3   -3   22     -0.03      0.00
   -2   -3   22      0.04      0.00
   -1   -3   22     -0.08      0.00
    0   -3   22      0.11      0.00
    1   -3   22     -0.10      0.00
   -5   -2   22      0.05      0.00
   -4   -2   22     -0.04      0.00
   -3   -2   22      0.00      0.00
   -2   -2   22      0.02      0.00
   -1   -2   22      0.00      0.00
    0   -2   22     -0.06      0.00
    1   -2   22      0.10      0.00
    2   -2   22     -0.07      0.00
    3   -2   22     -0.00      0.00
    4   -2   22      0.07      0.00
    5   -2   22     -0.08      0.00
   -6   -1   22      0.03      0.00
   -5   -1   22     -0.03      0.00
   -4   -1   22      0.02      0.00
   -3   -1   22      0.01      0.00
   -2   -1   22     -0.05      0.00
   -1   -1   22      0.07      0.00
    0   -1   22     -0.04      0.00
    1   -1   22     -0.02      0.00
    2   -1   22      0.05      0.00
    3   -1   22      0.00      0.00
    4   -1   22     -0.08      0.00
    5   -1   22      0.11      0.00
   -5    0   22     -0.00      0.00
   -4    0   22      0.00      0.00
   -3    0   22     -0.01      0.00
   -2    0   22      0.03      0.00
   -1    0   22     -0.08      0.00
    0    0   22      0.09      0.00
    1    0   22     -0.06      0.00
    2    0   22      0.01      0.00
    3    0   22     -0.01      0.00
    4    0   22      0.05      0.00
    5    0   22     -0.09      0.00
    6    0   22      0.06      0.00
   -5    1   22      0.03      0.00
   -4    1   22     -0.02      0.00
   -3    1   22      0.01      0.00
   -2    1   22     -0.00      0.00
   -1    1   22      0.02      0.00
    0    1   22     -0.05      0.00
    1    1   22      0.07      0.00
    2    1   22     -0.05      0.00
    3    1   22      0.02      0.00
    4    1   22     -0.02      0.00
    5    1   22      0.05      0.00
    6    1   22     -0.06      0.00
    7    1   22      0.04      0.00
   -6    2   22      0.01      0.00
   -5    2   22      0.01      0.00
   -4    2   22     -0.02      0.00
   -3    2   22      0.02      0.00
   -2    2   22     -0.02      0.00
   -1    2   22      0.03      0.00
    0    2   22     -0.02      0.00
    1    2   22     -0.00      0.00
    2    2   22      0.02      0.00
    3    2   22     -0.01      0.00
    4    2   22      0.01      0.00
    5    2   22     -0.03      0.00
    6    2   22      0.06      0.00
    7    2   22     -0.07      0.00
    8    2   22      0.06      0.00
   -6    3   22      0.02      0.00
   -5    3   22     -0.10      0.00
   -4    3   22      0.13      0.00
   -3    3   22     -0.10      0.00
   -2    3   22      0.06      0.00
   -1    3   22     -0.04      0.00
    0    3   22      0.05      0.00
    1    3   22     -0.04      0.00
    2    3   22      0.03      0.00
    3    3   22     -0.02      0.00
    4    3   22      0.02      0.00
    5    3   22      0.01      0.00
    6    3   22     -0.06      0.00
    7    3   22      0.08      0.00
    8    3   22     -0.06      0.00
   -5    4   22      0.16      0.00
   -4    4   22     -0.22      0.00
   -3    4   22      0.19      0.00
   -2    4   22     -0.11      0.00
   -1    4   22      0.06      0.00
    0    4   22     -0.04      0.00
    1    4   22      0.04      0.00
    2    4   22     -0.02      0.00
    3    4   22      0.02      0.00
    4    4   22     -0.04      0.00
    5    4   22      0.03      0.00
    6    4   22      0.03      0.00
    7    4   22     -0.08      0.00
    8    4   22      0.07      0.00
    9    4   22     -0.02      0.00
   -5    5   22     -0.13      0.00
   -4    5   22      0.20      0.00
   -3    5   22     -0.20      0.00
   -2    5   22      0.14      0.00
   -1    5   22     -0.08      0.00
    0    5   22      0.04      0.00
    1    5   22     -0.01      0.00
    2    5   22     -0.02      0.00
    3    5   22      0.03      0.00
    4    5   22      0.01      0.00
    5    5   22     -0.05      0.00
    6    5   22      0.02      0.00
    7    5   22      0.06      0.00
    8    5   22     -0.10      0.00
    9    5   22      0.05      0.00
   -4    6   22     -0.09      0.00
   -3    6   22      0.12      0.00
   -2    6   22     -0.12      0.00
   -1    6   22      0.09      0.00
    0    6   22     -0.05      0.00
    1    6   22      0.01      0.00
    2    6   22      0.04      0.00
    3    6   22     -0.08      0.00
    4    6   22      0.05      0.00
    5    6   22      0.03      0.00
    6    6   22     -0.06      0.00
    7    6   22     -0.00      0.00
    8    6   22      0.09      0.00
    9    6   22     -0.10      0.00
   10    6   22      0.03      0.00
   -4    7   22     -0.01      0.00
   -3    7   22     -0.02      0.00
   -2    7   22      0.06      0.00
   -1    7   22     -0.07      0.00
    0    7   22      0.05      0.00
    1    7   22     -0.01      0.00
    2    7   22     -0.04      0.00
    3    7   22      0.08      0.00
    4    7   22     -0.08      0.00
    5    7   22      0.02      0.00
    6    7   22      0.06      0.00
    7    7   22     -0.07      0.00
    8    7   22      0.00      0.00
    9    7   22      0.07      0.00
   10    7   22     -0.06      0.00
   11    7   22      0.02      0.00
   -3    8   22      0.00      0.00
   -2    8   22     -0.04      0.00
   -1    8   22      0.05      0.00
    0    8   22     -0.03      0.00
    1    8   22     -0.00      0.00
    2    8   22      0.02      0.00
    3    8   22     -0.04      0.00
    4    8   22      0.05      0.00
    5    8   22     -0.03      0.00
    6    8   22     -0.03      0.00
    7    8   22      0.11      0.00
    8    8   22     -0.11      0.00
    9    8   22      0.05      0.00
   10    8   22      0.02      0.00
   11    8   22     -0.03      0.00
   -2    9   22      0.04      0.00
   -1    9   22     -0.03      0.00
    0    9   22      0.01      0.00
    1    9   22     -0.00      0.00
    2    9   22      0.01      0.00
    3    9   22     -0.03      0.00
    4    9   22      0.03      0.00
    5    9   22     -0.01      0.00
    6    9   22      0.02      0.00
    7    9   22     -0.08      0.00
    8    9   22      0.15      0.00
    9    9   22     -0.14      0.00
   10    9   22      0.06      0.00
   -1   10   22     -0.02      0.00
    0   10   22      0.03      0.00
    1   10   22      0.01      0.00
    2   10   22     -0.06      0.00
    3   10   22      0.11      0.00
    4   10   22     -0.11      0.00
    5   10   22      0.07      0.00
    6   10   22     -0.03      0.00
    7   10   22      0.03      0.00
    8   10   22     -0.09      0.00
    9   10   22      0.12      0.00
   10   10   22     -0.08      0.00
    1   11   22      0.01      0.00
    2   11   22      0.09      0.00
    3   11   22     -0.15      0.00
    4   11   22      0.15      0.00
    5   11   22     -0.10      0.00
    6   11   22      0.05      0.00
    7   11   22     -0.01      0.00
    8   11   22      0.01      0.00
    9   11   22     -0.02      0.00
   10   11   22      0.01      0.00
    3   12   22      0.13      0.00
    4   12   22     -0.14      0.00
    5   12   22      0.10      0.00
    6   12   22     -0.05      0.00
    7   12   22      0.02      0.00
    8   12   22      0.00      0.00
   -2   -2   23     -0.04      0.00
   -1   -2   23      0.02      0.00
    0   -2   23      0.04      0.00
   -4   -1   23     -0.02      0.00
   -3   -1   23     -0.01      0.00
   -2   -1   23      0.06      0.00
   -1   -1   23     -0.08      0.00
    0   -1   23      0.05      0.00
    1   -1   23      0.02      0.00
    2   -1   23     -0.07      0.00
    3   -1   23      0.04      0.00
   -5    0   23     -0.04      0.00
   -4    0   23      0.04      0.00
   -3    0   23     -0.02      0.00
   -2    0   23     -0.02      0.00
   -1    0   23      0.08      0.00
    0    0   23     -0.10      0.00
    1    0   23      0.07      0.00
    2    0   23     -0.01      0.00
    3    0   23     -0.02      0.00
    4    0   23     -0.02      0.00
    5    0   23      0.07      0.00
   -4    1   23     -0.03      0.00
   -3    1   23      0.04      0.00
   -2    1   23     -0.03      0.00
   -1    1   23     -0.01      0.00
    0    1   23      0.06      0.00
    1    1   23     -0.08      0.00
    2    1   23      0.05      0.00
    3    1   23     -0.02      0.00
    4    1   23      0.02      0.00
    5    1   23     -0.04      0.00
    6    1   23      0.06      0.00
   -5    2   23     -0.02      0.00
   -4    2   23      0.04      0.00
   -3    2   23     -0.05      0.00
   -2    2   23      0.07      0.00
   -1    2   23     -0.06      0.00
    0    2   23      0.03      0.00
    1    2   23      0.01      0.00
    2    2   23     -0.03      0.00
    3    2   23      0.02      0.00
    4    2   23     -0.01      0.00
    5    2   23      0.03      0.00
    6    2   23     -0.05      0.00
    7    2   23      0.05      0.00
   -5    3   23      0.06      0.00
   -4    3   23     -0.09      0.00
   -3    3   23      0.09      0.00
   -2    3   23     -0.08      0.00
   -1    3   23      0.07      0.00
    0    3   23     -0.06      0.00
    1    3   23      0.04      0.00
    2    3   23     -0.02      0.00
    3    3   23      0.02      0.00
    4    3   23     -0.02      0.00
    5    3   23     -0.01      0.00
    6    3   23      0.04      0.00
    7    3   23     -0.06      0.00
   -4    4   23      0.16      0.00
   -3    4   23     -0.15      0.00
   -2    4   23      0.10      0.00
   -1    4   23     -0.06      0.00
    0    4   23      0.04      0.00
    1    4   23     -0.02      0.00
    2    4   23      0.00      0.00
    3    4   23     -0.01      0.00
    4    4   23      0.03      0.00
    5    4   23     -0.03      0.00
    6    4   23     -0.01      0.00
    7    4   23      0.06      0.00
    8    4   23     -0.06      0.00
   -3    5   23      0.18      0.00
   -2    5   23     -0.12      0.00
   -1    5   23      0.06      0.00
    0    5   23     -0.02      0.00
    1    5   23     -0.01      0.00
    2    5   23      0.05      0.00
    3    5   23     -0.06      0.00
    4    5   23      0.01      0.00
    5    5   23      0.04      0.00
    6    5   23     -0.03      0.00
    7    5   23     -0.04      0.00
    8    5   23      0.07      0.00
   -3    6   23     -0.13      0.00
   -2    6   23      0.12      0.00
   -1    6   23     -0.08      0.00
    0    6   23      0.03      0.00
    1    6   23      0.02      0.00
    2    6   23     -0.08      0.00
    3    6   23      0.13      0.00
    4    6   23     -0.09      0.00
    5    6   23      0.00      0.00
    6    6   23      0.05      0.00
    7    6   23     -0.00      0.00
    8    6   23     -0.07      0.00
    9    6   23      0.08      0.00
   -3    7   23      0.04      0.00
   -2    7   23     -0.07      0.00
   -1    7   23      0.08      0.00
    0    7   23     -0.06      0.00
    1    7   23      0.01      0.00
    2    7   23      0.06      0.00
    3    7   23     -0.13      0.00
    4    7   23      0.14      0.00
    5    7   23     -0.07      0.00
    6    7   23     -0.03      0.00
    7    7   23      0.05      0.00
    8    7   23      0.01      0.00
    9    7   23     -0.08      0.00
   -2    8   23      0.03      0.00
   -1    8   23     -0.07      0.00
    0    8   23      0.07      0.00
    1    8   23     -0.03      0.00
    2    8   23     -0.01      0.00
    3    8   23      0.06      0.00
    4    8   23     -0.10      0.00
    5    8   23      0.08      0.00
    6    8   23     -0.01      0.00
    7    8   23     -0.07      0.00
    8    8   23      0.08      0.00
    9    8   23     -0.02      0.00
   -1    9   23      0.04      0.00
    0    9   23     -0.05      0.00
    1    9   23      0.04      0.00
    2    9   23     -0.03      0.00
    3    9   23      0.02      0.00
    4    9   23      0.00      0.00
    5    9   23     -0.03      0.00
    6    9   23      0.01      0.00
    7    9   23      0.06      0.00
    8    9   23     -0.12      0.00
    9    9   23      0.12      0.00
    0   10   23      0.01      0.00
    1   10   23     -0.02      0.00
    2   10   23      0.06      0.00
    3   10   23     -0.09      0.00
    4   10   23      0.09      0.00
    5   10   23     -0.04      0.00
    6   10   23      0.01      0.00
    7   10   23     -0.02      0.00
    8   10   23      0.08      0.00
    9   10   23     -0.13      0.00
    3   11   23      0.14      0.00
    4   11   23     -0.14      0.00
    5   11   23      0.09      0.00
    6   11   23     -0.02      0.00
    7   11   23     -0.01      0.00
    8   11   23     -0.01      0.00
   -2    0   24      0.01      0.00
   -1    0   24     -0.07      0.00
    0    0   24      0.10      0.00
    1    0   24     -0.07      0.00
    2    0   24      0.01      0.00
   -3    1   24     -0.07      0.00
   -2    1   24      0.06      0.00
   -1    1   24     -0.01      0.00
    0    1   24     -0.05      0.00
    1    1   24      0.07      0.00
    2    1   24     -0.05      0.00
    3    1   24      0.01      0.00
    4    1   24     -0.00      0.00
   -2    2   24     -0.10      0.00
   -1    2   24      0.08      0.00
    0    2   24     -0.04      0.00
    1    2   24     -0.01      0.00
    2    2   24      0.03      0.00
    3    2   24     -0.02      0.00
    4    2   24      0.01      0.00
    5    2   24     -0.02      0.00
   -2    3   24      0.09      0.00
   -1    3   24     -0.09      0.00
    0    3   24      0.07      0.00
    1    3   24     -0.04      0.00
    2    3   24      0.01      0.00
    3    3   24     -0.01      0.00
    4    3   24      0.01      0.00
    5    3   24      0.01      0.00
    6    3   24     -0.03      0.00
   -2    4   24     -0.08      0.00
   -1    4   24      0.06      0.00
    0    4   24     -0.04      0.00
    1    4   24      0.01      0.00
    2    4   24      0.01      0.00
    3    4   24      0.00      0.00
    4    4   24     -0.03      0.00
    5    4   24      0.02      0.00
    6    4   24      0.01      0.00
    7    4   24     -0.04      0.00
   -2    5   24      0.09      0.00
   -1    5   24     -0.04      0.00
    0    5   24      0.00      0.00
    1    5   24      0.04      0.00
    2    5   24     -0.07      0.00
    3    5   24      0.07      0.00
    4    5   24     -0.02      0.00
    5    5   24     -0.03      0.00
    6    5   24      0.03      0.00
    7    5   24      0.02      0.00
   -2    6   24     -0.09      0.00
   -1    6   24      0.05      0.00
    0    6   24     -0.01      0.00
    1    6   24     -0.04      0.00
    2    6   24      0.11      0.00
    3    6   24     -0.15      0.00
    4    6   24      0.12      0.00
    5    6   24     -0.03      0.00
    6    6   24     -0.03      0.00
    7    6   24      0.01      0.00
    8    6   24      0.05      0.00
   -2    7   24      0.07      0.00
   -1    7   24     -0.07      0.00
    0    7   24      0.05      0.00
    1    7   24     -0.01      0.00
    2    7   24     -0.07      0.00
    3    7   24      0.15      0.00
    4    7   24     -0.17      0.00
    5    7   24      0.10      0.00
    6    7   24     -0.00      0.00
    7    7   24     -0.02      0.00
    8    7   24     -0.03      0.00
   -1    8   24      0.07      0.00
    0    8   24     -0.09      0.00
    1    8   24      0.06      0.00
    2    8   24      0.00      0.00
    3    8   24     -0.08      0.00
    4    8   24      0.13      0.00
    5    8   24     -0.12      0.00
    6    8   24      0.04      0.00
    7    8   24      0.03      0.00
    8    8   24     -0.03      0.00
    0    9   24      0.08      0.00
    1    9   24     -0.07      0.00
    2    9   24      0.05      0.00
    3    9   24     -0.01      0.00
    4    9   24     -0.03      0.00
    5    9   24      0.06      0.00
    6    9   24     -0.04      0.00
    7    9   24     -0.02      0.00
    8    9   24      0.07      0.00
    3   10   24      0.07      0.00
    4   10   24     -0.06      0.00
    5   10   24      0.02      0.00
    6   10   24      0.01      0.00
    7   10   24      0.00      0.00
    8   10   24     -0.06      0.00
   -2    2   25      0.10      0.00
   -1    2   25     -0.09      0.00
    0    2   25      0.05      0.00
    1    2   25     -0.00      0.00
    2    2   25     -0.02      0.00
   -1    3   25      0.10      0.00
    0    3   25     -0.08      0.00
    1    3   25      0.04      0.00
    2    3   25     -0.02      0.00
    3    3   25      0.01      0.00
    4    3   25     -0.00      0.00
    0    4   25      0.04      0.00
    1    4   25     -0.01      0.00
    2    4   25     -0.00      0.00
    3    4   25     -0.00      0.00
    4    4   25      0.02      0.00
    5    4   25     -0.01      0.00
    0    5   25      0.01      0.00
    1    5   25     -0.04      0.00
    2    5   25      0.07      0.00
    3    5   25     -0.07      0.00
    4    5   25      0.03      0.00
    5    5   25      0.02      0.00
    6    5   25     -0.02      0.00
   -1    6   25     -0.02      0.00
    0    6   25     -0.02      0.00
    1    6   25      0.06      0.00
    2    6   25     -0.11      0.00
    3    6   25      0.15      0.00
    4    6   25     -0.11      0.00
    5    6   25      0.03      0.00
    6    6   25      0.02      0.00
    0    7   25     -0.03      0.00
    1    7   25     -0.01      0.00
    2    7   25      0.07      0.00
    3    7   25     -0.15      0.00
    4    7   25      0.16      0.00
    5    7   25     -0.10      0.00
    6    7   25      0.02      0.00
    1    8   25     -0.06      0.00
    2    8   25      0.01      0.00
    3    8   25      0.07      0.00
    4    8   25     -0.13      0.00
    5    8   25      0.12      0.00
    6    8   25     -0.05      0.00
    2    9   25     -0.06      0.00
    3    9   25      0.01      0.00
    4    9   25      0.04      0.00
    5    9   25     -0.07      0.00
    3    4   26      0.02      0.00
    2    5   26     -0.05      0.00
    3    5   26      0.05      0.00
    3    6   26     -0.11      0.00
    4    6   26      0.08      0.00
  -13    4    0     -0.07      0.00
   16    4    0      0.02      0.00
   16    5    0     -0.02      0.00
   16    6    0      0.09      0.00
  -11    7    0      0.03      0.00
   16    7    0     -0.14      0.00
  -10    8    0      0.05      0.00
   16    8    0      0.13      0.00
   -9    9    0      0.08      0.00
   16    9    0     -0.09      0.00
   -8   10    0      0.04      0.00
   -7   11    0     -0.01      0.00
   15   12    0      0.07      0.00
   -4   13    0      0.00      0.00
   14   13    0      0.12      0.00
   -2   14    0     -0.01      0.00
   13   14    0      0.12      0.00
    0   15    0     -0.01      0.00
    4   16    0      0.03      0.00
    5   16    0     -0.01      0.00
    7   16    0      0.06      0.00
    8   16    0     -0.08      0.00
    9   16    0      0.07      0.00
   -7  -16    1     -0.05      0.00
   -6  -16    1      0.02      0.00
   -5  -16    1      0.02      0.00
  -11  -15    1     -0.00      0.00
   -1  -15    1     -0.02      0.00
    2  -14    1     -0.01      0.00
  -15  -11    1      0.01      0.00
    8  -10    1     -0.02      0.00
  -16   -9    1      0.10      0.00
    9   -9    1     -0.07      0.00
  -16   -8    1     -0.13      0.00
   10   -8    1     -0.07      0.00
  -16   -7    1      0.13      0.00
   11   -7    1     -0.03      0.00
  -16   -6    1     -0.07      0.00
  -16   -5    1     -0.01      0.00
  -16   -4    1      0.03      0.00
   13   -4    1      0.05      0.00
  -16   -3    1      0.02      0.00
    0    0    1     -8.27      0.00
   15    0    1     -0.07      0.00
  -14    2    1      0.07      0.00
   16    4    1     -0.05      0.00
  -11    7    1     -0.03      0.00
  -10    8    1     -0.03      0.00
   16    9    1      0.05      0.00
   16   10    1     -0.01      0.00
   -7   11    1      0.00      0.00
   15   12    1     -0.06      0.00
   13   14    1     -0.07      0.00
    0   15    1     -0.00      0.00
   12   15    1      0.02      0.00
    3   16    1      0.02      0.00
    4   16    1     -0.02      0.00
    8   16    1      0.09      0.00
    9   16    1     -0.09      0.00
   10   16    1      0.06      0.00
  -10  -15    2     -0.02      0.00
   -1  -15    2      0.02      0.00
    3  -13    2     -0.00      0.00
    5  -12    2     -0.02      0.00
  -15  -11    2      0.00      0.00
  -15  -10    2     -0.06      0.00
    9   -9    2      0.05      0.00
  -16   -8    2      0.10      0.00
   10   -8    2      0.06      0.00
  -16   -7    2     -0.09      0.00
  -16   -6    2      0.03      0.00
  -16   -5    2      0.04      0.00
   12   -5    2     -0.05      0.00
  -16   -4    2     -0.07      0.00
   13   -4    2     -0.04      0.00
  -16   -3    2      0.04      0.00
  -15    0    2     -0.02      0.00
  -14    2    2     -0.02      0.00
   16    2    2      0.09      0.00
  -13    4    2     -0.07      0.00
  -11    7    2      0.04      0.00
   16   10    2     -0.03      0.00
   -7   11    2      0.00      0.00
   -6   12    2     -0.01      0.00
   13   14    2     -0.01      0.00
    0   15    2      0.01      0.00
   12   15    2     -0.07      0.00
    2   16    2      0.01      0.00
    3   16    2     -0.01      0.00
    4   16    2      0.00      0.00
    9   16    2      0.10      0.00
   10   16    2     -0.06      0.00
   -9  -15    3     -0.03      0.00
   -2  -15    3      0.02      0.00
    1  -14    3      0.05      0.00
  -13  -13    3      0.05      0.00
    3  -13    3     -0.01      0.00
  -14  -12    3      0.05      0.00
    6  -11    3      0.06      0.00
  -15  -10    3      0.05      0.00
  -16   -7    3      0.04      0.00
  -16   -6    3      0.00      0.00
  -16   -5    3     -0.06      0.00
   12   -5    3      0.04      0.00
  -16   -4    3      0.09      0.00
   13   -4    3      0.03      0.00
   14   -2    3      0.12      0.00
  -15    0    3      0.01      0.00
   15    0    3     -0.08      0.00
  -13    4    3      0.05      0.00
  -11    7    3     -0.06      0.00
   16   10    3      0.04      0.00
   -6   12    3      0.02      0.00
   15   12    3     -0.01      0.00
   -3   14    3      0.06      0.00
   14   14    3     -0.10      0.00
   -1   15    3      0.00      0.00
    2   16    3     -0.01      0.00
    3   16    3     -0.01      0.00
   10   16    3      0.03      0.00
   11   16    3      0.06      0.00
   -8  -15    4     -0.01      0.00
   -7  -15    4     -0.01      0.00
   -6  -15    4     -0.02      0.00
   -4  -15    4     -0.08      0.00
   -3  -15    4      0.05      0.00
  -11  -14    4     -0.10      0.00
    0  -14    4      0.02      0.00
    6  -11    4     -0.07      0.00
    7  -10    4     -0.08      0.00
  -15   -9    4      0.06      0.00
   11   -6    4     -0.06      0.00
   12   -5    4     -0.03      0.00
   14   -2    4     -0.08      0.00
  -15   -1    4     -0.02      0.00
  -15    0    4     -0.01      0.00
   15    0    4      0.04      0.00
  -14    2    4      0.02      0.00
   16    3    4     -0.04      0.00
  -13    4    4     -0.02      0.00
  -11    7    4      0.07      0.00
  -10    8    4     -0.00      0.00
   16   11    4      0.03      0.00
   -6   12    4     -0.01      0.00
   15   12    4     -0.02      0.00
   15   13    4      0.09      0.00
   -3   14    4     -0.08      0.00
   14   14    4      0.14      0.00
   -1   15    4      0.01      0.00
   13   15    4      0.08      0.00
    2   16    4     -0.01      0.00
    3   16    4      0.05      0.00
   11   16    4     -0.09      0.00
   -6  -15    5      0.03      0.00
  -10  -14    5     -0.14      0.00
   -1  -14    5      0.00      0.00
  -12  -13    5      0.05      0.00
    2  -13    5     -0.01      0.00
  -13  -12    5      0.01      0.00
    4  -12    5      0.02      0.00
  -14  -11    5     -0.02      0.00
    7  -10    5      0.08      0.00
  -15   -9    5     -0.04      0.00
    8   -9    5      0.06      0.00
  -15   -8    5      0.04      0.00
  -15   -7    5     -0.02      0.00
   11   -6    5      0.05      0.00
   12   -5    5      0.03      0.00
   13   -3    5      0.03      0.00
   14   -2    5      0.05      0.00
  -15   -1    5      0.04      0.00
   15    0    5     -0.01      0.00
  -14    2    5     -0.03      0.00
   16    3    5      0.02      0.00
  -13    4    5     -0.01      0.00
  -11    7    5     -0.06      0.00
  -10    8    5     -0.01      0.00
   -7   11    5     -0.00      0.00
   16   11    5      0.04      0.00
   -6   12    5     -0.00      0.00
   15   12    5      0.04      0.00
   15   13    5     -0.08      0.00
   -3   14    5      0.09      0.00
   14   14    5     -0.13      0.00
   -1   15    5     -0.02      0.00
   13   15    5     -0.06      0.00
    1   16    5      0.00      0.00
    2   16    5      0.03      0.00
   -9  -14    6     -0.12      0.00
   -2  -14    6      0.03      0.00
  -11  -13    6      0.06      0.00
    1  -13    6     -0.03      0.00
    3  -12    6      0.06      0.00
  -13  -11    6     -0.03      0.00
    5  -11    6     -0.01      0.00
  -14  -10    6     -0.04      0.00
    8   -9    6     -0.04      0.00
  -15   -8    6     -0.04      0.00
    9   -8    6     -0.01      0.00
  -15   -7    6      0.02      0.00
   10   -7    6     -0.01      0.00
  -15   -6    6     -0.01      0.00
   11   -6    6     -0.02      0.00
  -15   -5    6      0.01      0.00
  -15   -4    6     -0.01      0.00
  -15   -3    6     -0.02      0.00
    3   -3    6     -0.12      0.00
   13   -3    6     -0.02      0.00
  -15   -2    6      0.05      0.00
  -15   -1    6     -0.04      0.00
   14   -1    6      0.04      0.00
  -14    1    6     -0.03      0.00
   15    1    6      0.08      0.00
   16    3    6     -0.02      0.00
  -11    7    6      0.05      0.00
  -10    8    6      0.03      0.00
   -9    9    6     -0.04      0.00
   -7   11    6     -0.00      0.00
   16   11    6     -0.12      0.00
   -6   12    6      0.02      0.00
   15   12    6     -0.07      0.00
   15   13    6      0.05      0.00
   -3   14    6     -0.08      0.00
   14   14    6      0.09      0.00
   -1   15    6      0.03      0.00
   13   15    6      0.03      0.00
    1   16    6      0.01      0.00
    2   16    6     -0.05      0.00
   -8  -14    7     -0.07      0.00
   -7  -14    7      0.05      0.00
   -6  -14    7     -0.04      0.00
   -5  -14    7      0.04      0.00
   -3  -14    7      0.02      0.00
  -10  -13    7      0.05      0.00
    1  -13    7      0.03      0.00
  -12  -12    7      0.02      0.00
    3  -12    7     -0.05      0.00
  -13  -11    7      0.06      0.00
  -13  -10    7     -0.10      0.00
    6  -10    7     -0.02      0.00
  -14   -9    7     -0.03      0.00
  -15   -7    7     -0.03      0.00
  -15   -6    7      0.02      0.00
  -15   -5    7     -0.03      0.00
  -15   -4    7      0.05      0.00
   12   -4    7      0.01      0.00
  -15   -3    7     -0.02      0.00
   13   -3    7      0.01      0.00
  -15   -2    7     -0.03      0.00
   14   -1    7     -0.05      0.00
  -14    1    7      0.02      0.00
   15    1    7     -0.05      0.00
  -10    8    7     -0.04      0.00
   -9    9    7      0.02      0.00
   -7   11    7      0.02      0.00
   16   11    7      0.17      0.00
   -6   12    7     -0.03      0.00
   15   12    7      0.09      0.00
   15   13    7     -0.03      0.00
   -3   14    7      0.07      0.00
   14   14    7     -0.06      0.00
   -1   15    7     -0.03      0.00
   13   15    7     -0.01      0.00
    1   16    7     -0.02      0.00
    2   16    7      0.05      0.00
   -9  -13    8      0.04      0.00
   -1  -13    8      0.01      0.00
    0  -13    8     -0.00      0.00
  -11  -12    8      0.06      0.00
    2  -12    8     -0.04      0.00
    4  -11    8      0.06      0.00
  -13  -10    8      0.12      0.00
    7   -9    8      0.03      0.00
  -14   -8    8      0.02      0.00
    8   -8    8      0.03      0.00
   12   -4    8     -0.02      0.00
   13   -2    8      0.04      0.00
   14   -1    8      0.05      0.00
  -14    0    8     -0.06      0.00
  -14    1    8      0.01      0.00
   15    1    8      0.02      0.00
  -13    3    8      0.01      0.00
   16    4    8      0.05      0.00
  -12    5    8      0.05      0.00
  -10    8    8      0.05      0.00
   -9    9    8      0.01      0.00
   -8   10    8     -0.05      0.00
   16   10    8      0.17      0.00
   -7   11    8     -0.04      0.00
   16   11    8     -0.18      0.00
   -6   12    8      0.01      0.00
   15   12    8     -0.07      0.00
   15   13    8      0.00      0.00
   -3   14    8     -0.06      0.00
   14   14    8      0.03      0.00
   -1   15    8      0.01      0.00
   13   15    8      0.01      0.00
    1   16    8      0.03      0.00
    2   16    8     -0.04      0.00
   11   16    8     -0.21      0.00
   12   16    8      0.12      0.00
   -8  -13    9      0.05      0.00
   -7  -13    9     -0.08      0.00
   -5  -13    9     -0.04      0.00
   -4  -13    9     -0.01      0.00
   -2  -13    9     -0.03      0.00
  -10  -12    9      0.10      0.00
    1  -12    9      0.00      0.00
    3  -11    9      0.03      0.00
    5  -10    9     -0.04      0.00
  -13   -9    9      0.12      0.00
    8   -8    9     -0.01      0.00
  -14   -7    9      0.04      0.00
    9   -7    9      0.02      0.00
   10   -6    9      0.05      0.00
  -14   -5    9     -0.01      0.00
   11   -5    9      0.04      0.00
  -14   -2    9     -0.04      0.00
   13   -2    9     -0.04      0.00
  -14   -1    9     -0.02      0.00
  -14    0    9      0.06      0.00
   14    0    9      0.00      0.00
   15    2    9      0.08      0.00
   16    5    9      0.06      0.00
   16    8    9      0.02      0.00
   -9    9    9     -0.04      0.00
   16    9    9      0.05      0.00
   -8   10    9      0.02      0.00
   16   10    9     -0.13      0.00
   -7   11    9      0.06      0.00
   16   11    9      0.13      0.00
   15   12    9      0.03      0.00
   15   13    9      0.02      0.00
   -3   14    9      0.03      0.00
   14   14    9     -0.01      0.00
   -1   15    9      0.00      0.00
   13   15    9     -0.01      0.00
    1   16    9     -0.03      0.00
    2   16    9      0.02      0.00
   11   16    9      0.19      0.00
   -6  -13   10     -0.07      0.00
   -5  -13   10      0.02      0.00
   -4  -13   10      0.04      0.00
   -9  -12   10      0.10      0.00
  -11  -11   10     -0.10      0.00
    2  -11   10     -0.02      0.00
    3  -11   10      0.00      0.00
  -12  -10   10     -0.10      0.00
  -13   -8   10      0.05      0.00
  -14   -6   10      0.02      0.00
  -14   -5   10      0.01      0.00
  -14   -4   10      0.01      0.00
  -14   -3   10     -0.05      0.00
   12   -3   10      0.04      0.00
  -14   -2   10      0.05      0.00
   13   -2   10      0.04      0.00
  -14   -1   10     -0.00      0.00
   14    0   10     -0.01      0.00
  -13    2   10      0.07      0.00
   15    2   10     -0.08      0.00
  -12    4   10     -0.04      0.00
   16    5   10     -0.04      0.00
  -11    6   10      0.03      0.00
   16    6   10      0.01      0.00
   16    7   10      0.01      0.00
   16    8   10      0.01      0.00
   16    9   10     -0.05      0.00
   16   10   10      0.09      0.00
   15   12   10      0.02      0.00
   -4   13   10      0.01      0.00
   15   13   10     -0.04      0.00
   -3   14   10      0.00      0.00
   14   14   10      0.00      0.00
   -1   15   10     -0.02      0.00
   13   15   10      0.02      0.00
    1   16   10      0.03      0.00
    2   16   10     -0.01      0.00
   11   16   10     -0.15      0.00
   -8  -12   11      0.03      0.00
   -7  -12   11      0.04      0.00
   -3  -12   11     -0.08      0.00
   -1  -12   11     -0.03      0.00
  -10  -11   11     -0.14      0.00
   -9  -11   11      0.16      0.00
    2  -11   11      0.04      0.00
  -11  -10   11     -0.08      0.00
    4  -10   11     -0.00      0.00
  -12   -9   11     -0.09      0.00
    7   -8   11      0.00      0.00
  -13   -7   11     -0.03      0.00
    8   -7   11      0.02      0.00
    9   -6   11      0.02      0.00
   10   -5   11      0.00      0.00
   11   -4   11     -0.01      0.00
   12   -3   11     -0.03      0.00
   13   -1   11      0.03      0.00
  -13    1   11      0.07      0.00
  -12    4   11      0.04      0.00
   16    6   11      0.02      0.00
  -10    7   11      0.01      0.00
   16    7   11     -0.02      0.00
   16    8   11     -0.02      0.00
   16    9   11      0.07      0.00
   15   12   11     -0.03      0.00
   -4   13   11     -0.05      0.00
   14   14   11      0.01      0.00
   -1   15   11      0.03      0.00
   13   15   11     -0.03      0.00
    2   16   11     -0.00      0.00
   11   16   11      0.10      0.00
   -5  -12   12     -0.01      0.00
   -4  -12   12     -0.04      0.00
   -3  -12   12      0.08      0.00
   -9  -11   12     -0.13      0.00
   -8  -11   12      0.08      0.00
    1  -11   12      0.07      0.00
  -10  -10   12     -0.10      0.00
    3  -10   12     -0.05      0.00
  -11   -9   12     -0.04      0.00
    5   -9   12     -0.02      0.00
  -12   -8   12     -0.05      0.00
  -13   -6   12     -0.07      0.00
    9   -6   12      0.00      0.00
   10   -5   12      0.01      0.00
  -13   -4   12     -0.05      0.00
   12   -2   12     -0.04      0.00
  -13   -1   12      0.07      0.00
   13   -1   12     -0.04      0.00
  -13    0   12     -0.01      0.00
   14    1   12     -0.02      0.00
  -12    2   12     -0.07      0.00
  -12    3   12      0.07      0.00
   15    3   12      0.09      0.00
  -11    5   12     -0.04      0.00
   -9    8   12     -0.08      0.00
   -7   10   12     -0.10      0.00
   15   11   12      0.05      0.00
   -5   12   12      0.04      0.00
   15   12   12      0.00      0.00
   -4   13   12      0.05      0.00
   -2   14   12     -0.07      0.00
    0   15   12      0.02      0.00
   12   15   12     -0.07      0.00
   13   15   12      0.04      0.00
    2   16   12      0.01      0.00
   10   16   12      0.11      0.00
   11   16   12     -0.08      0.00
   -7  -11   13      0.01      0.00
   -6  -11   13      0.01      0.00
   -1  -11   13      0.04      0.00
   -9  -10   13     -0.09      0.00
    2  -10   13     -0.10      0.00
  -10   -9   13     -0.03      0.00
    4   -9   13      0.02      0.00
  -11   -8   13     -0.00      0.00
  -12   -7   13      0.00      0.00
    7   -7   13      0.09      0.00
  -13   -4   13      0.09      0.00
   10   -4   13      0.05      0.00
  -13   -3   13     -0.07      0.00
   11   -3   13      0.03      0.00
  -13   -2   13      0.06      0.00
   12   -2   13      0.03      0.00
   13    0   13     -0.05      0.00
  -12    2   13      0.04      0.00
   15    4   13      0.06      0.00
   15    5   13      0.02      0.00
  -10    6   13      0.01      0.00
   -8    9   13      0.11      0.00
   -6   11   13      0.06      0.00
   15   11   13     -0.08      0.00
   -5   12   13      0.01      0.00
   14   13   13      0.04      0.00
   -2   14   13      0.04      0.00
    0   15   13     -0.00      0.00
   12   15   13      0.11      0.00
    2   16   13     -0.03      0.00
   10   16   13     -0.11      0.00
   11   16   13      0.08      0.00
   -8  -10   14     -0.02      0.00
   -7  -10   14      0.01      0.00
    0  -10   14      0.00      0.00
    1  -10   14     -0.08      0.00
   -9   -9   14     -0.02      0.00
    3   -9   14      0.10      0.00
  -10   -8   14      0.02      0.00
    5   -8   14      0.02      0.00
  -11   -7   14      0.01      0.00
    6   -7   14      0.08      0.00
    9   -5   14     -0.09      0.00
   10   -4   14     -0.07      0.00
   12   -1   14      0.07      0.00
  -12    0   14      0.03      0.00
   13    0   14      0.07      0.00
  -12    1   14     -0.01      0.00
   14    2   14     -0.03      0.00
  -11    3   14      0.01      0.00
  -11    4   14     -0.01      0.00
   15    5   14      0.01      0.00
  -10    6   14      0.01      0.00
   15    6   14      0.05      0.00
   -9    7   14      0.02      0.00
   15   10   14     -0.05      0.00
   15   11   14      0.08      0.00
   14   13   14     -0.06      0.00
   -2   14   14      0.02      0.00
   13   14   14     -0.03      0.00
    0   15   14     -0.03      0.00
   12   15   14     -0.15      0.00
    3   16   14     -0.05      0.00
    9   16   14     -0.13      0.00
   10   16   14      0.10      0.00
   -6  -10   15      0.05      0.00
   -5  -10   15     -0.08      0.00
   -4  -10   15      0.08      0.00
   -3  -10   15     -0.07      0.00
   -2  -10   15      0.08      0.00
   -1  -10   15     -0.07      0.00
   -8   -9   15      0.03      0.00
   -7   -9   15     -0.04      0.00
    2   -9   15      0.09      0.00
   -9   -8   15      0.03      0.00
    4   -8   15     -0.08      0.00
  -10   -7   15      0.02      0.00
    5   -7   15     -0.05      0.00
  -11   -6   15      0.01      0.00
    7   -6   15     -0.11      0.00
  -12   -3   15      0.12      0.00
   10   -3   15     -0.11      0.00
  -12   -2   15     -0.07      0.00
   11   -2   15     -0.09      0.00
  -12   -1   15      0.02      0.00
   13    1   15      0.08      0.00
  -11    2   15      0.02      0.00
  -11    3   15     -0.02      0.00
   14    3   15     -0.02      0.00
   14    4   15     -0.00      0.00
  -10    5   15      0.05      0.00
   -9    7   15     -0.01      0.00
   15    7   15      0.04      0.00
   -8    8   15     -0.02      0.00
   15    8   15     -0.06      0.00
   15    9   15      0.07      0.00
   15   10   15     -0.03      0.00
   14   12   15     -0.14      0.00
   -3   13   15     -0.07      0.00
   13   14   15      0.02      0.00
    3   16   15      0.07      0.00
    4   16   15     -0.07      0.00
    9   16   15      0.10      0.00
   10   16   15     -0.08      0.00
   -7   -9   16      0.05      0.00
   -6   -9   16      0.01      0.00
   -5   -9   16     -0.07      0.00
    0   -9   16      0.06      0.00
   -8   -8   16      0.06      0.00
    3   -8   16     -0.08      0.00
   -9   -7   16      0.01      0.00
    5   -7   16      0.06      0.00
  -10   -6   16     -0.01      0.00
    6   -6   16      0.02      0.00
    7   -5   16     -0.06      0.00
  -11   -4   16     -0.10      0.00
  -11    0   16      0.01      0.00
   12    0   16     -0.09      0.00
  -11    1   16     -0.02      0.00
   13    2   16      0.06      0.00
  -10    3   16     -0.02      0.00
  -10    4   16      0.05      0.00
   14    4   16     -0.01      0.00
   14    5   16     -0.00      0.00
   -9    6   16     -0.05      0.00
   14    6   16      0.03      0.00
   -7    9   16      0.01      0.00
   -6   10   16      0.03      0.00
   -5   11   16      0.01      0.00
   14   11   16     -0.04      0.00
   -4   12   16     -0.00      0.00
   14   12   16      0.09      0.00
   -1   14   16     -0.08      0.00
    1   15   16      0.06      0.00
   11   15   16      0.18      0.00
    4   16   16      0.07      0.00
    5   16   16     -0.08      0.00
    6   16   16      0.11      0.00
    7   16   16     -0.12      0.00
    8   16   16      0.10      0.00
    9   16   16     -0.05      0.00
   -3   -9   17      0.03      0.00
   -7   -8   17      0.08      0.00
   -6   -8   17     -0.04      0.00
   -5   -8   17     -0.03      0.00
   -8   -7   17      0.02      0.00
    4   -7   17      0.08      0.00
   -9   -6   17     -0.03      0.00
    5   -6   17      0.12      0.00
  -10   -5   17     -0.02      0.00
    7   -5   17      0.00      0.00
    8   -4   17      0.06      0.00
    9   -3   17      0.08      0.00
   10   -2   17      0.08      0.00
   12    1   17     -0.07      0.00
  -10    2   17      0.02      0.00
  -10    3   17     -0.00      0.00
   13    3   17      0.04      0.00
   14    6   17     -0.01      0.00
   -8    7   17     -0.00      0.00
   14    7   17      0.04      0.00
   -7    8   17     -0.05      0.00
   14    8   17     -0.02      0.00
   14    9   17     -0.04      0.00
   14   10   17      0.06      0.00
   -4   11   17     -0.00      0.00
   14   11   17     -0.01      0.00
   -3   12   17     -0.02      0.00
   13   12   17     -0.02      0.00
   -2   13   17      0.00      0.00
   13   13   17      0.04      0.00
    0   14   17     -0.03      0.00
   12   14   17     -0.08      0.00
    2   15   17      0.03      0.00
    6   16   17     -0.08      0.00
    7   16   17      0.09      0.00
   -5   -8   18      0.05      0.00
   -4   -8   18     -0.07      0.00
   -3   -8   18      0.03      0.00
   -2   -8   18      0.01      0.00
   -1   -8   18      0.01      0.00
   -7   -7   18      0.04      0.00
   -6   -7   18     -0.06      0.00
    2   -7   18      0.08      0.00
   -8   -6   18     -0.04      0.00
   -9   -5   18     -0.04      0.00
    6   -5   18     -0.09      0.00
  -10   -3   18     -0.05      0.00
  -10   -2   18      0.07      0.00
  -10   -1   18     -0.06      0.00
  -10    0   18      0.03      0.00
   11    0   18      0.05      0.00
  -10    1   18     -0.00      0.00
   12    2   18     -0.05      0.00
   -9    3   18     -0.03      0.00
   -9    4   18      0.02      0.00
   13    4   18      0.05      0.00
   13    5   18     -0.07      0.00
   -8    6   18     -0.00      0.00
   -6    9   18      0.08      0.00
   -5   10   18      0.04      0.00
   -4   11   18      0.00      0.00
   13   11   18     -0.02      0.00
   -3   12   18      0.02      0.00
   13   12   18      0.05      0.00
   -1   13   18     -0.01      0.00
    1   14   18     -0.02      0.00
   11   14   18     -0.13      0.00
    3   15   18      0.02      0.00
    9   15   18     -0.01      0.00
   -5   -7   19      0.01      0.00
   -4   -7   19     -0.05      0.00
   -3   -7   19      0.05      0.00
   -2   -7   19      0.00      0.00
   -1   -7   19     -0.01      0.00
    0   -7   19     -0.03      0.00
   -7   -6   19     -0.02      0.00
   -6   -6   19     -0.01      0.00
    3   -6   19     -0.08      0.00
   -8   -5   19     -0.05      0.00
   -7   -5   19      0.07      0.00
    5   -5   19     -0.07      0.00
   -8   -4   19      0.04      0.00
   -9   -3   19     -0.01      0.00
   -9   -2   19      0.06      0.00
   -9    1   19     -0.07      0.00
   11    1   19      0.02      0.00
   -9    2   19      0.04      0.00
   -9    3   19     -0.00      0.00
   12    3   19     -0.08      0.00
   -8    4   19      0.05      0.00
   -8    5   19     -0.04      0.00
   -7    6   19     -0.06      0.00
   13    6   19     -0.05      0.00
   -7    7   19      0.05      0.00
   13    7   19      0.00      0.00
   13    8   19      0.05      0.00
   13    9   19     -0.07      0.00
   13   10   19      0.05      0.00
   -3   11   19     -0.04      0.00
   -2   12   19     -0.04      0.00
   12   12   19      0.02      0.00
    1   14   19      0.01      0.00
   10   14   19     -0.07      0.00
    4   15   19      0.01      0.00
    5   15   19      0.01      0.00
    6   15   19      0.00      0.00
    7   15   19     -0.01      0.00
    8   15   19     -0.00      0.00
   -5   -6   20     -0.00      0.00
   -4   -6   20     -0.03      0.00
   -3   -6   20      0.05      0.00
   -2   -6   20     -0.04      0.00
    0   -6   20     -0.02      0.00
    1   -6   20      0.07      0.00
   -6   -5   20      0.05      0.00
   -5   -5   20     -0.03      0.00
   -7   -4   20      0.06      0.00
    5   -4   20     -0.03      0.00
   -8   -3   20      0.01      0.00
   10    1   20     -0.02      0.00
   -8    2   20      0.08      0.00
   11    2   20      0.03      0.00
   -8    3   20     -0.04      0.00
   -8    4   20     -0.01      0.00
   12    4   20     -0.11      0.00
   -7    5   20     -0.06      0.00
   12    5   20      0.11      0.00
   -7    6   20      0.05      0.00
   -6    7   20      0.06      0.00
   -5    9   20     -0.11      0.00
   -4   10   20     -0.08      0.00
   -2   11   20     -0.10      0.00
   12   11   20     -0.05      0.00
    0   13   20     -0.06      0.00
   10   13   20     -0.11      0.00
   11   13   20      0.09      0.00
    3   14   20     -0.07      0.00
    4   14   20      0.03      0.00
    5   14   20      0.01      0.00
    8   14   20     -0.05      0.00
    9   14   20      0.02      0.00
   -4   -5   21     -0.03      0.00
   -3   -5   21      0.06      0.00
   -2   -5   21     -0.07      0.00
    0   -5   21     -0.04      0.00
    1   -5   21      0.05      0.00
   -6   -4   21      0.06      0.00
    3   -4   21     -0.07      0.00
   -7   -2   21     -0.02      0.00
    8    0   21      0.04      0.00
    9    1   21     -0.03      0.00
   10    2   21     -0.02      0.00
   -7    3   21     -0.03      0.00
   10    3   21     -0.05      0.00
   -7    4   21     -0.00      0.00
   -6    5   21     -0.07      0.00
   -6    6   21      0.03      0.00
   -5    7   21      0.01      0.00
   12    7   21     -0.01      0.00
   -5    8   21     -0.04      0.00
   12    8   21     -0.03      0.00
   -4    9   21     -0.09      0.00
   12    9   21      0.06      0.00
   -3   10   21     -0.06      0.00
   -2   11   21      0.06      0.00
   11   11   21     -0.06      0.00
    0   12   21     -0.13      0.00
   10   12   21     -0.10      0.00
   11   12   21      0.08      0.00
    1   13   21     -0.08      0.00
    2   13   21      0.05      0.00
    3   13   21      0.00      0.00
    9   13   21     -0.01      0.00
   10   13   21      0.07      0.00
    4   14   21     -0.02      0.00
    5   14   21     -0.01      0.00
    6   14   21      0.03      0.00
    7   14   21     -0.05      0.00
    8   14   21      0.06      0.00
   -3   -4   22      0.04      0.00
   -2   -4   22     -0.07      0.00
   -1   -4   22      0.08      0.00
    0   -4   22     -0.07      0.00
    1   -4   22      0.05      0.00
   -5   -3   22     -0.05      0.00
    2   -3   22      0.06      0.00
    3   -3   22     -0.02      0.00
    4   -3   22     -0.01      0.00
   -6   -2   22     -0.04      0.00
    6   -1   22     -0.06      0.00
   -6    0   22      0.00      0.00
    7    0   22     -0.00      0.00
   -6    1   22     -0.02      0.00
    8    1   22     -0.02      0.00
    9    2   22     -0.05      0.00
    9    3   22      0.04      0.00
   10    3   22     -0.02      0.00
   -6    4   22     -0.05      0.00
   10    4   22     -0.03      0.00
   -6    5   22      0.05      0.00
   10    5   22      0.03      0.00
   -5    6   22      0.05      0.00
   11    6   22      0.03      0.00
   -4    8   22      0.02      0.00
   -3    9   22     -0.04      0.00
   11    9   22      0.01      0.00
   -2   10   22     -0.03      0.00
   11   10   22      0.00      0.00
   -1   11   22      0.06      0.00
    0   11   22     -0.08      0.00
    1   12   22     -0.05      0.00
    2   12   22     -0.05      0.00
    9   12   22     -0.04      0.00
    3   13   22     -0.05      0.00
    4   13   22      0.08      0.00
    5   13   22     -0.06      0.00
    6   13   22      0.04      0.00
    7   13   22     -0.04      0.00
    8   13   22      0.03      0.00
   -2   -3   23     -0.01      0.00
   -1   -3   23      0.05      0.00
    0   -3   23     -0.07      0.00
    1   -3   23      0.07      0.00
   -4   -2   23      0.01      0.00
   -3   -2   23      0.01      0.00
    1   -2   23     -0.09      0.00
    2   -2   23      0.09      0.00
    3   -2   23     -0.03      0.00
   -5   -1   23      0.03      0.00
    4   -1   23      0.03      0.00
    5   -1   23     -0.08      0.00
    6    0   23     -0.06      0.00
   -5    1   23      0.02      0.00
    7    1   23     -0.03      0.00
    8    2   23     -0.05      0.00
    8    3   23      0.06      0.00
    9    3   23     -0.05      0.00
   -5    4   23     -0.10      0.00
    9    4   23      0.03      0.00
   -5    5   23      0.10      0.00
   -4    5   23     -0.17      0.00
    9    5   23     -0.04      0.00
   10    5   23     -0.00      0.00
   -4    6   23      0.10      0.00
   10    6   23     -0.03      0.00
   -4    7   23      0.00      0.00
   10    7   23      0.07      0.00
   -3    8   23      0.02      0.00
   10    8   23     -0.03      0.00
   -2    9   23     -0.02      0.00
   10    9   23     -0.06      0.00
   -1   10   23     -0.01      0.00
   10   10   23      0.10      0.00
    0   11   23      0.04      0.00
    1   11   23     -0.01      0.00
    2   11   23     -0.07      0.00
    9   11   23      0.04      0.00
    2   12   23      0.05      0.00
    3   12   23     -0.13      0.00
    4   12   23      0.15      0.00
    5   12   23     -0.09      0.00
    6   12   23      0.02      0.00
    7   12   23      0.02      0.00
    8   12   23     -0.02      0.00
   -3   -1   24      0.02      0.00
   -2   -1   24     -0.06      0.00
   -1   -1   24      0.09      0.00
    0   -1   24     -0.07      0.00
    1   -1   24     -0.00      0.00
    2   -1   24      0.06      0.00
    3   -1   24     -0.06      0.00
   -3    0   24      0.03      0.00
    3    0   24      0.03      0.00
    4    0   24     -0.01      0.00
    5    0   24     -0.03      0.00
   -4    1   24      0.06      0.00
    5    1   24      0.02      0.00
    6    1   24     -0.03      0.00
   -4    2   24     -0.05      0.00
   -3    2   24      0.08      0.00
    6    2   24      0.03      0.00
    7    2   24     -0.03      0.00
   -4    3   24      0.05      0.00
   -3    3   24     -0.07      0.00
    7    3   24      0.04      0.00
   -4    4   24     -0.09      0.00
   -3    4   24      0.09      0.00
    8    4   24      0.04      0.00
   -3    5   24     -0.13      0.00
    8    5   24     -0.04      0.00
   -3    6   24      0.11      0.00
    9    6   24     -0.06      0.00
    9    7   24      0.08      0.00
   -2    8   24     -0.03      0.00
    9    8   24     -0.02      0.00
   -1    9   24     -0.05      0.00
    9    9   24     -0.07      0.00
    1   10   24      0.04      0.00
    2   10   24     -0.06      0.00
    2   11   24      0.05      0.00
    3   11   24     -0.10      0.00
    4   11   24      0.11      0.00
    5   11   24     -0.07      0.00
    6   11   24      0.01      0.00
    7   11   24      0.02      0.00
    0    0   25     -0.08      0.00
    1    0   25      0.07      0.00
   -2    1   25     -0.05      0.00
   -1    1   25      0.02      0.00
    0    1   25      0.03      0.00
    1    1   25     -0.06      0.00
    2    1   25      0.04      0.00
    3    1   25     -0.01      0.00
    4    1   25     -0.01      0.00
    3    2   25      0.02      0.00
    4    2   25     -0.01      0.00
    5    2   25      0.01      0.00
   -2    3   25     -0.09      0.00
    5    3   25     -0.01      0.00
    6    3   25      0.02      0.00
   -2    4   25      0.05      0.00
   -1    4   25     -0.05      0.00
    6    4   25     -0.01      0.00
   -2    5   25     -0.04      0.00
   -1    5   25      0.02      0.00
    7    5   25     -0.01      0.00
   -2    6   25      0.06      0.00
    7    6   25     -0.00      0.00
   -1    7   25      0.04      0.00
    7    7   25      0.01      0.00
    0    8   25      0.08      0.00
    7    8   25     -0.00      0.00
    1    9   25      0.09      0.00
    6    9   25      0.05      0.00
    7    9   25     -0.00      0.00
    3   10   25     -0.06      0.00
    4   10   25      0.03      0.00
    5   10   25     -0.00      0.00
    6   10   25     -0.02      0.00
    0    3   26      0.07      0.00
    1    3   26     -0.05      0.00
    2    3   26      0.03      0.00
    3    3   26     -0.02      0.00
    0    4   26     -0.04      0.00
    1    4   26      0.02      0.00
    2    4   26     -0.01      0.00
    4    4   26     -0.02      0.00
    0    5   26     -0.01      0.00
    1    5   26      0.03      0.00
    4    5   26     -0.02      0.00
    5    5   26     -0.01      0.00
    1    6   26     -0.06      0.00
    2    6   26      0.09      0.00
    5    6   26     -0.03      0.00
    1    7   26      0.02      0.00
    2    7   26     -0.06      0.00
    3    7   26      0.11      0.00
    4    7   26     -0.12      0.00
    5    7   26      0.08      0.00
    3    8   26     -0.05      0.00
    4    8   26      0.10      0.00
    5    8   26     -0.09      0.00
    0    0    0      0.00      0.00
# SQUEEZE RESULTS
# Note: Data are Listed for all Voids in the P1 Unit Cell
# i.e. Centre of Gravity, Solvent Accessible Volume,
# Recovered number of Electrons in the Void and
# Details about the Squeezed Material
loop_
  _platon_squeeze_void_nr
  _platon_squeeze_void_average_x
  _platon_squeeze_void_average_y
  _platon_squeeze_void_average_z
  _platon_squeeze_void_volume
  _platon_squeeze_void_count_electrons
  _platon_squeeze_void_content
   1  0.500  0.500  0.500        61         9 ' '
_platon_squeeze_void_probe_radius                  1.20
_platon_squeeze_details
(replace by semicolon in column 1 when used as .sqf)
TITL mkh142    P -1         R = 0.05
CELL    9.6952    9.9564   15.3036     71.52     80.76     65.95
SPGR P-1
# Solvent Accessible Volume =      61.0
# Electrons Found in S.A.V. =       8.7
# Note: Atoms in Void as Cxxx and Qxxx all others
C101 0.500 0.500 0.500 !       2.78 eA-3
C102 0.403 0.626 0.508 !       1.92 eA-3
(replace by semicolon in column 1 when used as .sqf)
;
_shelx_fab_checksum              13796
loop_
_space_group_symop_operation_xyz
'x, y, z'
'-x, -y, -z'
loop_
_atom_site_label
_atom_site_type_symbol
_atom_site_fract_x
_atom_site_fract_y
_atom_site_fract_z
_atom_site_U_iso_or_equiv
_atom_site_adp_type
_atom_site_occupancy
_atom_site_site_symmetry_order
_atom_site_calc_flag
_atom_site_refinement_flags_posn
_atom_site_refinement_flags_adp
_atom_site_refinement_flags_occupancy
Mo1 Mo 0.73618(2) 0.74043(2) 0.53945(2) 0.02034(3) Uani 0.5 1 d . . P
O1 O 0.54081(11) 0.81409(11) 0.54079(7) 0.02678(19) Uani 0.5 1 d . . P
O2 O 0.79435(12) 0.55892(11) 0.52958(8) 0.0298(2) Uani 0.5 1 d . . P
O3 O 0.76725(10) 0.68584(11) 0.66974(6) 0.02443(18) Uani 0.5 1 d . . P
O4 O 0.77285(11) 0.85167(11) 0.41596(6) 0.02547(18) Uani 0.5 1 d . . P
O5 O 0.70919(11) 0.97719(11) 0.55720(7) 0.02533(18) Uani 0.5 1 d . . P
H5 H 0.658(2) 1.034(2) 0.5182(14) 0.038 Uiso 0.5 1 d . U P
N8 N 0.99070(12) 0.70291(12) 0.53358(7) 0.02109(18) Uani 0.5 1 d . . P
H8 H 1.048271 0.602340 0.519735 0.025 Uiso 0.5 1 calc R U P
C1 C 0.88325(14) 0.56757(14) 0.72091(8) 0.0222(2) Uani 0.5 1 d . . P
C2 C 0.85301(14) 0.45825(15) 0.79712(9) 0.0241(2) Uani 0.5 1 d . . P
C3 C 0.97910(15) 0.33863(16) 0.84352(9) 0.0264(2) Uani 0.5 1 d . . P
H3 H 0.961898 0.262577 0.894886 0.032 Uiso 0.5 1 calc R U P
C4 C 1.12795(15) 0.32493(15) 0.81864(9) 0.0236(2) Uani 0.5 1 d . . P
C5 C 1.15140(14) 0.44038(15) 0.74483(9) 0.0239(2) Uani 0.5 1 d . . P
H5A H 1.251417 0.435841 0.727342 0.029 Uiso 0.5 1 calc R U P
C6 C 1.03016(14) 0.56221(14) 0.69643(9) 0.0226(2) Uani 0.5 1 d . . P
C7 C 1.05296(15) 0.69090(15) 0.61963(9) 0.0247(2) Uani 0.5 1 d . . P
H7A H 1.001258 0.788420 0.636408 0.030 Uiso 0.5 1 calc R U P
H7B H 1.162120 0.671350 0.609744 0.030 Uiso 0.5 1 calc R U P
C9 C 1.01595(15) 0.81960(15) 0.45266(9) 0.0237(2) Uani 0.5 1 d . . P
H9A H 1.124213 0.786695 0.433032 0.028 Uiso 0.5 1 calc R U P
H9B H 0.984308 0.918297 0.467178 0.028 Uiso 0.5 1 calc R U P
C10 C 0.92002(15) 0.83625(15) 0.37643(9) 0.0240(2) Uani 0.5 1 d . . P
H10 H 0.965002 0.741610 0.355046 0.029 Uiso 0.5 1 calc R U P
C11 C 0.91866(16) 0.97263(15) 0.29631(9) 0.0250(2) Uani 0.5 1 d . . P
C12 C 1.05106(18) 0.96196(19) 0.24183(10) 0.0346(3) Uani 0.5 1 d . . P
H12 H 1.135238 0.867027 0.252110 0.041 Uiso 0.5 1 calc R U P
C13 C 1.0612(2) 1.0877(2) 0.17313(11) 0.0414(4) Uani 0.5 1 d . . P
H13 H 1.152922 1.079023 0.137822 0.050 Uiso 0.5 1 calc R U P
C14 C 0.9388(2) 1.2260(2) 0.15553(12) 0.0413(4) Uani 0.5 1 d . . P
H14 H 0.945436 1.312251 0.108124 0.050 Uiso 0.5 1 calc R U P
C15 C 0.8053(2) 1.23683(18) 0.20859(12) 0.0377(3) Uani 0.5 1 d . . P
H15 H 0.720198 1.330972 0.196713 0.045 Uiso 0.5 1 calc R U P
C16 C 0.79567(17) 1.11127(16) 0.27863(10) 0.0300(3) Uani 0.5 1 d . . P
H16 H 0.704441 1.120452 0.314537 0.036 Uiso 0.5 1 calc R U P
C17 C 0.69096(16) 0.47209(18) 0.83058(10) 0.0306(3) Uani 0.5 1 d . . P
C18 C 0.60432(18) 0.4703(2) 0.75516(11) 0.0351(3) Uani 0.5 1 d . . P
H18A H 0.665246 0.382923 0.730846 0.053 Uiso 0.5 1 calc R U P
H18B H 0.584230 0.565601 0.705156 0.053 Uiso 0.5 1 calc R U P
H18C H 0.508373 0.461331 0.781511 0.053 Uiso 0.5 1 calc R U P
C19 C 0.6087(2) 0.6227(2) 0.85764(13) 0.0442(4) Uani 0.5 1 d . . P
H19A H 0.602304 0.709569 0.803256 0.066 Uiso 0.5 1 calc R U P
H19B H 0.664849 0.623940 0.905043 0.066 Uiso 0.5 1 calc R U P
H19C H 0.506612 0.630627 0.881832 0.066 Uiso 0.5 1 calc R U P
C20 C 0.6889(2) 0.3386(2) 0.91553(13) 0.0493(5) Uani 0.5 1 d . . P
H20A H 0.742687 0.336477 0.965309 0.074 Uiso 0.5 1 calc R U P
H20B H 0.738729 0.241736 0.899220 0.074 Uiso 0.5 1 calc R U P
H20C H 0.584116 0.352780 0.936102 0.074 Uiso 0.5 1 calc R U P
C21 C 1.26105(15) 0.19392(16) 0.87435(9) 0.0269(2) Uani 0.5 1 d . . P
C22 C 1.2231(2) 0.05303(18) 0.92567(11) 0.0371(3) Uani 0.5 1 d . . P
H22A H 1.195392 0.016537 0.881266 0.056 Uiso 0.5 1 calc R U P
H22B H 1.138177 0.080636 0.969623 0.056 Uiso 0.5 1 calc R U P
H22C H 1.311359 -0.028158 0.958933 0.056 Uiso 0.5 1 calc R U P
C23 C 1.3991(2) 0.1426(2) 0.81034(13) 0.0475(5) Uani 0.5 1 d . . P
H23A H 1.434772 0.226441 0.782498 0.071 Uiso 0.5 1 calc R U P
H23B H 1.370968 0.115058 0.761653 0.071 Uiso 0.5 1 calc R U P
H23C H 1.479760 0.053524 0.845941 0.071 Uiso 0.5 1 calc R U P
C24 C 1.2987(2) 0.2530(2) 0.94517(12) 0.0415(4) Uani 0.5 1 d . . P
H24A H 1.209744 0.285640 0.985630 0.062 Uiso 0.5 1 calc R U P
H24B H 1.327976 0.340122 0.912903 0.062 Uiso 0.5 1 calc R U P
H24C H 1.382429 0.170999 0.982161 0.062 Uiso 0.5 1 calc R U P
C25 C 0.6391(2) 1.01903(19) 0.64020(11) 0.0369(3) Uani 0.5 1 d . . P
H25A H 0.705619 0.953499 0.691844 0.055 Uiso 0.5 1 calc R U P
H25B H 0.542397 1.005704 0.653125 0.055 Uiso 0.5 1 calc R U P
H25C H 0.621509 1.126349 0.632075 0.055 Uiso 0.5 1 calc R U P
loop_
_atom_site_aniso_label
_atom_site_aniso_U_11
_atom_site_aniso_U_22
_atom_site_aniso_U_33
_atom_site_aniso_U_23
_atom_site_aniso_U_13
_atom_site_aniso_U_12
Mo1 0.01804(5) 0.01797(5) 0.02377(6) -0.00521(4) -0.00267(3) -0.00543(4)
O1 0.0193(4) 0.0246(4) 0.0323(5) -0.0049(4) -0.0038(3) -0.0055(3)
O2 0.0262(5) 0.0229(4) 0.0419(6) -0.0129(4) -0.0016(4) -0.0079(4)
O3 0.0198(4) 0.0227(4) 0.0237(4) -0.0027(3) -0.0025(3) -0.0034(3)
O4 0.0235(4) 0.0289(4) 0.0226(4) -0.0045(3) -0.0033(3) -0.0097(4)
O5 0.0246(4) 0.0211(4) 0.0269(4) -0.0078(3) -0.0037(3) -0.0036(3)
N8 0.0203(4) 0.0191(4) 0.0222(4) -0.0037(3) -0.0021(3) -0.0070(3)
C1 0.0204(5) 0.0210(5) 0.0216(5) -0.0035(4) -0.0029(4) -0.0056(4)
C2 0.0215(5) 0.0268(5) 0.0212(5) -0.0030(4) -0.0009(4) -0.0091(4)
C3 0.0248(6) 0.0272(6) 0.0218(5) 0.0004(4) -0.0019(4) -0.0097(5)
C4 0.0233(5) 0.0247(5) 0.0195(5) -0.0028(4) -0.0032(4) -0.0075(4)
C5 0.0200(5) 0.0261(5) 0.0229(5) -0.0022(4) -0.0031(4) -0.0086(4)
C6 0.0207(5) 0.0226(5) 0.0224(5) -0.0022(4) -0.0034(4) -0.0084(4)
C7 0.0248(6) 0.0243(5) 0.0249(6) -0.0016(4) -0.0054(4) -0.0116(4)
C9 0.0238(5) 0.0237(5) 0.0218(5) -0.0019(4) -0.0016(4) -0.0104(4)
C10 0.0257(6) 0.0233(5) 0.0220(5) -0.0067(4) -0.0009(4) -0.0080(4)
C11 0.0277(6) 0.0260(5) 0.0203(5) -0.0053(4) -0.0027(4) -0.0094(5)
C12 0.0329(7) 0.0363(7) 0.0249(6) -0.0056(5) 0.0024(5) -0.0073(6)
C13 0.0407(9) 0.0495(10) 0.0273(7) -0.0028(6) 0.0033(6) -0.0181(8)
C14 0.0488(10) 0.0405(8) 0.0320(8) 0.0027(6) -0.0060(7) -0.0224(8)
C15 0.0402(8) 0.0273(6) 0.0379(8) 0.0007(6) -0.0094(6) -0.0098(6)
C16 0.0293(6) 0.0270(6) 0.0309(7) -0.0055(5) -0.0024(5) -0.0094(5)
C17 0.0223(6) 0.0378(7) 0.0267(6) -0.0032(5) 0.0013(5) -0.0115(5)
C18 0.0262(6) 0.0408(8) 0.0383(8) -0.0083(6) -0.0001(6) -0.0151(6)
C19 0.0321(8) 0.0603(11) 0.0428(9) -0.0262(8) 0.0099(7) -0.0153(8)
C20 0.0314(8) 0.0638(12) 0.0374(9) 0.0102(8) 0.0005(6) -0.0219(8)
C21 0.0237(6) 0.0264(6) 0.0234(5) -0.0002(4) -0.0045(4) -0.0060(5)
C22 0.0399(8) 0.0281(6) 0.0351(8) 0.0042(6) -0.0113(6) -0.0110(6)
C23 0.0331(8) 0.0407(9) 0.0398(9) 0.0000(7) 0.0043(7) 0.0037(7)
C24 0.0407(8) 0.0433(9) 0.0406(9) -0.0051(7) -0.0176(7) -0.0154(7)
C25 0.0460(9) 0.0330(7) 0.0316(7) -0.0159(6) -0.0001(6) -0.0102(6)
loop_
_atom_type_symbol
_atom_type_description
_atom_type_scat_dispersion_real
_atom_type_scat_dispersion_imag
_atom_type_scat_source
C C 0.0033 0.0016 'International Tables Vol C Tables 4.2.6.8 and 6.1.1.4'
H H 0.0000 0.0000 'International Tables Vol C Tables 4.2.6.8 and 6.1.1.4'
N N 0.0061 0.0033 'International Tables Vol C Tables 4.2.6.8 and 6.1.1.4'
O O 0.0106 0.0060 'International Tables Vol C Tables 4.2.6.8 and 6.1.1.4'
Mo Mo -1.6832 0.6857 'International Tables Vol C Tables 4.2.6.8 and 6.1.1.4'
loop_
_geom_angle_atom_site_label_1
_geom_angle_atom_site_label_2
_geom_angle_atom_site_label_3
_geom_angle
O2 Mo1 O1 106.35(5)
O2 Mo1 O4 101.81(5)
O1 Mo1 O4 98.72(4)
O2 Mo1 O3 97.64(5)
O1 Mo1 O3 99.72(4)
O4 Mo1 O3 148.13(5)
O2 Mo1 N8 87.43(4)
O1 Mo1 N8 165.98(4)
O4 Mo1 N8 75.40(4)
O3 Mo1 N8 80.55(4)
O2 Mo1 O5 168.16(4)
O1 Mo1 O5 85.41(4)
O4 Mo1 O5 77.22(4)
O3 Mo1 O5 78.61(4)
N8 Mo1 O5 80.89(4)
C1 O3 Mo1 128.90(8)
C10 O4 Mo1 123.54(8)
C25 O5 Mo1 120.15(9)
C25 O5 H5 106.6(15)
Mo1 O5 H5 101.8(16)
C9 N8 C7 113.85(10)
C9 N8 Mo1 107.50(7)
C7 N8 Mo1 116.84(8)
C9 N8 H8 105.9
C7 N8 H8 105.9
Mo1 N8 H8 105.9
O3 C1 C6 118.05(11)
O3 C1 C2 120.37(11)
C6 C1 C2 121.56(11)
C3 C2 C1 116.35(12)
C3 C2 C17 121.61(12)
C1 C2 C17 121.99(11)
C4 C3 C2 123.86(12)
C4 C3 H3 118.1
C2 C3 H3 118.1
C3 C4 C5 117.47(11)
C3 C4 C21 121.35(12)
C5 C4 C21 121.05(12)
C6 C5 C4 121.05(12)
C6 C5 H5A 119.5
C4 C5 H5A 119.5
C5 C6 C1 119.56(12)
C5 C6 C7 121.67(12)
C1 C6 C7 118.76(11)
N8 C7 C6 109.61(11)
N8 C7 H7A 109.7
C6 C7 H7A 109.7
N8 C7 H7B 109.7
C6 C7 H7B 109.7
H7A C7 H7B 108.2
N8 C9 C10 106.21(11)
N8 C9 H9A 110.5
C10 C9 H9A 110.5
N8 C9 H9B 110.5
C10 C9 H9B 110.5
H9A C9 H9B 108.7
O4 C10 C11 112.53(11)
O4 C10 C9 107.15(10)
C11 C10 C9 109.44(11)
O4 C10 H10 109.2
C11 C10 H10 109.2
C9 C10 H10 109.2
C16 C11 C12 118.63(13)
C16 C11 C10 122.84(12)
C12 C11 C10 118.36(12)
C13 C12 C11 120.94(15)
C13 C12 H12 119.5
C11 C12 H12 119.5
C14 C13 C12 120.47(16)
C14 C13 H13 119.8
C12 C13 H13 119.8
C13 C14 C15 118.91(15)
C13 C14 H14 120.5
C15 C14 H14 120.5
C16 C15 C14 120.71(15)
C16 C15 H15 119.6
C14 C15 H15 119.6
C11 C16 C15 120.32(14)
C11 C16 H16 119.8
C15 C16 H16 119.8
C2 C17 C19 108.69(13)
C2 C17 C20 111.68(12)
C19 C17 C20 108.26(15)
C2 C17 C18 111.29(12)
C19 C17 C18 109.74(13)
C20 C17 C18 107.11(15)
C17 C18 H18A 109.5
C17 C18 H18B 109.5
H18A C18 H18B 109.5
C17 C18 H18C 109.5
H18A C18 H18C 109.5
H18B C18 H18C 109.5
C17 C19 H19A 109.5
C17 C19 H19B 109.5
H19A C19 H19B 109.5
C17 C19 H19C 109.5
H19A C19 H19C 109.5
H19B C19 H19C 109.5
C17 C20 H20A 109.5
C17 C20 H20B 109.5
H20A C20 H20B 109.5
C17 C20 H20C 109.5
H20A C20 H20C 109.5
H20B C20 H20C 109.5
C22 C21 C23 107.30(14)
C22 C21 C24 108.80(13)
C23 C21 C24 110.15(15)
C22 C21 C4 112.17(12)
C23 C21 C4 110.47(11)
C24 C21 C4 107.94(12)
C21 C22 H22A 109.5
C21 C22 H22B 109.5
H22A C22 H22B 109.5
C21 C22 H22C 109.5
H22A C22 H22C 109.5
H22B C22 H22C 109.5
C21 C23 H23A 109.5
C21 C23 H23B 109.5
H23A C23 H23B 109.5
C21 C23 H23C 109.5
H23A C23 H23C 109.5
H23B C23 H23C 109.5
C21 C24 H24A 109.5
C21 C24 H24B 109.5
H24A C24 H24B 109.5
C21 C24 H24C 109.5
H24A C24 H24C 109.5
H24B C24 H24C 109.5
O5 C25 H25A 109.5
O5 C25 H25B 109.5
H25A C25 H25B 109.5
O5 C25 H25C 109.5
H25A C25 H25C 109.5
H25B C25 H25C 109.5
loop_
_geom_bond_atom_site_label_1
_geom_bond_atom_site_label_2
_geom_bond_distance
_geom_bond_publ_flag
Mo1 O2 1.7094(10) yes
Mo1 O1 1.7295(10) yes
Mo1 O4 1.9241(10) yes
Mo1 O3 1.9324(9) yes
Mo1 N8 2.3314(11) yes
Mo1 O5 2.3621(10) yes
O3 C1 1.3724(14) ?
O4 C10 1.4243(16) ?
O5 C25 1.4409(18) ?
O5 H5 0.76(2) ?
N8 C9 1.4716(16) ?
N8 C7 1.4865(17) ?
N8 H8 1.0000 ?
C1 C6 1.3969(18) ?
C1 C2 1.4058(18) ?
C2 C3 1.4047(18) ?
C2 C17 1.5361(19) ?
C3 C4 1.3936(19) ?
C3 H3 0.9500 ?
C4 C5 1.3987(18) ?
C4 C21 1.5394(17) ?
C5 C6 1.3963(17) ?
C5 H5A 0.9500 ?
C6 C7 1.5048(18) ?
C7 H7A 0.9900 ?
C7 H7B 0.9900 ?
C9 C10 1.5340(18) ?
C9 H9A 0.9900 ?
C9 H9B 0.9900 ?
C10 C11 1.5107(18) ?
C10 H10 1.0000 ?
C11 C16 1.3877(19) ?
C11 C12 1.398(2) ?
C12 C13 1.384(2) ?
C12 H12 0.9500 ?
C13 C14 1.383(3) ?
C13 H13 0.9500 ?
C14 C15 1.397(3) ?
C14 H14 0.9500 ?
C15 C16 1.391(2) ?
C15 H15 0.9500 ?
C16 H16 0.9500 ?
C17 C19 1.540(2) ?
C17 C20 1.541(2) ?
C17 C18 1.541(2) ?
C18 H18A 0.9800 ?
C18 H18B 0.9800 ?
C18 H18C 0.9800 ?
C19 H19A 0.9800 ?
C19 H19B 0.9800 ?
C19 H19C 0.9800 ?
C20 H20A 0.9800 ?
C20 H20B 0.9800 ?
C20 H20C 0.9800 ?
C21 C22 1.533(2) ?
C21 C23 1.533(2) ?
C21 C24 1.537(2) ?
C22 H22A 0.9800 ?
C22 H22B 0.9800 ?
C22 H22C 0.9800 ?
C23 H23A 0.9800 ?
C23 H23B 0.9800 ?
C23 H23C 0.9800 ?
C24 H24A 0.9800 ?
C24 H24B 0.9800 ?
C24 H24C 0.9800 ?
C25 H25A 0.9800 ?
C25 H25B 0.9800 ?
C25 H25C 0.9800 ?
loop_
_geom_torsion_atom_site_label_1
_geom_torsion_atom_site_label_2
_geom_torsion_atom_site_label_3
_geom_torsion_atom_site_label_4
_geom_torsion
Mo1 O3 C1 C6 59.57(17)
Mo1 O3 C1 C2 -122.18(12)
O3 C1 C2 C3 178.00(12)
C6 C1 C2 C3 -3.8(2)
O3 C1 C2 C17 -4.5(2)
C6 C1 C2 C17 173.68(13)
C1 C2 C3 C4 0.7(2)
C17 C2 C3 C4 -176.84(14)
C2 C3 C4 C5 2.1(2)
C2 C3 C4 C21 177.92(13)
C3 C4 C5 C6 -1.8(2)
C21 C4 C5 C6 -177.64(13)
C4 C5 C6 C1 -1.2(2)
C4 C5 C6 C7 177.24(13)
O3 C1 C6 C5 -177.62(12)
C2 C1 C6 C5 4.1(2)
O3 C1 C6 C7 3.88(19)
C2 C1 C6 C7 -174.35(12)
C9 N8 C7 C6 -176.39(10)
Mo1 N8 C7 C6 57.31(12)
C5 C6 C7 N8 122.52(13)
C1 C6 C7 N8 -59.02(16)
C7 N8 C9 C10 -169.68(10)
Mo1 N8 C9 C10 -38.61(11)
Mo1 O4 C10 C11 -158.46(9)
Mo1 O4 C10 C9 -38.12(13)
N8 C9 C10 O4 48.16(13)
N8 C9 C10 C11 170.45(10)
O4 C10 C11 C16 15.12(19)
C9 C10 C11 C16 -103.89(15)
O4 C10 C11 C12 -169.71(13)
C9 C10 C11 C12 71.28(16)
C16 C11 C12 C13 1.6(2)
C10 C11 C12 C13 -173.74(16)
C11 C12 C13 C14 -1.6(3)
C12 C13 C14 C15 0.4(3)
C13 C14 C15 C16 0.6(3)
C12 C11 C16 C15 -0.6(2)
C10 C11 C16 C15 174.56(15)
C14 C15 C16 C11 -0.5(3)
C3 C2 C17 C19 117.23(16)
C1 C2 C17 C19 -60.13(18)
C3 C2 C17 C20 -2.1(2)
C1 C2 C17 C20 -179.51(16)
C3 C2 C17 C18 -121.80(15)
C1 C2 C17 C18 60.84(19)
C3 C4 C21 C22 25.6(2)
C5 C4 C21 C22 -158.67(14)
C3 C4 C21 C23 145.30(16)
C5 C4 C21 C23 -39.0(2)
C3 C4 C21 C24 -94.21(17)
C5 C4 C21 C24 81.48(17)
loop_
_platon_squeeze_void_nr
_platon_squeeze_void_average_x
_platon_squeeze_void_average_y
_platon_squeeze_void_average_z
_platon_squeeze_void_volume
_platon_squeeze_void_count_electrons
_platon_squeeze_void_content
1 0.500 0.500 0.500 61 9 ' '
