#------------------------------------------------------------------------------
#$Date: 2017-07-27 05:26:58 +0300 (Thu, 27 Jul 2017) $
#$Revision: 199360 $
#$URL: file:///home/coder/svn-repositories/cod/cif/7/04/38/7043831.cif $
#------------------------------------------------------------------------------
#
# This file is available in the Crystallography Open Database (COD),
# http://www.crystallography.net/
#
# All data on this site have been placed in the public domain by the
# contributors.
#
data_7043831
loop_
_publ_author_name
'JIN, GENG BANG'
'Malliakas, Christos D.'
'Lin, Jian'
_publ_section_title
;
 Thorium Copper Phosphides: More Diverse Metal--Phosphorus and
 Phosphorus--Phosphorus Interactions than U analogues
;
_journal_name_full               'Dalton Trans.'
_journal_paper_doi               10.1039/C7DT02145C
_journal_year                    2017
_chemical_formula_moiety         'Th Cu5 P3'
_chemical_formula_sum            'Cu5 P3 Th'
_chemical_formula_weight         642.65
_chemical_name_common            'thorium pentacopper(I) triphosphide'
_space_group_crystal_system      orthorhombic
_space_group_IT_number           62
_space_group_name_Hall           '-P 2ac 2n'
_space_group_name_H-M_alt        'P n m a'
_symmetry_space_group_name_Hall  '-P 2ac 2n'
_symmetry_space_group_name_H-M   'P n m a'
_audit_creation_method           SHELXL-2014/7
_cell_angle_alpha                90
_cell_angle_beta                 90
_cell_angle_gamma                90
_cell_formula_units_Z            4
_cell_length_a                   12.7255(4)
_cell_length_b                   3.87660(10)
_cell_length_c                   10.8422(4)
_cell_measurement_reflns_used    5082
_cell_measurement_temperature    100(2)
_cell_measurement_theta_max      27.49
_cell_measurement_theta_min      3.20
_cell_volume                     534.86(3)
_computing_cell_refinement       'Bruker SAINT'
_computing_data_collection       'Bruker APEX2'
_computing_data_reduction        'Bruker SAINT'
_computing_molecular_graphics    'CrystalMaker for Windows ver. 2.5.2 (2011)'
_computing_publication_material  'Bruker SHELXTL'
_computing_structure_refinement  'SHELXL-2014/7 (Sheldrick, 2014)'
_computing_structure_solution    'SHELXS-97 (Sheldrick 2008)'
_diffrn_ambient_temperature      100(2)
_diffrn_measured_fraction_theta_full 1.000
_diffrn_measured_fraction_theta_max 1.000
_diffrn_measurement_device_type  'Bruker APEX-II CCD'
_diffrn_measurement_method       '\f and \w scans'
_diffrn_radiation_type           MoK\a
_diffrn_radiation_wavelength     0.71073
_diffrn_reflns_av_R_equivalents  0.0204
_diffrn_reflns_av_unetI/netI     0.0098
_diffrn_reflns_Laue_measured_fraction_full 1.000
_diffrn_reflns_Laue_measured_fraction_max 1.000
_diffrn_reflns_limit_h_max       16
_diffrn_reflns_limit_h_min       -16
_diffrn_reflns_limit_k_max       5
_diffrn_reflns_limit_k_min       -5
_diffrn_reflns_limit_l_max       14
_diffrn_reflns_limit_l_min       -14
_diffrn_reflns_number            6612
_diffrn_reflns_point_group_measured_fraction_full 1.000
_diffrn_reflns_point_group_measured_fraction_max 1.000
_diffrn_reflns_theta_full        25.242
_diffrn_reflns_theta_max         27.486
_diffrn_reflns_theta_min         2.468
_diffrn_source                   'fine-focus sealed tube'
_exptl_absorpt_coefficient_mu    47.960
_exptl_absorpt_correction_T_max  0.683
_exptl_absorpt_correction_T_min  0.508
_exptl_absorpt_correction_type   multi-scan
_exptl_absorpt_process_details   SADABS
_exptl_crystal_colour            black
_exptl_crystal_density_diffrn    7.981
_exptl_crystal_density_meas      ?
_exptl_crystal_density_method    'not measured'
_exptl_crystal_description       needle
_exptl_crystal_F_000             1120
_exptl_crystal_size_max          0.080
_exptl_crystal_size_mid          0.012
_exptl_crystal_size_min          0.008
_refine_diff_density_max         0.989
_refine_diff_density_min         -0.987
_refine_diff_density_rms         0.200
_refine_ls_extinction_coef       0.00127(8)
_refine_ls_extinction_expression Fc^*^=kFc[1+0.001xFc^2^\l^3^/sin(2\q)]^-1/4^
_refine_ls_extinction_method     'SHELXL-2014/7 (Sheldrick 2014'
_refine_ls_goodness_of_fit_ref   1.230
_refine_ls_hydrogen_treatment    undef
_refine_ls_matrix_type           full
_refine_ls_number_parameters     64
_refine_ls_number_reflns         700
_refine_ls_number_restraints     0
_refine_ls_restrained_S_all      1.230
_refine_ls_R_factor_all          0.0116
_refine_ls_R_factor_gt           0.0113
_refine_ls_shift/su_max          0.001
_refine_ls_shift/su_mean         0.000
_refine_ls_structure_factor_coef Fsqd
_refine_ls_weighting_details
'w=1/[\s^2^(Fo^2^)+(0.0119P)^2^+2.4968P] where P=(Fo^2^+2Fc^2^)/3'
_refine_ls_weighting_scheme      calc
_refine_ls_wR_factor_gt          0.0290
_refine_ls_wR_factor_ref         0.0292
_reflns_Friedel_coverage         0.000
_reflns_number_gt                694
_reflns_number_total             700
_reflns_threshold_expression     'I > 2\s(I)'
_cod_data_source_file            c7dt02145c2.cif
_cod_data_source_block           compound3
_cod_depositor_comments
;
The following automatic conversions were performed:

'_exptl_crystal_density_meas' value 'not measured' was changed to '?'
- the value is perceived as not measured.

Automatic conversion script
Id: cif_fix_values 4973 2017-02-22 13:04:09Z antanas 
;
_cod_database_code               7043831
_shelx_shelxl_version_number     2014/7
_shelx_space_group_comment
;
The symmetry employed for this shelxl refinement is uniquely defined
by the following loop, which should always be used as a source of
symmetry information in preference to the above space-group names.
They are only intended as comments.
;
_shelx_estimated_absorpt_t_min   0.4777
_shelx_estimated_absorpt_t_max   0.7456
_shelx_res_file
;

    largemu.res created by SHELXL-2014/7


TITL LargeMu in Pnma
CELL 0.71073  12.72550   3.87660  10.84220  90.0000  90.0000  90.0000
ZERR    4.00   0.00040   0.00010   0.00040   0.0000   0.0000   0.0000
LATT  1
SYMM 0.5-X, -Y, 0.5+Z
SYMM -X, 0.5+Y, -Z
SYMM 0.5+X, 0.5-Y, 0.5-Z
SFAC P CU TH
UNIT 12 20 4
TEMP -173.000

L.S. 10
BOND
ACTA
CONN $TH 40 4.5
CONN $CU 40 4.5
CONN $P 40 4.0
FMAP 2
PLAN 20

WGHT    0.011900    2.496800
EXTI    0.001274
FVAR       0.04792   0.67565   0.40825
TH1   3    0.291016    0.250000    0.076395    10.50000    0.00359    0.00324 =
         0.00293    0.00000    0.00009    0.00000
CU1   2    0.002409    0.250000    0.593678    10.50000    0.00435    0.00639 =
         0.00699    0.00000   -0.00020    0.00000
CU2   2    0.313576    0.250000    0.364090    10.50000    0.00987    0.00494 =
         0.00394    0.00000   -0.00016    0.00000
CU3   2    0.323796    0.250000    0.782587    10.50000    0.00561    0.00797 =
         0.00425    0.00000   -0.00032    0.00000
CU4   2    0.560368    0.250000    0.542455    10.50000    0.00451    0.00547 =
         0.00580    0.00000   -0.00028    0.00000
CU5A  2    0.045871    0.250000    0.200012    20.50000    0.02077    0.01295 =
         0.00607    0.00000   -0.00577    0.00000
CU5B  2    0.026064    0.250000    0.211404   -20.50000    0.04787    0.11164 =
         0.02935    0.00000   -0.02114    0.00000
P1    1    0.113010    0.250000    0.402994    10.50000    0.00540    0.00447 =
         0.00433    0.00000    0.00001    0.00000
P2    1    0.132608    0.250000    0.756714    10.50000    0.00479    0.00489 =
         0.00390    0.00000    0.00035    0.00000
P3    1    0.378080    0.250000    0.573486    10.50000    0.00415    0.00502 =
         0.00403    0.00000   -0.00037    0.00000
HKLF 4

REM  LargeMu in Pnma
REM R1 =  0.0113 for     694 Fo > 4sig(Fo)  and  0.0116 for all     700 data
REM     64 parameters refined using      0 restraints

END

WGHT      0.0120      2.4797

REM Highest difference peak  0.989,  deepest hole -0.987,  1-sigma level  0.200
Q1    1   0.2911  0.0214  0.0767  11.00000  0.05    0.99
Q2    1   0.2984  0.2500  0.0041  10.50000  0.05    0.96
Q3    1   0.3575  0.2500  0.0825  10.50000  0.05    0.68
Q4    1   0.2333  0.2500  0.0760  10.50000  0.05    0.59
Q5    1   0.2835  0.2500  0.1451  10.50000  0.05    0.48
Q6    1  -0.0265  0.0852  0.5117  11.00000  0.05    0.43
Q7    1   0.3678  0.0951  0.6161  11.00000  0.05    0.42
Q8    1   0.3066  0.2500  0.7065  10.50000  0.05    0.41
Q9    1   0.3697 -0.0035  0.7135  11.00000  0.05    0.40
Q10   1   0.5496 -0.0403  0.5582  11.00000  0.05    0.38
Q11   1   0.2983  0.0201  0.8412  11.00000  0.05    0.37
Q12   1   0.0661  0.0711  0.3601  11.00000  0.05    0.37
Q13   1   0.4533  0.0684  0.5552  11.00000  0.05    0.37
Q14   1   0.3473 -0.0004  0.0006  11.00000  0.05    0.37
Q15   1  -0.0375 -0.0036  0.2849  11.00000  0.05    0.37
Q16   1   0.0100 -0.0188  0.5943  11.00000  0.05    0.37
Q17   1   0.4119  0.0544  0.3616  11.00000  0.05    0.36
Q18   1   0.2885 -0.0385  0.3013  11.00000  0.05    0.35
Q19   1   0.2475  0.0837  0.7825  11.00000  0.05    0.34
Q20   1   0.1428 -0.0497  0.7840  11.00000  0.05    0.34
;
_shelx_res_checksum              47526
_shelx_hkl_file
;
   0   1   0    0.01    0.03
   0   1   0    0.05    0.03
   0   1   0    0.03    0.03
   0   1   0    0.04    0.03
   0   2   0 1000.00   18.47
   0   2   0  931.69   18.47
   0   2   0  941.30   18.34
   0   2   0  975.32   18.51
   0   3   0   -0.01    0.05
   0   3   0    0.04    0.05
   0   3   0    0.06    0.06
   0   3   0    0.07    0.06
   0   4   0  471.91    9.01
   0   4   0  480.34    9.06
   0   4   0  471.58    9.03
   0   4   0  466.37    9.05
   0   0   1    0.04    0.02
   0   0  -1    0.03    0.02
   0   0  -1    0.02    0.02
   0   1   1   13.80    0.31
   0   1   1   13.69    0.33
   0   1  -1   13.84    0.33
   0   1  -1   13.46    0.33
   0   1   1   13.46    0.33
   0   1  -1   14.26    0.31
   0   1   1   13.87    0.32
   0   2   1    0.05    0.04
   0   2  -1    0.07    0.04
   0   2  -1   -0.02    0.04
   0   2   1    0.03    0.04
   0   2  -1    0.01    0.03
   0   2   1    0.19    0.05
   0   2   1    0.03    0.04
   0   2  -1    0.00    0.04
   0   3   1    6.44    0.26
   0   3   1    5.78    0.25
   0   3  -1    6.12    0.25
   0   3  -1    5.87    0.27
   0   3   1    6.23    0.26
   0   3  -1    6.04    0.24
   0   3   1    6.03    0.26
   0   3  -1    6.10    0.27
   0   4   1    0.05    0.07
   0   4  -1    0.03    0.07
   0   4  -1    0.14    0.09
   0   4  -1   -0.02    0.07
   0   4   1    0.14    0.08
   0  -4   1    0.02    0.07
   0   4   1    0.13    0.09
   0   4   1    0.05    0.07
   0  -5   1    3.15    0.32
   0   5  -1    2.92    0.26
   0   0  -2   28.54    0.58
   0   0   2   28.45    0.59
   0   0   2   28.81    0.58
   0   0  -2   28.32    0.59
   0  -1  -2    0.03    0.03
   0   1   2    0.03    0.03
   0   1  -2    0.07    0.03
   0   1  -2    0.04    0.04
   0   1   2    0.02    0.03
   0  -1   2    0.03    0.03
   0   1  -2    0.07    0.04
   0   1   2    0.01    0.03
   0   2  -2   22.39    0.57
   0  -2   2   22.10    0.53
   0  -2  -2   22.56    0.54
   0   2   2   22.92    0.53
   0   2  -2   23.62    0.53
   0   2  -2   22.88    0.58
   0   2   2   22.51    0.57
   0   2   2   22.97    0.56
   0   3  -2    0.04    0.05
   0   3  -2    0.04    0.06
   0   3   2    0.01    0.05
   0   3  -2    0.10    0.07
   0  -3  -2    0.11    0.06
   0   3   2    0.08    0.05
   0   3   2    0.03    0.06
   0  -3   2    0.19    0.07
   0   4   2   16.88    0.56
   0   4   2   17.73    0.55
   0   4   2   17.37    0.56
   0   4  -2   17.12    0.58
   0  -4   2   17.08    0.53
   0  -4  -2   17.37    0.55
   0   0  -3    0.07    0.04
   0   0   3    0.28    0.05
   0   0   3   -0.01    0.03
   0   0  -3    0.02    0.03
   0  -1   3  116.62    2.29
   0   1  -3  114.46    2.29
   0  -1   3  118.43    2.25
   0  -1  -3  113.79    2.25
   0   1   3  120.22    2.28
   0   1   3  116.70    2.28
   0   1  -3  117.55    2.23
   0   1   3  115.63    2.23
   0   2  -3    0.22    0.07
   0   2  -3    0.06    0.03
   0   2   3    0.05    0.05
   0  -2   3    0.23    0.05
   0   2   3    0.27    0.07
   0  -2  -3    0.09    0.05
   0   2  -3    0.10    0.06
   0   2   3    0.19    0.05
   0   3  -3   72.36    1.63
   0   3   3   74.03    1.61
   0   3  -3   77.04    1.54
   0   3   3   74.39    1.62
   0  -3   3   72.96    1.55
   0  -3  -3   72.85    1.57
   0   3   3   76.51    1.56
   0   3  -3   74.25    1.64
   0  -4  -3    0.06    0.07
   0   4  -3    0.11    0.09
   0  -4   3   -0.01    0.08
   0   4   3   -0.05    0.06
   0   0  -4   27.14    0.62
   0   0   4   26.71    0.61
   0   0   4   28.04    0.61
   0   0  -4   27.26    0.60
   0   1  -4    0.15    0.04
   0  -1  -4    0.02    0.04
   0   1  -4    0.05    0.05
   0  -1   4    0.05    0.05
   0   1   4    0.10    0.04
   0  -1   4    0.35    0.06
   0   1   4    0.11    0.05
   0  -1  -4    0.02    0.03
   0   2  -4   20.68    0.58
   0  -2   4   21.35    0.52
   0   2   4   21.76    0.50
   0   2  -4   21.52    0.49
   0   2   4   19.97    0.56
   0   2   4   20.61    0.56
   0  -2  -4   21.94    0.53
   0  -3   4    0.03    0.05
   0   3  -4    0.12    0.08
   0   3   4   -0.02    0.05
   0   3   4    0.01    0.06
   0  -3   4    0.02    0.07
   0  -3  -4    0.04    0.05
   0  -4   4   12.28    0.51
   0  -4  -4   12.67    0.50
   0   4  -4   11.96    0.49
   0   4   4   12.70    0.48
   0   0   5    0.08    0.05
   0   0  -5    0.04    0.04
   0   0  -5    0.04    0.04
   0   0   5    0.02    0.04
   0   1   5   22.84    0.54
   0  -1   5   23.87    0.59
   0  -1   5   22.39    0.56
   0  -1  -5   22.33    0.56
   0   1   5   23.01    0.59
   0  -1  -5   23.33    0.58
   0   1  -5   22.49    0.54
   0   1  -5   23.13    0.60
   0  -2   5   -0.04    0.05
   0  -2   5    0.01    0.05
   0   2   5   -0.05    0.05
   0   2  -5    0.14    0.07
   0  -2  -5    0.32    0.07
   0  -2  -5    0.09    0.06
   0   2   5    0.05    0.04
   0   2  -5    0.03    0.03
   0  -3   5    8.66    0.38
   0   3  -5    9.08    0.39
   0  -3  -5    8.48    0.32
   0   3   5    8.45    0.36
   0  -3  -5    8.44    0.37
   0  -3   5    8.32    0.31
   0  -4  -5   -0.01    0.08
   0   4   5    0.13    0.09
   0   4  -5    0.03    0.09
   0  -4   5    0.02    0.09
   0   0  -6  331.91    6.34
   0   0   6  331.22    6.33
   0   0  -6  333.45    6.32
   0   0   6  333.88    6.33
   0   1  -6    0.18    0.06
   0   1  -6    0.09    0.06
   0  -1  -6    0.05    0.05
   0  -1  -6    0.15    0.06
   0  -1   6    0.06    0.04
   0   1   6    0.51    0.09
   0  -1   6    0.03    0.05
   0   1   6    0.07    0.05
   0  -2  -6  244.62    4.74
   0   2   6  238.59    4.80
   0  -2  -6  243.80    4.80
   0  -2   6  246.85    4.73
   0  -2   6  245.04    4.82
   0   2   6  250.22    4.66
   0   2  -6  249.82    4.66
   0   2  -6  243.69    4.83
   0   3  -6   -0.03    0.07
   0   3   6   -0.11    0.05
   0  -3   6    0.05    0.06
   0  -3  -6    0.02    0.07
   0  -3  -6    0.01    0.06
   0  -3   6    0.04    0.08
   0  -4  -6  132.13    2.84
   0  -4   6  130.42    2.86
   0   4   6  128.11    2.80
   0   4  -6  132.10    2.85
   0   0  -7    0.11    0.06
   0   0   7    0.07    0.06
   0   0   7   -0.02    0.05
   0   0  -7    0.14    0.06
   0   1   7    3.05    0.19
   0   1  -7    2.98    0.18
   0   1  -7    3.03    0.20
   0  -1  -7    2.76    0.18
   0  -1   7    3.08    0.18
   0   1   7    2.64    0.18
   0  -1  -7    2.89    0.17
   0  -1   7    2.79    0.19
   0  -2  -7    0.28    0.08
   0  -2   7    0.06    0.06
   0   2   7   -0.03    0.06
   0  -2   7    0.21    0.08
   0  -2  -7   -0.03    0.06
   0   2  -7    0.05    0.07
   0  -3  -7    2.26    0.24
   0   3   7    2.46    0.24
   0   3  -7    2.92    0.25
   0  -3   7    2.76    0.24
   0  -4   7    0.05    0.10
   0   4  -7    0.00    0.09
   0  -4  -7    0.06    0.10
   0   4   7    0.11    0.11
   0   0   8   72.54    1.60
   0   0  -8   77.45    1.64
   0   0  -8   76.17    1.61
   0   0   8   74.53    1.62
   0  -1   8   -0.03    0.05
   0   1   8    0.04    0.07
   0  -1   8    0.02    0.06
   0  -1  -8    0.46    0.10
   0   1   8    0.06    0.07
   0   1  -8    0.01    0.06
   0   1  -8    0.05    0.06
   0  -1  -8   -0.02    0.05
   0   2  -8   56.53    1.38
   0   2   8   56.64    1.36
   0  -2   8   58.44    1.29
   0  -2   8   56.88    1.37
   0  -2  -8   59.11    1.30
   0  -2  -8   55.26    1.35
   0  -3  -8    0.01    0.08
   0   3  -8    0.00    0.08
   0   3   8   -0.10    0.06
   0  -3   8    0.12    0.09
   0  -4  -8   32.64    1.00
   0  -4   8   30.28    1.00
   0   4  -8   32.29    1.02
   0   4   8   32.84    0.99
   0   0  -9    0.10    0.07
   0   0   9    0.01    0.06
   0   0  -9   -0.09    0.05
   0   1  -9   60.59    1.39
   0  -1   9   61.69    1.36
   0  -1  -9   61.61    1.37
   0  -1   9   59.78    1.40
   0   1  -9   61.53    1.43
   0  -1  -9   60.60    1.40
   0   1   9   60.86    1.41
   0   2  -9    0.47    0.13
   0  -2  -9    0.07    0.08
   0  -2  -9    0.20    0.09
   0   2   9    0.27    0.10
   0  -2   9    0.13    0.08
   0  -2   9    0.05    0.08
   0   3  -9   41.76    1.16
   0  -3  -9   40.31    1.13
   0  -3   9   41.47    1.16
   0   3   9   40.16    1.13
   0   0  10    6.33    0.31
   0   0 -10    5.91    0.30
   0   0 -10    6.31    0.31
   0   0  10    5.81    0.30
   0  -1 -10   -0.01    0.07
   0   1 -10   -0.08    0.06
   0  -1 -10    0.05    0.07
   0  -1  10    0.01    0.08
   0   1  10    0.06    0.07
   0  -1  10   -0.05    0.06
   0   2 -10    3.81    0.29
   0  -2  10    4.38    0.30
   0   2  10    3.75    0.28
   0  -2 -10    3.91    0.28
   0   3 -10    0.03    0.10
   0  -3 -10    0.01    0.09
   0  -3  10    0.01    0.10
   0   3  10    0.04    0.10
   0   0 -11    0.10    0.08
   0   0  11    0.13    0.08
   0   0  11   -0.04    0.07
   0   0 -11    0.16    0.09
   0  -1  11   25.47    0.72
   0   1  11   24.06    0.75
   0  -1 -11   24.79    0.72
   0   1 -11   23.47    0.75
   0  -1 -11   23.38    0.74
   0  -1  11   24.78    0.76
   0  -2 -11   -0.02    0.10
   0   2 -11    0.29    0.12
   0   2  11   -0.10    0.08
   0  -2  11    0.83    0.18
   0  -3  11   22.17    0.79
   0  -3 -11   20.90    0.78
   0   3  11   20.71    0.76
   0   3 -11   21.33    0.79
   0   0  12   14.04    0.53
   0   0 -12   15.11    0.55
   0   1  12    0.17    0.10
   0  -1  12    0.11    0.09
   0   1 -12    0.10    0.09
   0  -1 -12   -0.01    0.08
   0  -1  12    0.19    0.11
   0  -1 -12    0.03    0.10
   0   2  12   16.64    0.63
   0  -2 -12   15.04    0.61
   0  -2  12   14.93    0.61
   0   2 -12   14.26    0.61
   0   0  13    0.07    0.09
   0   0 -13    0.02    0.09
   0  -1  13    5.43    0.32
   0   1  13    5.29    0.34
   0   1 -13    5.41    0.35
   0  -1  13    5.90    0.36
   0  -1 -13    5.55    0.35
   0   0 -14   63.86    1.58
   0   0  14   62.47    1.55
  -1   0   0    0.05    0.02
   1   0   0    0.06    0.01
   1   0   0    0.04    0.01
   1   1   0    0.07    0.03
   1   1   0    0.15    0.04
   1   1   0    0.05    0.03
  -1   1   0    0.05    0.03
   1   1   0    0.00    0.03
  -1   1   0    0.02    0.03
  -1   1   0    0.02    0.03
  -1   1   0    0.02    0.03
   1   2   0    0.03    0.04
   1   2   0    0.12    0.04
   1   2   0    0.08    0.05
  -1   2   0    0.03    0.04
   1   2   0    0.03    0.04
  -1   2   0    0.02    0.04
  -1   2   0    0.04    0.04
  -1   2   0    0.04    0.05
   1   3   0    0.01    0.05
   1   3   0   -0.02    0.05
  -1   3   0    0.03    0.05
   1   3   0    0.04    0.05
  -1   3   0   -0.03    0.05
  -1   3   0    0.02    0.05
   1   3   0    0.06    0.05
  -1   3   0    0.02    0.05
   1   4   0    0.09    0.08
   1   4   0    0.08    0.07
  -1   4   0    0.07    0.07
   1   4   0   -0.09    0.06
  -1   4   0    0.12    0.08
   1   4   0    0.12    0.08
  -1   4   0    0.08    0.08
   1   5   0    0.03    0.10
  -1   0   1    0.66    0.05
   1   0   1    0.54    0.03
  -1   0  -1    0.53    0.03
   1   0  -1    0.58    0.05
  -1   0   1    0.50    0.03
   1   0  -1    0.49    0.03
   1   0   1    0.53    0.05
  -1   1   1   87.04    1.66
   1   1  -1   88.49    1.65
  -1   1   1   88.94    1.69
   1   1  -1   87.29    1.70
   1   1  -1   84.45    1.69
   1   1   1   88.54    1.66
  -1  -1   1   85.60    1.69
  -1   1  -1   86.62    1.65
  -1   1  -1   85.81    1.68
   1   1   1   87.19    1.69
   1   1   1   87.85    1.70
  -1   2   1    0.59    0.07
   1   2  -1    0.65    0.07
   1   2  -1    0.67    0.09
   1   2  -1    0.63    0.08
  -1   2   1    0.53    0.08
   1   2  -1    0.66    0.08
  -1   2   1    0.77    0.09
  -1   2   1    0.55    0.08
   1   2   1    0.62    0.08
  -1   2  -1    0.62    0.08
   1   2   1    0.78    0.09
  -1   2  -1    0.62    0.07
   1   2   1    0.69    0.08
  -1   2  -1    0.52    0.08
   1   2   1    0.59    0.07
  -1   3   1   47.98    1.12
  -1   3   1   47.55    1.11
  -1   3   1   48.12    1.09
  -1   3   1   49.02    1.09
   1   3  -1   48.78    1.13
   1   3  -1   49.37    1.07
   1   3  -1   48.82    1.11
  -1   3  -1   49.39    1.14
  -1   3  -1   49.31    1.12
  -1   3  -1   50.30    1.07
   1   3   1   49.95    1.11
  -1   3  -1   48.79    1.10
   1   3   1   48.03    1.11
   1   3   1   48.91    1.09
   1   3   1   49.77    1.12
   1   4  -1    0.77    0.14
   1  -4   1    0.78    0.13
  -1   4   1    0.85    0.14
   1   4  -1    0.92    0.15
  -1   4   1    0.70    0.13
  -1   4   1    0.97    0.14
   1  -4   1    0.76    0.15
   1   4   1    0.78    0.14
   1   4   1    0.85    0.14
   1   4   1    1.07    0.15
  -1   4  -1    0.78    0.15
  -1  -4   1    0.84    0.14
  -1   4  -1    0.88    0.14
  -1   5   1   24.43    0.77
   1  -5   1   24.98    0.81
  -1   5  -1   24.77    0.79
  -1   0   2   21.96    0.44
  -1   0  -2   21.64    0.47
   1   0   2   22.19    0.48
   1   0   2   22.05    0.45
  -1   0  -2   21.09    0.45
   1   0  -2   22.00    0.44
   1   0  -2   21.88    0.49
  -1   1   2    1.78    0.10
  -1   1   2    1.86    0.10
  -1   1   2    2.08    0.07
   1   1  -2    1.90    0.11
  -1  -1  -2    2.06    0.08
  -1  -1  -2    1.88    0.11
   1   1  -2    2.05    0.07
   1   1  -2    1.91    0.11
   1  -1   2    1.98    0.11
   1  -1   2    2.07    0.08
   1  -1  -2    1.96    0.10
  -1  -1   2    2.14    0.10
  -1   1  -2    1.95    0.10
  -1   1  -2    1.97    0.11
   1   1   2    1.91    0.10
  -1   2   2   16.00    0.39
   1   2  -2   16.80    0.39
   1   2  -2   17.07    0.46
   1   2  -2   15.39    0.44
   1  -2   2   16.19    0.39
  -1   2   2   16.08    0.45
  -1   2   2   15.72    0.43
  -1  -2   2   16.11    0.42
   1  -2  -2   15.82    0.43
  -1   2  -2   15.94    0.45
   1   2   2   16.65    0.42
   1   2   2   15.79    0.44
   1   2   2   16.70    0.44
  -1   2  -2   16.68    0.42
   1   3  -2    0.12    0.05
  -1   3   2    0.13    0.07
   1  -3   2    0.23    0.07
   1   3  -2    0.09    0.07
   1   3  -2    0.26    0.08
  -1   3   2    0.23    0.07
  -1   3   2    0.31    0.07
   1   3   2    0.19    0.07
  -1  -3   2    0.18    0.07
   1   3   2    0.11    0.07
  -1   3  -2    0.21    0.08
   1   3   2    0.18    0.07
   1  -3  -2    0.05    0.06
  -1   3  -2    0.12    0.06
  -1   4   2   12.20    0.44
  -1   4   2   12.13    0.46
   1   4  -2   12.32    0.46
   1  -4   2   11.99    0.47
  -1  -4  -2   12.04    0.43
  -1  -4  -2   11.44    0.45
   1   4  -2   11.37    0.47
   1   4   2   11.50    0.43
   1  -4  -2   11.79    0.45
  -1  -4   2   12.27    0.44
  -1   4  -2   11.79    0.42
  -1   4  -2   11.44    0.46
   1   4   2   12.16    0.45
   1   0  -3    0.29    0.04
   1   0   3    0.31    0.05
  -1   0   3    0.29    0.04
   1   0   3    0.73    0.08
  -1   0  -3    0.30    0.05
  -1   0  -3    0.38    0.06
  -1   0   3    0.30    0.06
   1   0  -3    0.36    0.06
   1   1  -3    9.74    0.29
  -1   1   3    9.38    0.21
  -1  -1  -3    9.52    0.24
   1  -1   3    9.64    0.24
  -1   1   3    9.56    0.28
   1   1  -3    9.22    0.28
   1  -1   3    9.04    0.28
   1   1  -3    9.46    0.21
  -1  -1   3    9.49    0.27
   1  -1  -3    9.38    0.28
  -1   1  -3    9.65    0.29
  -1   1  -3    9.37    0.26
   1   1   3    8.91    0.27
   1   1   3   10.10    0.27
   1   2  -3    0.40    0.05
  -1   2   3    0.45    0.08
   1   2  -3    0.45    0.09
   1   2  -3    0.38    0.08
   1  -2   3    0.19    0.07
  -1   2   3    0.40    0.06
  -1  -2  -3    0.43    0.08
  -1   2   3    0.29    0.07
   1  -2   3    0.36    0.06
  -1  -2  -3    0.45    0.07
   1   2   3    0.45    0.07
  -1  -2   3    0.37    0.07
  -1   2  -3    0.52    0.09
  -1   2  -3    0.34    0.07
   1   2   3    0.36    0.08
   1  -2  -3    0.39    0.08
   1   3  -3    4.78    0.25
  -1   3   3    4.83    0.25
  -1  -3  -3    4.93    0.22
  -1   3   3    5.43    0.27
   1   3  -3    4.97    0.26
   1  -3   3    5.13    0.27
  -1   3   3    5.38    0.22
   1   3  -3    5.40    0.20
  -1  -3  -3    5.25    0.26
   1  -3   3    5.03    0.21
  -1   3  -3    5.05    0.22
   1   3   3    4.99    0.23
   1   3   3    5.25    0.26
  -1   3  -3    4.65    0.26
  -1  -3   3    5.63    0.24
   1  -3  -3    4.95    0.24
  -1   4   3    0.54    0.13
   1   4  -3    0.35    0.11
   1   4  -3    0.24    0.10
   1  -4   3    0.58    0.14
  -1   4   3    0.65    0.13
  -1  -4  -3    0.40    0.12
   1   4   3    0.51    0.12
  -1  -4   3    0.61    0.12
  -1   4  -3    0.56    0.13
   1  -4  -3    0.57    0.12
  -1   0   4  200.03    3.78
   1   0  -4  201.02    3.78
  -1   0  -4  205.78    3.81
   1   0   4  199.07    3.80
   1   0   4  197.41    3.83
  -1   0  -4  197.56    3.82
   1   0  -4  198.17    3.84
  -1   0   4  197.44    3.83
  -1   1   4  113.76    2.11
   1  -1   4  109.78    2.22
  -1   1   4  111.89    2.20
   1   1  -4  112.07    2.12
  -1  -1  -4  111.68    2.16
  -1   1   4  111.23    2.22
  -1  -1  -4  111.53    2.21
   1  -1   4  112.53    2.16
   1   1  -4  112.44    2.20
   1   1   4  113.31    2.19
   1   1   4  108.85    2.20
  -1   1  -4  111.68    2.21
  -1   1  -4  110.58    2.18
  -1  -1   4  108.84    2.20
   1  -1  -4  108.65    2.20
   1   2  -4  138.86    2.76
   1   2  -4  141.75    2.62
   1  -2   4  135.96    2.76
  -1   2   4  135.72    2.74
  -1  -2  -4  137.17    2.67
   1  -2   4  139.10    2.67
  -1  -2  -4  134.71    2.75
  -1   2   4  144.32    2.63
   1   2  -4  137.52    2.77
  -1   2   4  136.26    2.75
  -1   2  -4  138.98    2.67
   1   2   4  133.25    2.74
  -1  -2   4  136.98    2.71
   1  -2  -4  134.03    2.72
   1   2   4  136.78    2.68
  -1   2  -4  135.13    2.76
  -1  -3  -4   49.47    1.17
  -1  -3  -4   49.03    1.08
   1  -3   4   47.65    1.18
   1   3  -4   48.20    1.18
   1   3  -4   49.69    1.18
   1  -3   4   49.49    1.07
  -1   3   4   48.18    1.14
  -1   3   4   48.72    1.17
   1   3   4   50.04    1.09
   1  -3  -4   48.47    1.12
   1   3   4   48.39    1.15
  -1   3  -4   49.64    1.08
  -1   3  -4   48.63    1.18
  -1  -3   4   48.27    1.10
   1  -4   4   76.19    1.74
  -1   4   4   73.61    1.67
  -1  -4  -4   73.26    1.70
   1   4  -4   72.88    1.71
  -1   4   4   73.84    1.70
   1   4   4   72.18    1.68
   1  -4  -4   71.51    1.64
  -1   4  -4   71.15    1.71
   1   0  -5   83.52    1.75
   1   0  -5   86.85    1.70
  -1   0  -5   87.67    1.73
   1   0   5   85.50    1.75
   1   0   5   85.74    1.72
  -1   0  -5   86.76    1.74
  -1   0   5   85.49    1.75
  -1   0   5   84.64    1.70
  -1   1   5    1.19    0.08
   1  -1   5    0.99    0.10
  -1  -1  -5    1.10    0.09
  -1  -1  -5    0.80    0.10
  -1   1   5    0.73    0.10
   1   1  -5    1.54    0.13
   1   1  -5    1.11    0.08
   1  -1   5    1.05    0.12
   1  -1  -5    0.82    0.10
   1   1   5    0.97    0.11
  -1  -1   5    1.10    0.12
  -1   1  -5    1.42    0.11
  -1   1  -5    1.10    0.12
  -1  -1   5    0.88    0.10
   1   1   5    0.99    0.11
   1  -1  -5    1.00    0.11
   1  -2   5   55.50    1.14
  -1  -2  -5   54.31    1.14
  -1   2   5   56.79    1.08
   1   2  -5   51.55    1.23
  -1   2   5   52.08    1.21
   1  -2   5   53.26    1.23
   1   2  -5   54.31    1.07
  -1   2   5   53.33    1.21
   1  -2  -5   54.20    1.19
  -1   2  -5   54.30    1.14
  -1  -2   5   54.77    1.18
   1   2   5   52.04    1.21
   1   2   5   54.30    1.14
  -1   2  -5   52.23    1.22
  -1  -3  -5    1.58    0.19
   1  -3   5    1.66    0.19
  -1   3   5    1.80    0.19
   1   3  -5    1.46    0.18
  -1  -3  -5    1.68    0.14
  -1   3   5    1.93    0.20
   1  -3  -5    1.72    0.18
  -1   3  -5    1.50    0.19
  -1  -3   5    1.94    0.16
   1   3   5    2.14    0.21
  -1   4   5   19.67    0.65
  -1  -4  -5   21.13    0.69
   1   4  -5   19.85    0.68
   1  -4   5   19.22    0.69
   1   4   5   19.34    0.66
  -1   4  -5   19.62    0.68
  -1  -4   5   19.61    0.69
   1  -4  -5   19.51    0.67
  -1   0   6    8.80    0.28
   1   0   6    8.66    0.29
   1   0  -6    9.18    0.28
  -1   0  -6    9.12    0.30
   1   0  -6    9.00    0.32
  -1   0   6    8.69    0.31
  -1   0  -6    8.99    0.31
   1   0   6    8.81    0.31
  -1  -1  -6    5.22    0.21
   1   1  -6    5.10    0.20
  -1   1   6    4.90    0.19
  -1   1   6    4.94    0.24
  -1  -1  -6    4.81    0.23
   1  -1   6    5.34    0.21
   1   1  -6    5.25    0.25
   1  -1   6    5.00    0.24
  -1   1  -6    5.53    0.23
   1  -1  -6    5.26    0.23
   1  -1  -6    5.43    0.23
  -1  -1   6    5.16    0.23
  -1   1  -6    5.37    0.24
   1   1   6    5.25    0.24
  -1  -1   6    5.35    0.23
   1   1   6    5.51    0.24
   1   2  -6    6.93    0.32
  -1   2   6    6.92    0.30
  -1  -2  -6    6.92    0.25
   1  -2   6    6.70    0.31
  -1  -2  -6    6.46    0.30
   1  -2   6    6.96    0.25
  -1   2  -6    6.91    0.25
  -1  -2   6    6.62    0.30
   1   2   6    6.92    0.25
  -1   2  -6    6.38    0.30
   1  -2  -6    7.12    0.29
   1  -2  -6    6.19    0.29
   1   2   6    6.82    0.30
  -1  -2   6    7.36    0.29
  -1   3   6    5.12    0.29
  -1  -3  -6    4.79    0.29
   1  -3   6    4.47    0.29
   1   3  -6    4.79    0.29
  -1  -3   6    4.54    0.28
   1  -3  -6    5.03    0.26
   1  -3  -6    4.52    0.28
   1   3   6    4.85    0.28
  -1  -3   6    4.64    0.24
  -1   3  -6    4.63    0.29
  -1  -4  -6    3.59    0.28
   1   4  -6    4.06    0.31
  -1   4   6    3.81    0.29
   1  -4   6    3.67    0.30
  -1   4  -6    4.08    0.31
  -1  -4   6    3.56    0.30
   1  -4  -6    3.78    0.29
   1   4   6    4.14    0.29
  -1   0  -7    9.09    0.32
   1   0  -7    9.43    0.31
   1   0   7    9.40    0.34
  -1   0   7    8.85    0.30
   1   0   7    8.80    0.31
  -1   0   7    8.32    0.32
   1   0  -7    9.24    0.34
  -1   0  -7    9.08    0.33
  -1  -1  -7  237.68    4.42
   1  -1   7  234.37    4.49
  -1   1   7  226.81    4.48
  -1  -1  -7  238.45    4.49
  -1   1   7  194.40    4.38
   1   1  -7  217.48    4.40
   1   1  -7  234.60    4.51
   1  -1   7  234.73    4.41
  -1   1  -7  236.22    4.48
   1  -1  -7  238.14    4.48
   1  -1  -7  241.11    4.47
  -1  -1   7  229.15    4.46
   1   1   7  210.99    4.46
  -1  -1   7  231.93    4.46
  -1   1  -7  224.11    4.45
   1   1   7  232.51    4.47
  -1   2   7    8.18    0.36
   1   2  -7    8.23    0.37
  -1  -2  -7    8.40    0.30
   1  -2   7    8.73    0.30
  -1  -2  -7    8.08    0.35
   1  -2   7    7.99    0.36
   1  -2  -7    8.34    0.35
   1   2   7    8.22    0.35
  -1   2  -7    8.28    0.31
  -1   2  -7    8.83    0.37
  -1  -2   7    8.41    0.33
  -1  -2   7    8.09    0.35
   1  -2  -7    8.46    0.33
   1   3  -7  139.45    2.98
  -1   3   7  145.05    2.96
   1  -3   7  140.64    2.98
  -1  -3  -7  140.68    2.95
   1   3   7  135.45    2.93
  -1  -3   7  139.96    2.97
  -1   3  -7  138.41    2.97
  -1  -3   7  138.76    2.85
   1  -3  -7  140.03    2.95
   1  -3  -7  140.05    2.87
  -1  -4  -7    5.44    0.36
  -1   4   7    6.47    0.38
   1   4  -7    6.51    0.39
   1  -4   7    6.81    0.41
  -1  -4   7    6.41    0.39
   1  -4  -7    6.38    0.38
  -1   4  -7    5.94    0.38
   1   4   7    6.29    0.37
   1   0   8   34.37    0.86
   1   0  -8   33.24    0.86
   1   0   8   32.34    0.82
  -1   0   8   34.87    0.86
   1   0  -8   34.01    0.82
  -1   0  -8   34.80    0.85
  -1   0   8   34.36    0.82
  -1   0  -8   34.16    0.84
  -1  -1  -8   19.34    0.52
   1  -1   8   19.87    0.58
  -1   1   8   18.08    0.57
   1   1  -8   18.59    0.58
   1   1  -8   18.42    0.52
  -1  -1  -8   19.27    0.57
   1  -1   8   19.34    0.52
  -1  -1   8   19.32    0.56
   1   1   8   18.95    0.56
   1  -1  -8   19.01    0.56
  -1  -1   8   18.59    0.55
  -1   1  -8   18.52    0.56
  -1   1  -8   18.13    0.56
   1   1   8   16.87    0.56
   1  -1  -8   18.08    0.55
   1  -2   8   27.76    0.69
   1   2  -8   26.24    0.79
  -1  -2  -8   28.01    0.70
   1  -2   8   25.14    0.77
  -1   2   8   26.90    0.78
  -1  -2  -8   26.97    0.78
  -1  -2   8   27.14    0.77
  -1   2  -8   26.89    0.78
   1  -2  -8   26.52    0.73
  -1  -2   8   27.81    0.73
   1   2   8   25.67    0.76
   1  -2  -8   26.64    0.76
  -1   3   8    6.61    0.36
   1   3  -8    7.18    0.39
   1  -3   8    6.57    0.37
  -1  -3  -8    6.27    0.36
  -1  -3   8    6.30    0.36
   1  -3  -8    6.24    0.35
  -1   3  -8    6.34    0.36
   1   3   8    6.31    0.35
  -1  -4  -8   17.72    0.68
  -1   4   8   16.91    0.66
   1   4  -8   17.84    0.70
   1  -4   8   16.53    0.68
  -1   4  -8   16.57    0.68
   1  -4  -8   15.54    0.65
   1   4   8   16.60    0.65
  -1  -4   8   16.46    0.67
  -1   0   9   12.53    0.42
  -1   0   9   13.20    0.45
   1   0   9   12.41    0.45
   1   0  -9   12.32    0.41
  -1   0  -9   12.19    0.44
   1   0   9   11.84    0.41
  -1   0  -9   12.22    0.43
   1   0  -9   11.95    0.44
   1   1  -9    3.09    0.23
  -1  -1  -9    3.58    0.23
   1  -1   9    3.76    0.24
  -1  -1  -9    3.35    0.20
  -1   1   9    3.24    0.23
   1  -1   9    3.34    0.20
  -1  -1   9    3.42    0.22
  -1   1  -9    3.25    0.23
   1  -1  -9    3.46    0.23
   1  -1  -9    3.40    0.22
   1   1   9    3.21    0.22
  -1   1  -9    3.49    0.23
   1   1   9    3.52    0.24
  -1  -1   9    3.23    0.22
  -1   2   9    9.07    0.42
   1   2  -9    9.85    0.44
  -1  -2  -9    9.17    0.42
   1  -2   9    9.78    0.43
  -1  -2   9    9.04    0.41
  -1   2  -9    9.04    0.42
  -1  -2   9   10.26    0.39
   1  -2  -9   10.17    0.40
   1   2   9    9.76    0.42
   1  -2  -9    9.76    0.42
   1  -3   9    3.25    0.29
  -1  -3  -9    2.61    0.28
  -1   3   9    2.95    0.30
   1   3  -9    2.78    0.30
   1  -3  -9    2.89    0.26
  -1  -3   9    3.14    0.27
   1   3   9    3.53    0.27
  -1   3  -9    3.29    0.28
  -1   0 -10  196.19    4.03
  -1   0  10  205.81    4.02
  -1   0  10  199.75    4.07
   1   0  10  203.46    4.07
   1   0  10  201.01    4.03
   1   0 -10  204.29    4.03
  -1   0 -10  204.32    4.07
   1   0 -10  205.85    4.09
   1  -1  10    9.55    0.42
  -1   1  10    9.17    0.41
   1   1 -10    9.40    0.42
  -1  -1 -10    9.92    0.38
  -1  -1 -10    9.54    0.41
   1  -1  10    9.87    0.37
   1  -1 -10    9.83    0.40
  -1  -1  10    9.88    0.40
   1   1  10    9.52    0.40
  -1   1 -10    9.79    0.41
   1  -1 -10    9.76    0.40
  -1  -1  10    9.71    0.39
   1  -2  10  163.60    3.41
  -1  -2 -10  160.92    3.40
  -1   2  10  162.28    3.41
   1   2 -10  160.72    3.43
  -1  -2  10  167.34    3.33
   1  -2 -10  165.39    3.33
   1   2  10  160.27    3.38
   1  -2 -10  163.40    3.40
  -1  -2  10  162.63    3.40
  -1   2 -10  159.14    3.41
  -1   3  10    6.30    0.39
   1   3 -10    5.92    0.39
   1  -3  10    6.22    0.39
  -1  -3 -10    6.42    0.39
  -1  -3  10    5.40    0.37
   1   3  10    6.02    0.37
  -1   3 -10    5.33    0.36
   1  -3 -10    5.55    0.36
  -1   0 -11   40.85    1.06
  -1   0  11   38.86    1.04
   1   0 -11   40.94    1.07
   1   0 -11   40.36    1.02
   1   0  11   40.55    1.06
  -1   0 -11   40.28    1.04
   1   0  11   40.95    1.03
   1   1 -11    7.17    0.39
   1  -1  11    8.75    0.36
   1  -1  11    8.49    0.40
  -1   1  11    8.71    0.40
  -1  -1 -11    8.59    0.36
  -1  -1 -11    7.75    0.39
   1   1  11    7.72    0.38
   1  -1 -11    8.30    0.38
  -1   1 -11    8.47    0.40
   1  -1 -11    7.76    0.37
  -1  -1  11    8.80    0.39
  -1  -1  11    7.93    0.38
   1   2 -11   30.68    0.94
  -1  -2 -11   29.13    0.91
   1  -2  11   29.65    0.92
  -1   2  11   29.73    0.91
  -1  -2  11   30.43    0.91
  -1  -2  11   31.40    0.86
   1  -2 -11   30.49    0.91
  -1   2 -11   30.39    0.93
   1   2  11   30.13    0.91
  -1   3  11    6.37    0.41
   1   3 -11    5.61    0.40
   1  -3  11    6.49    0.42
  -1  -3 -11    6.90    0.42
   1  -3 -11    6.63    0.41
   1   3  11    6.52    0.41
  -1  -3  11    6.42    0.41
  -1   3 -11    7.11    0.43
  -1   0 -12    2.38    0.25
  -1   0  12    2.68    0.26
   1   0  12    2.48    0.24
  -1   0 -12    2.54    0.27
   1   0 -12    2.62    0.27
   1   1 -12    4.64    0.32
  -1   1  12    5.20    0.33
  -1  -1 -12    4.65    0.32
   1  -1  12    5.28    0.33
   1  -1  12    4.79    0.28
  -1  -1  12    4.52    0.29
   1   1  12    5.03    0.31
   1  -1 -12    4.85    0.30
   1  -1 -12    4.18    0.29
  -1   1 -12    4.79    0.32
  -1  -1  12    4.60    0.31
  -1   2  12    2.40    0.28
  -1  -2 -12    2.86    0.31
   1  -2  12    2.59    0.29
   1   2 -12    2.91    0.31
  -1   2 -12    2.18    0.27
   1  -2 -12    1.98    0.26
   1   2  12    2.27    0.26
  -1  -2  12    2.56    0.28
  -1   0 -13   17.83    0.63
   1   0 -13   17.94    0.66
  -1   0  13   17.44    0.63
   1   0  13   18.00    0.62
   1   1 -13   43.11    1.21
  -1   1  13   42.30    1.19
  -1  -1 -13   42.85    1.19
   1  -1  13   43.55    1.20
   1  -1 -13   44.15    1.18
  -1   1 -13   44.44    1.20
   1  -1 -13   45.35    1.19
   1   1  13   42.41    1.17
  -1  -1  13   45.36    1.17
  -1   0  14    7.56    0.41
   1   0  14    8.57    0.41
  -1   0 -14    7.80    0.41
   1   0 -14    7.81    0.43
  -2   0   0   40.01    0.79
   2   0   0   39.60    0.79
   2   0   0   40.65    0.80
  -2   0   0   40.29    0.78
  -2   1   0   40.50    0.80
   2  -1   0   40.10    0.82
  -2  -1   0   40.37    0.81
   2   1   0   40.55    0.83
  -2   1   0   40.16    0.84
   2   1   0   40.73    0.80
  -2   1   0   39.71    0.84
   2   2   0   31.73    0.73
  -2   2   0   30.86    0.73
   2  -2   0   31.54    0.72
   2   2   0   33.12    0.71
  -2   2   0   30.97    0.74
  -2   2   0   32.27    0.69
   2   2   0   31.84    0.74
  -2   3   0   23.68    0.58
   2   3   0   22.35    0.61
   2   3   0   23.82    0.60
  -2   3   0   22.82    0.63
  -2   3   0   23.52    0.63
   2   3   0   22.27    0.63
   2  -3   0   22.58    0.61
  -2  -4   0   24.85    0.70
  -2   4   0   24.80    0.73
   2   4   0   25.78    0.75
  -2   4   0   25.84    0.75
   2  -4   0   26.04    0.73
   2   4   0   25.65    0.71
  -2   0  -1    0.92    0.07
   2   0  -1    0.84    0.07
  -2   0   1    0.79    0.07
  -2   0   1    0.74    0.05
   2   0  -1    0.78    0.05
   2   0   1    0.85    0.08
   2   0   1    0.79    0.04
  -2   0  -1    0.86    0.05
   2   1  -1   23.08    0.53
  -2  -1  -1   23.26    0.52
  -2   1   1   23.32    0.51
   2   1  -1   24.40    0.52
  -2   1   1   22.68    0.53
   2  -1   1   23.18    0.53
  -2   1  -1   24.14    0.46
   2  -1  -1   23.76    0.48
   2   1   1   24.34    0.47
  -2  -1   1   24.01    0.48
   2   1   1   22.92    0.52
   2  -1  -1   23.06    0.53
  -2   1  -1   23.92    0.53
   2   1   1   23.46    0.53
  -2  -1   1   22.44    0.52
  -2   1  -1   22.59    0.53
   2   2  -1    1.29    0.13
  -2   2   1    1.32    0.11
  -2  -2  -1    1.14    0.11
  -2   2   1    1.25    0.11
   2  -2   1    0.88    0.10
   2   2  -1    1.08    0.10
   2   2  -1    0.93    0.08
  -2   2   1    1.03    0.10
  -2  -2   1    1.10    0.11
   2   2   1    1.12    0.11
  -2   2  -1    0.99    0.10
  -2   2  -1    1.12    0.12
  -2   2  -1    1.19    0.08
   2   2   1    1.16    0.11
   2   2   1    1.13    0.09
  -2  -3  -1   16.80    0.49
   2   3  -1   16.53    0.45
   2  -3   1   16.62    0.50
  -2   3   1   16.94    0.51
   2   3  -1   16.38    0.52
   2   3  -1   16.68    0.49
  -2   3   1   16.77    0.50
  -2   3   1   17.16    0.48
  -2  -3   1   16.41    0.50
  -2   3  -1   16.83    0.52
  -2   3  -1   16.81    0.50
   2   3   1   17.95    0.47
   2   3   1   16.62    0.50
  -2   3  -1   16.97    0.44
   2   3   1   17.33    0.50
  -2  -4  -1    1.63    0.19
  -2   4   1    1.45    0.18
   2   4  -1    1.54    0.20
  -2   4   1    1.39    0.16
   2  -4   1    1.38    0.18
   2   4  -1    1.47    0.17
   2  -4  -1    1.61    0.19
   2  -4  -1    1.57    0.19
  -2   4  -1    1.77    0.21
  -2   4  -1    1.22    0.16
   2   4   1    1.33    0.17
  -2  -4   1    1.27    0.18
   2   4   1    1.40    0.18
   2   0  -2    3.56    0.11
   2   0  -2    3.36    0.14
   2   0   2    3.76    0.15
  -2   0   2    3.38    0.14
  -2   0  -2    3.90    0.15
  -2   0   2    3.50    0.11
  -2   0  -2    3.49    0.11
   2   0   2    3.52    0.11
  -2  -1  -2    2.20    0.07
  -2   1   2    2.07    0.11
  -2   1   2    1.92    0.11
   2  -1   2    2.12    0.12
  -2  -1  -2    1.90    0.11
   2  -1   2    2.14    0.07
   2   1  -2    1.96    0.11
  -2  -1   2    1.95    0.11
  -2   1  -2    1.91    0.11
   2   1   2    2.03    0.11
   2  -1  -2    1.92    0.11
  -2   1  -2    1.99    0.11
   2  -1  -2    2.11    0.06
   2   1   2    2.00    0.11
   2   2  -2    2.54    0.15
  -2   2   2    2.48    0.14
  -2   2   2    2.62    0.12
   2   2  -2    2.52    0.11
  -2  -2  -2    2.56    0.15
  -2   2   2    2.42    0.15
   2  -2   2    2.49    0.11
   2   2  -2    2.46    0.16
   2  -2   2    2.48    0.15
   2   2   2    2.48    0.15
  -2   2  -2    2.44    0.16
  -2  -2   2    2.19    0.14
  -2   2  -2    2.35    0.14
   2   2   2    2.64    0.11
   2  -2  -2    2.59    0.15
   2   2   2    2.39    0.14
   2   3  -2    1.42    0.16
   2   3  -2    1.37    0.11
   2  -3   2    1.35    0.16
  -2   3   2    1.36    0.12
   2  -3   2    1.32    0.11
  -2   3   2    1.34    0.15
  -2  -3  -2    1.51    0.16
  -2   3   2    1.37    0.14
   2   3  -2    1.35    0.15
  -2   3  -2    1.23    0.15
   2  -3  -2    1.29    0.15
   2   3   2    1.37    0.15
  -2  -3   2    1.46    0.15
   2   3   2    1.28    0.11
   2   3   2    1.53    0.16
  -2   3  -2    1.42    0.15
   2  -4   2    1.52    0.19
   2   4  -2    1.63    0.19
   2   4  -2    1.47    0.19
  -2   4   2    1.53    0.19
  -2   4   2    1.73    0.18
  -2  -4  -2    1.70    0.20
  -2  -4   2    1.66    0.19
  -2   4  -2    1.86    0.20
  -2   4  -2    1.78    0.21
   2  -4  -2    1.93    0.21
   2   4   2    2.14    0.22
   2   4   2    1.76    0.20
  -2   0   3   83.04    1.55
   2   0   3   81.89    1.55
   2   0   3   78.55    1.61
  -2   0   3   78.15    1.61
  -2   0  -3   79.62    1.60
  -2   0  -3   82.35    1.55
   2   0  -3   75.45    1.61
   2   0  -3   81.85    1.54
   2  -1   3  493.50    9.10
   2   1  -3  470.02    9.27
   2   1  -3  498.32    9.26
  -2  -1  -3  491.64    9.51
   2  -1   3  480.62    9.39
  -2  -1  -3  489.02    9.09
  -2   1   3  477.88    9.27
  -2   1  -3  495.44    9.27
   2   1   3  497.94    9.35
   2   1   3  466.72    9.32
  -2  -1   3  496.59    9.42
  -2   1  -3  462.30    9.19
   2  -1  -3  462.91    9.24
  -2   2   3   54.50    1.21
   2  -2   3   55.92    1.11
   2  -2   3   56.89    1.22
  -2  -2  -3   55.70    1.12
  -2   2   3   54.68    1.19
   2   2  -3   56.45    1.08
   2   2  -3   54.78    1.21
  -2  -2  -3   53.78    1.20
   2   2  -3   55.93    1.22
  -2   2   3   56.90    1.10
  -2   2  -3   55.24    1.17
  -2  -2   3   53.67    1.18
   2   2   3   55.53    1.18
   2   2   3   53.50    1.20
  -2   2  -3   55.14    1.22
   2  -2  -3   54.33    1.20
  -2  -3  -3  252.49    4.77
  -2  -3  -3  246.20    4.86
   2   3  -3  243.01    4.87
   2   3  -3  252.92    4.90
   2  -3   3  248.43    4.75
  -2   3   3  250.71    4.88
  -2   3   3  246.04    4.84
   2  -3   3  249.01    4.89
   2  -3  -3  250.93    4.86
  -2  -3   3  246.57    4.84
   2   3   3  249.25    4.87
  -2   3  -3  242.93    4.89
  -2   3  -3  249.84    4.82
   2   3   3  257.49    4.84
   2  -4   3   20.95    0.69
  -2   4   3   20.67    0.67
   2   4  -3   22.31    0.70
  -2  -4  -3   21.35    0.67
  -2   4   3   20.97    0.64
   2   4  -3   20.15    0.66
   2  -4  -3   21.99    0.67
  -2   4  -3   22.09    0.70
  -2  -4   3   21.81    0.65
   2   4   3   21.27    0.67
   2   4   3   21.63    0.65
   2   0  -4   19.52    0.51
  -2   0   4   19.93    0.44
  -2   0   4   18.94    0.50
   2   0   4   19.70    0.45
  -2   0  -4   19.51    0.45
  -2   0  -4   19.81    0.50
   2   0   4   19.29    0.50
  -2  -1  -4   30.81    0.62
   2  -1   4   28.88    0.71
   2   1  -4   29.05    0.72
   2  -1   4   30.61    0.62
   2   1  -4   28.73    0.68
  -2   1   4   28.39    0.68
  -2  -1  -4   28.84    0.70
   2   1  -4   30.99    0.57
  -2   1   4   29.58    0.71
  -2   1  -4   29.57    0.69
   2   1   4   29.35    0.68
   2   1   4   29.96    0.70
   2  -1  -4   29.15    0.70
  -2   1  -4   29.82    0.69
  -2  -1   4   29.71    0.70
  -2   2   4   12.37    0.40
   2  -2   4   12.14    0.41
  -2   2   4   12.65    0.29
   2   2  -4   13.10    0.42
   2   2  -4   12.82    0.41
  -2   2   4   12.90    0.40
  -2  -2  -4   12.44    0.40
   2   2  -4   12.70    0.28
  -2  -2  -4   13.11    0.33
   2  -2   4   12.94    0.33
  -2  -2   4   12.54    0.39
  -2   2  -4   12.89    0.37
   2   2   4   12.21    0.39
   2   2   4   12.65    0.37
   2  -2  -4   12.12    0.39
  -2   2  -4   12.79    0.41
  -2   3   4   14.85    0.50
   2  -3   4   14.53    0.51
  -2  -3  -4   14.76    0.50
   2   3  -4   15.02    0.51
   2   3  -4   14.56    0.51
  -2   3   4   15.08    0.48
   2   3   4   15.79    0.47
  -2   3  -4   14.61    0.51
   2  -3  -4   14.91    0.48
   2   3   4   15.31    0.50
  -2  -3   4   15.44    0.47
  -2   3  -4   15.05    0.45
  -2  -4  -4    6.07    0.33
  -2   4   4    5.94    0.33
   2   4  -4    5.12    0.33
   2   4  -4    6.04    0.34
   2  -4   4    6.12    0.35
  -2   4   4    5.42    0.31
  -2  -4   4    5.36    0.29
   2   4   4    5.15    0.31
   2  -4  -4    6.16    0.32
  -2   4  -4    5.88    0.34
   2   0  -5    6.61    0.27
  -2   0  -5    7.16    0.23
  -2   0  -5    7.49    0.27
   2   0   5    7.22    0.23
   2   0  -5    6.91    0.22
   2   0   5    7.22    0.27
  -2   0   5    6.94    0.21
  -2   1   5   41.39    0.77
   2  -1   5   38.83    0.91
  -2   1   5   38.00    0.91
  -2  -1  -5   37.52    0.90
  -2  -1  -5   39.86    0.82
   2   1  -5   39.47    0.88
   2  -1   5   39.48    0.82
  -2   1   5   38.78    0.88
   2   1  -5   39.32    0.93
   2   1  -5   39.03    0.79
   2   1   5   39.17    0.88
  -2  -1   5   39.16    0.90
  -2   1  -5   38.19    0.89
   2  -1  -5   38.29    0.90
  -2   1  -5   37.81    0.89
   2   1   5   38.66    0.91
   2  -2   5    5.94    0.28
   2   2  -5    6.05    0.27
  -2   2   5    5.67    0.26
   2   2  -5    5.89    0.28
  -2  -2  -5    5.67    0.27
   2  -2   5    6.02    0.20
  -2   2   5    5.94    0.27
  -2  -2  -5    6.22    0.21
   2   2   5    5.62    0.26
  -2   2  -5    6.08    0.24
  -2   2  -5    5.48    0.27
  -2  -2   5    5.46    0.25
   2  -2  -5    5.47    0.25
   2   2   5    5.91    0.24
   2  -3   5   26.17    0.76
   2   3  -5   24.73    0.74
  -2   3   5   26.15    0.73
   2   3  -5   25.60    0.75
  -2   3   5   25.52    0.73
  -2  -3  -5   25.72    0.74
  -2   3  -5   23.70    0.73
   2   3   5   25.99    0.67
   2   3   5   25.12    0.72
  -2   3  -5   25.76    0.65
  -2  -3   5   25.49    0.69
   2  -3  -5   24.15    0.69
  -2  -4  -5    4.00    0.29
   2  -4   5    3.98    0.30
  -2   4   5    4.22    0.29
   2   4  -5    4.21    0.30
  -2   4   5    4.48    0.29
  -2  -4   5    4.34    0.30
  -2   4  -5    3.37    0.28
   2  -4  -5    3.86    0.26
   2   4   5    3.79    0.28
   2   0   6   39.32    0.93
   2   0  -6   37.58    0.85
   2   0  -6   39.75    0.93
  -2   0   6   38.99    0.85
   2   0   6   39.39    0.87
  -2   0  -6   39.56    0.87
  -2   0  -6   39.12    0.91
   2  -1   6   16.79    0.42
  -2  -1  -6   16.79    0.42
  -2   1   6   17.23    0.39
   2   1  -6   16.49    0.40
   2   1  -6   16.82    0.52
  -2  -1  -6   17.36    0.50
  -2   1   6   16.45    0.50
   2  -1   6   16.77    0.50
  -2  -1   6   15.80    0.48
   2   1   6   16.65    0.47
   2  -1  -6   16.58    0.49
  -2   1  -6   17.05    0.49
  -2  -1   6   17.15    0.47
  -2   1  -6   16.00    0.48
   2   1   6   16.38    0.50
   2  -1  -6   16.88    0.47
   2  -2   6   33.78    0.72
   2   2  -6   30.42    0.84
  -2   2   6   31.54    0.81
  -2   2   6   30.44    0.82
   2  -2   6   31.30    0.84
  -2  -2  -6   32.57    0.72
  -2  -2  -6   30.69    0.83
   2  -2  -6   31.47    0.80
  -2  -2   6   32.22    0.80
   2   2   6   29.61    0.80
  -2   2  -6   31.65    0.83
  -2   2  -6   31.85    0.77
   2   2   6   32.26    0.77
  -2   3   6   10.60    0.43
  -2   3   6   10.53    0.43
   2  -3   6   10.38    0.45
  -2  -3  -6   10.12    0.43
   2   3  -6   10.73    0.45
   2   3   6   10.14    0.42
   2  -3  -6   11.53    0.42
  -2   3  -6   10.27    0.44
  -2  -3   6   10.66    0.39
  -2  -4  -6   20.78    0.72
   2   4  -6   21.17    0.73
   2  -4   6   20.79    0.74
  -2   4   6   21.68    0.72
  -2  -4   6   19.77    0.73
   2   4   6   21.16    0.71
  -2   4  -6   20.39    0.72
   2   0  -7    0.19    0.06
  -2   0   7    0.05    0.05
   2   0  -7   -0.02    0.05
   2   0   7    0.04    0.06
  -2   0  -7    0.08    0.05
  -2   0   7    0.33    0.08
  -2   0  -7    0.09    0.06
   2   0   7    0.08    0.05
   2  -1   7   12.40    0.36
   2  -1   7   12.98    0.44
   2   1  -7   13.03    0.45
  -2  -1  -7   12.93    0.37
  -2  -1  -7   12.54    0.43
  -2   1   7   12.96    0.44
   2   1  -7   11.99    0.35
  -2   1  -7   12.85    0.42
   2  -1  -7   12.84    0.43
  -2   1  -7   13.21    0.44
   2  -1  -7   12.83    0.41
   2   1   7   12.78    0.41
   2   1   7   12.26    0.44
  -2  -1   7   12.66    0.43
  -2  -1   7   12.43    0.41
  -2  -2  -7   -0.03    0.06
   2  -2   7    0.04    0.07
   2   2  -7    0.05    0.08
   2  -2   7    0.12    0.07
  -2   2   7    0.03    0.06
  -2  -2   7    0.38    0.10
  -2   2  -7    0.02    0.07
   2  -2  -7    0.02    0.06
  -2  -2   7    0.12    0.08
   2  -2  -7    0.03    0.06
  -2   2  -7    0.04    0.06
   2   2   7    0.10    0.07
   2   2   7    0.07    0.07
  -2   3   7    7.07    0.37
  -2  -3  -7    7.49    0.38
   2  -3   7    7.01    0.38
   2   3  -7    7.00    0.38
  -2  -3   7    7.32    0.33
   2  -3  -7    7.35    0.34
  -2  -3   7    7.22    0.37
  -2   3  -7    7.00    0.37
   2  -3  -7    7.51    0.37
   2   3   7    6.84    0.35
   2   4  -7    0.12    0.11
  -2  -4  -7    0.11    0.11
   2  -4   7   -0.01    0.09
  -2   4   7    0.00    0.10
   2  -4  -7    0.02    0.10
  -2   4  -7    0.00    0.10
   2   4   7    0.06    0.09
  -2  -4   7    0.07    0.11
  -2   0   8    4.33    0.21
   2   0  -8    4.14    0.24
   2   0  -8    4.10    0.20
  -2   0   8    4.29    0.24
   2   0   8    4.57    0.22
  -2   0  -8    4.29    0.22
   2   0   8    4.79    0.26
  -2   0  -8    4.50    0.25
   2  -1   8    7.28    0.33
  -2  -1  -8    6.54    0.31
  -2  -1  -8    6.80    0.26
  -2   1   8    6.63    0.32
   2   1  -8    6.49    0.32
   2  -1   8    7.00    0.26
  -2  -1   8    6.68    0.31
  -2   1  -8    6.00    0.29
   2  -1  -8    7.36    0.33
  -2   1  -8    6.92    0.32
  -2  -1   8    6.80    0.29
   2  -1  -8    6.69    0.29
   2   1   8    6.68    0.29
   2   1   8    6.64    0.32
  -2  -2  -8    4.85    0.29
  -2   2   8    4.88    0.29
   2  -2   8    5.07    0.30
   2   2   8    5.25    0.29
   2  -2  -8    5.18    0.29
  -2  -2   8    4.95    0.27
  -2  -2   8    4.17    0.26
   2  -2  -8    5.20    0.27
  -2   2  -8    4.57    0.28
   2  -3   8    5.91    0.36
  -2  -3  -8    6.18    0.36
   2   3  -8    6.09    0.37
  -2   3   8    6.09    0.35
  -2  -3   8    5.89    0.35
   2  -3  -8    6.70    0.33
   2  -3  -8    5.74    0.34
  -2   3  -8    6.60    0.37
   2   3   8    6.66    0.35
  -2  -3   8    6.23    0.32
  -2   4   8    5.43    0.36
   2   4  -8    4.71    0.37
  -2  -4  -8    5.24    0.36
   2  -4   8    4.72    0.37
   2  -4  -8    4.87    0.35
  -2   4  -8    4.91    0.36
   2   4   8    4.84    0.34
  -2  -4   8    5.29    0.37
   2   0   9   17.96    0.57
   2   0  -9   17.70    0.51
  -2   0   9   16.28    0.55
   2   0   9   17.18    0.51
   2   0  -9   16.42    0.56
  -2   0  -9   16.63    0.52
  -2   0   9   17.36    0.51
  -2   0  -9   18.56    0.57
   2   1  -9   18.54    0.62
  -2  -1  -9   19.99    0.55
   2  -1   9   19.71    0.54
  -2   1   9   19.40    0.61
   2  -1   9   19.25    0.62
  -2  -1  -9   17.99    0.60
   2   1   9   17.82    0.61
  -2  -1   9   19.27    0.58
  -2  -1   9   17.57    0.57
  -2   1  -9   18.28    0.58
   2   1   9   18.71    0.58
   2  -1  -9   19.05    0.58
   2  -1  -9   19.23    0.60
  -2   1  -9   19.16    0.61
   2   2  -9   11.32    0.48
  -2   2   9   12.21    0.48
   2  -2   9   11.60    0.48
  -2  -2  -9   11.39    0.47
   2  -2  -9   11.97    0.46
   2  -2  -9   11.80    0.46
  -2   2  -9   11.27    0.47
  -2  -2   9   11.81    0.46
  -2  -2   9   10.63    0.43
   2   2   9   10.74    0.45
   2   3  -9   17.45    0.67
   2  -3   9   17.65    0.66
  -2   3   9   16.37    0.63
  -2  -3  -9   16.62    0.64
  -2  -3   9   16.50    0.63
  -2   3  -9   16.65    0.64
   2  -3  -9   17.16    0.63
   2   3   9   17.57    0.63
   2   0 -10    6.50    0.29
  -2   0 -10    6.08    0.30
   2   0  10    6.96    0.34
  -2   0  10    5.93    0.32
   2   0  10    6.46    0.30
  -2   0 -10    6.76    0.34
   2   0 -10    6.31    0.33
  -2  -1 -10    0.21    0.08
  -2   1  10    0.17    0.10
   2   1 -10    0.13    0.09
  -2  -1 -10    0.15    0.10
   2  -1  10    0.42    0.10
   2  -1  10    0.39    0.12
   2  -1 -10    0.21    0.09
   2   1  10    0.21    0.09
  -2   1 -10    0.17    0.10
   2  -1 -10    0.16    0.09
  -2   1 -10    0.23    0.10
   2   1  10    0.26    0.12
  -2  -1  10    0.17    0.09
  -2  -1  10    0.10    0.09
  -2  -2 -10    3.86    0.29
   2  -2  10    4.03    0.30
   2   2 -10    4.17    0.31
  -2   2  10    4.19    0.30
   2  -2 -10    4.54    0.29
  -2  -2  10    3.80    0.28
   2   2  10    3.91    0.28
  -2   2 -10    4.04    0.29
  -2  -2  10    4.34    0.28
   2  -2 -10    4.32    0.29
   2  -3  10    0.28    0.14
  -2   3  10    0.10    0.11
  -2  -3 -10    0.19    0.12
   2   3 -10    0.15    0.12
   2   3  10    0.30    0.13
  -2   3 -10    0.56    0.16
  -2  -3  10    0.15    0.12
   2  -3 -10    0.28    0.13
  -2   0  11   34.90    0.95
  -2   0 -11   33.09    0.94
   2   0 -11   33.75    0.96
  -2   0 -11   32.76    0.89
   2   0  11   33.92    0.89
   2   0  11   34.81    0.95
  -2   1  11   58.50    1.44
   2  -1  11   59.36    1.35
   2   1 -11   57.22    1.46
   2  -1  11   57.81    1.45
  -2  -1 -11   59.54    1.45
   2  -1 -11   62.50    1.42
  -2  -1  11   59.46    1.41
  -2  -1  11   57.82    1.40
   2  -1 -11   58.64    1.42
   2   1  11   59.34    1.41
  -2   1 -11   58.50    1.42
  -2  -2 -11   27.92    0.86
   2  -2  11   25.00    0.84
  -2   2  11   25.73    0.83
   2   2 -11   25.65    0.86
  -2  -2  11   25.88    0.78
   2  -2 -11   25.65    0.81
  -2   2 -11   25.73    0.83
  -2  -2  11   28.07    0.84
   2   2  11   25.54    0.81
   2  -2 -11   25.72    0.79
  -2   3  11   36.87    1.13
   2   3 -11   38.74    1.18
  -2  -3 -11   38.62    1.15
   2  -3  11   37.73    1.16
   2  -3 -11   38.95    1.13
   2   3  11   38.93    1.13
  -2   3 -11   37.50    1.14
  -2  -3  11   39.67    1.15
   2   0 -12   28.00    0.87
  -2   0 -12   28.78    0.82
  -2   0 -12   28.93    0.87
  -2   0  12   29.40    0.86
   2   0  12   28.74    0.87
   2   0  12   28.65    0.81
  -2   1  12    5.51    0.34
   2   1 -12    5.64    0.36
  -2  -1 -12    6.28    0.36
   2  -1  12    5.92    0.36
  -2   1 -12    5.47    0.33
  -2  -1  12    6.30    0.35
   2   1  12    5.66    0.33
   2  -1 -12    6.57    0.36
   2  -1 -12    5.72    0.33
  -2  -1  12    5.82    0.34
   2   2 -12   21.98    0.81
  -2  -2 -12   22.71    0.80
  -2   2  12   23.22    0.80
   2  -2  12   22.94    0.81
   2  -2 -12   23.85    0.79
  -2  -2  12   23.03    0.78
   2   2  12   23.02    0.77
  -2  -2  12   23.37    0.74
  -2   2 -12   22.52    0.78
   2   0 -13    0.11    0.10
   2   0  13    0.18    0.10
  -2   0 -13    0.00    0.08
  -2   0  13   -0.07    0.09
  -2   0 -13    0.09    0.11
   2  -1  13    2.44    0.29
   2   1 -13    2.15    0.27
  -2   1  13    1.76    0.24
  -2  -1 -13    2.13    0.27
  -2  -1  13    2.05    0.25
   2  -1 -13    2.17    0.26
   2   1  13    2.20    0.25
  -2   1 -13    2.05    0.25
   2  -1 -13    2.25    0.26
  -3   0   0    0.01    0.03
   3   0   0    0.05    0.04
   3   0   0    0.06    0.03
  -3   0   0    0.01    0.03
  -3   1   0    0.02    0.03
   3  -1   0    0.06    0.04
  -3   1   0    0.05    0.04
   3   1   0    0.09    0.03
  -3   1   0    0.06    0.04
  -3  -1   0    0.03    0.03
   3   1   0    0.10    0.04
   3   1   0    0.11    0.04
  -3   2   0    0.02    0.04
  -3   2   0    0.01    0.05
  -3   2   0    0.00    0.03
   3   2   0    0.01    0.04
   3  -2   0    0.10    0.04
   3   2   0    0.05    0.04
  -3  -2   0    0.01    0.03
   3   2   0    0.09    0.05
   3   3   0    0.13    0.06
  -3  -3   0   -0.02    0.04
   3  -3   0    0.09    0.06
   3   3   0    0.11    0.07
   3   3   0   -0.01    0.05
  -3   3   0    0.02    0.05
  -3   3   0   -0.02    0.06
  -3   3   0    0.12    0.07
  -3   4   0    0.03    0.08
   3  -4   0    0.03    0.07
   3   4   0    0.11    0.08
  -3  -4   0    0.01    0.07
  -3   4   0    0.00    0.06
  -3   0   1   27.17    0.57
   3   0   1   27.54    0.54
   3   0  -1   26.22    0.58
   3   0   1   26.38    0.59
   3   0  -1   25.90    0.55
  -3   0  -1   25.11    0.58
  -3   0   1   26.49    0.55
   3   1  -1   32.10    0.68
  -3  -1  -1   30.63    0.68
   3   1  -1   30.14    0.69
   3  -1   1   30.25    0.69
  -3   1   1   30.92    0.69
  -3   1   1   31.88    0.67
   3  -1  -1   32.77    0.65
  -3   1  -1   31.79    0.60
  -3  -1   1   31.46    0.63
   3   1   1   30.99    0.68
   3   1   1   31.46    0.61
   3   1   1   30.12    0.69
  -3   1  -1   32.26    0.70
  -3  -1   1   30.54    0.69
   3  -1  -1   30.59    0.69
  -3   1  -1   30.53    0.69
  -3   2   1   17.16    0.49
  -3   2   1   18.50    0.45
   3   2  -1   18.16    0.50
   3   2  -1   18.43    0.47
   3  -2   1   18.52    0.49
  -3  -2  -1   18.30    0.47
   3   2   1   18.20    0.49
  -3   2  -1   19.22    0.51
  -3   2  -1   17.54    0.49
   3  -2  -1   18.15    0.44
  -3   2  -1   18.99    0.42
  -3  -2   1   18.26    0.43
   3   2   1   19.33    0.43
   3   2   1   18.42    0.50
  -3  -2   1   17.82    0.49
  -3   3   1   19.31    0.52
  -3   3   1   19.35    0.58
  -3  -3  -1   20.28    0.55
   3   3  -1   20.06    0.55
   3  -3   1   19.31    0.56
   3   3  -1   19.39    0.59
   3   3   1   20.41    0.52
  -3  -3   1   19.59    0.51
  -3   3  -1   20.67    0.57
  -3   3  -1   19.72    0.59
   3   3   1   20.00    0.57
   3   3   1   19.37    0.57
   3  -3  -1   19.28    0.53
  -3   3  -1   20.54    0.49
  -3  -3   1   19.78    0.57
  -3   4   1   10.67    0.44
   3   4  -1   10.47    0.45
  -3  -4  -1   10.82    0.41
   3   4  -1   11.12    0.42
   3  -4   1   11.29    0.44
   3   4   1   10.80    0.44
  -3   4  -1   11.52    0.44
   3   4   1   11.72    0.45
  -3   4  -1   10.67    0.45
   3  -4  -1   10.53    0.45
  -3  -4   1   11.50    0.45
   3   0  -2   48.90    0.94
  -3   0   2   48.18    0.94
  -3   0  -2   45.56    0.99
   3   0   2   49.29    0.94
   3   0  -2   46.32    1.00
  -3   0  -2   49.41    0.94
   3   0   2   46.81    1.01
  -3   0   2   46.10    0.99
   3  -1   2   70.06    1.45
   3   1  -2   72.23    1.45
  -3  -1  -2   71.08    1.44
   3   1  -2   71.60    1.44
  -3   1   2   73.88    1.44
  -3   1   2   71.37    1.43
  -3  -1   2   71.56    1.33
   3   1   2   71.01    1.43
   3  -1  -2   70.18    1.35
  -3   1  -2   68.36    1.44
   3   1   2   72.24    1.46
  -3  -1   2   69.88    1.44
  -3   1  -2   67.13    1.43
   3  -1  -2   70.15    1.45
   3   2  -2   34.58    0.78
  -3  -2  -2   34.11    0.78
  -3   2   2   32.25    0.76
   3  -2   2   33.47    0.68
   3  -2   2   33.86    0.80
  -3   2   2   33.53    0.80
   3   2  -2   33.89    0.81
  -3  -2   2   32.54    0.78
  -3   2  -2   33.95    0.78
   3   2   2   33.22    0.79
  -3  -2   2   33.55    0.69
  -3   2  -2   32.18    0.80
   3  -2  -2   32.95    0.79
   3  -2  -2   32.33    0.70
   3   2   2   34.04    0.69
   3   2   2   33.68    0.79
  -3   3   2   35.19    0.85
   3  -3   2   37.16    0.79
   3   3  -2   34.78    0.87
   3  -3   2   36.93    0.90
   3   3  -2   35.16    0.91
  -3  -3  -2   36.42    0.88
  -3   3   2   35.42    0.90
   3   3   2   35.72    0.88
   3  -3  -2   36.33    0.82
  -3  -3   2   36.02    0.88
   3   3   2   35.39    0.80
   3   3   2   35.84    0.89
  -3   3  -2   35.20    0.87
  -3  -3   2   34.87    0.79
  -3   3  -2   34.91    0.91
   3  -3  -2   34.98    0.89
   3  -4   2   20.38    0.65
  -3  -4  -2   20.54    0.63
  -3   4   2   20.48    0.60
   3   4  -2   20.15    0.67
  -3   4   2   19.64    0.64
   3   4  -2   20.30    0.63
  -3  -4   2   20.50    0.64
  -3   4  -2   19.59    0.62
   3  -4  -2   19.98    0.65
  -3   4  -2   20.22    0.67
   3   4   2   20.04    0.64
   3   4   2   20.39    0.64
   3   0  -3    3.18    0.16
  -3   0   3    3.54    0.12
   3   0   3    3.34    0.17
   3   0  -3    3.37    0.12
   3   0   3    3.31    0.12
  -3   0  -3    3.11    0.16
  -3   0  -3    3.35    0.12
   3  -1   3    1.99    0.06
  -3  -1  -3    1.77    0.12
   3  -1   3    1.87    0.13
   3   1  -3    1.93    0.12
   3   1  -3    1.93    0.14
  -3   1   3    2.06    0.12
  -3   1   3    1.94    0.13
  -3  -1   3    1.78    0.13
   3   1   3    1.90    0.12
   3   1   3    1.99    0.14
  -3   1  -3    1.82    0.13
   3  -1  -3    1.98    0.13
  -3   1  -3    1.80    0.12
   3   2  -3    3.07    0.18
   3  -2   3    2.92    0.18
  -3   2   3    3.08    0.17
   3   2  -3    3.03    0.18
  -3   2   3    3.11    0.18
  -3  -2  -3    3.15    0.12
  -3  -2  -3    3.10    0.18
   3  -2   3    3.12    0.11
  -3  -2   3    3.23    0.10
  -3  -2   3    2.85    0.17
   3   2   3    3.07    0.17
  -3   2  -3    3.10    0.17
   3  -2  -3    2.76    0.17
   3   2   3    3.05    0.17
  -3   2  -3    3.03    0.18
   3  -2  -3    3.05    0.11
  -3  -3  -3    0.77    0.12
  -3   3   3    0.78    0.13
   3  -3   3    0.96    0.14
   3   3  -3    0.83    0.13
   3   3  -3    0.87    0.13
  -3   3   3    0.91    0.12
   3  -3  -3    0.73    0.12
  -3   3  -3    0.88    0.12
   3   3   3    0.94    0.13
   3   3   3    0.66    0.12
  -3   3  -3    0.86    0.13
  -3  -3   3    0.74    0.12
  -3  -4  -3    2.45    0.25
   3  -4   3    2.13    0.24
   3   4  -3    2.20    0.24
   3   4  -3    2.35    0.24
  -3   4   3    2.42    0.22
  -3   4   3    2.64    0.21
  -3   4  -3    2.18    0.24
   3   4   3    2.16    0.22
   3  -4  -3    2.58    0.22
  -3   4  -3    2.27    0.20
  -3  -4   3    2.35    0.23
   3   4   3    2.20    0.23
   3   0   4  204.12    4.11
  -3   0  -4  215.43    4.03
   3   0  -4  211.00    4.13
   3   0  -4  218.35    4.02
  -3   0  -4  207.74    4.11
   3   0   4  214.79    4.03
  -3   0   4  217.64    4.02
   3   1  -4  146.44    2.96
  -3   1   4  144.02    2.94
   3  -1   4  146.57    2.95
   3  -1   4  157.94    2.81
   3   1  -4  145.27    2.90
  -3   1   4  153.56    2.91
  -3  -1  -4  155.12    2.80
  -3  -1  -4  149.34    2.94
  -3   1  -4  150.26    2.91
   3   1   4  145.93    2.89
   3   1   4  145.16    2.94
  -3  -1   4  148.56    2.93
  -3   1  -4  146.01    2.93
   3  -1  -4  146.65    2.94
  -3   2   4  139.15    2.83
  -3   2   4  142.07    2.84
   3  -2   4  136.34    2.86
   3  -2   4  144.17    2.69
  -3  -2  -4  144.32    2.70
   3   2  -4  139.39    2.85
  -3  -2  -4  137.46    2.84
   3   2  -4  143.22    2.84
   3   2   4  144.70    2.82
  -3  -2   4  144.03    2.83
   3  -2  -4  139.92    2.84
  -3   2  -4  139.75    2.81
   3   2   4  140.59    2.83
  -3   2  -4  142.35    2.85
   3  -2  -4  143.89    2.66
   3   3  -4   85.29    1.92
  -3  -3  -4   88.73    1.92
   3  -3   4   90.08    1.94
   3   3  -4   86.12    1.91
  -3   3   4   88.12    1.89
  -3   3   4   86.62    1.91
   3   3   4   90.22    1.91
  -3   3  -4   86.58    1.92
  -3   3  -4   88.87    1.86
   3  -3  -4   87.43    1.90
   3   3   4   90.56    1.88
  -3  -3   4   87.07    1.88
   3   4  -4   61.50    1.55
  -3  -4  -4   65.41    1.54
   3   4  -4   64.62    1.54
  -3   4   4   65.52    1.55
   3  -4   4   63.52    1.57
  -3   4   4   64.32    1.50
  -3   4  -4   62.98    1.56
   3   4   4   64.73    1.53
   3  -4  -4   64.17    1.52
  -3  -4   4   64.87    1.50
   3   0   5   27.58    0.61
  -3   0  -5   27.58    0.61
   3   0  -5   27.04    0.70
  -3   0   5   27.74    0.60
  -3   0   5   26.68    0.69
  -3   0  -5   26.75    0.68
  -3   0   5   27.20    0.60
   3   0   5   26.83    0.69
   3  -1   5  106.20    2.23
  -3  -1  -5  115.04    2.10
   3   1  -5  107.50    2.25
  -3   1   5  110.88    2.24
   3  -1   5  115.73    2.10
   3   1  -5  109.15    2.18
  -3   1   5  109.07    2.18
  -3  -1  -5  107.99    2.23
  -3  -1   5  108.50    2.22
   3  -1  -5  104.44    2.23
   3   1   5  107.99    2.18
  -3   1  -5  107.41    2.23
   3   1   5  103.58    2.23
  -3   1  -5  111.07    2.20
  -3  -2  -5   13.17    0.44
   3  -2   5   13.79    0.33
   3   2  -5   12.89    0.43
  -3   2   5   13.11    0.44
   3  -2   5   12.90    0.45
  -3   2   5   12.72    0.43
   3   2  -5   13.38    0.45
  -3  -2  -5   13.82    0.33
  -3  -2   5   12.64    0.42
  -3   2  -5   13.22    0.44
   3   2   5   13.44    0.43
  -3   2  -5   13.24    0.42
   3   2   5   12.91    0.43
   3  -2  -5   12.81    0.43
   3   3  -5   60.73    1.42
  -3   3   5   58.56    1.39
  -3  -3  -5   59.98    1.41
   3  -3   5   59.18    1.42
   3   3  -5   57.37    1.40
  -3   3   5   62.66    1.40
   3   3   5   56.51    1.37
  -3   3  -5   59.90    1.42
  -3  -3   5   58.16    1.35
  -3   3  -5   60.83    1.34
   3  -3  -5   59.20    1.38
   3   3   5   60.06    1.34
   3   4  -5    1.68    0.23
  -3  -4  -5    1.59    0.21
   3   4  -5    1.85    0.24
   3  -4   5    1.52    0.22
  -3   4   5    1.82    0.22
  -3   4   5    1.71    0.22
   3  -4  -5    1.52    0.20
   3   4   5    1.39    0.20
  -3  -4   5    1.78    0.21
  -3   4  -5    1.73    0.23
  -3   0  -6    9.15    0.29
  -3   0   6    9.44    0.27
   3   0   6    9.49    0.29
  -3   0   6    8.75    0.34
  -3   0  -6    8.87    0.34
   3   0   6    9.48    0.35
   3   0  -6    8.90    0.35
   3   0  -6    9.06    0.27
  -3   1   6    1.83    0.14
  -3  -1  -6    2.07    0.11
   3   1  -6    1.72    0.13
  -3  -1  -6    1.92    0.16
   3   1  -6    1.78    0.09
   3  -1   6    1.84    0.10
   3   1  -6    1.87    0.17
  -3   1   6    1.67    0.17
   3  -1   6    1.55    0.16
   3   1   6    2.01    0.20
  -3  -1   6    1.91    0.16
  -3   1  -6    1.90    0.16
   3   1   6    1.85    0.14
  -3   1  -6    2.01    0.15
   3  -1  -6    1.74    0.16
  -3   2   6    7.89    0.32
  -3   2   6    7.61    0.34
   3   2  -6    6.86    0.31
   3  -2   6    7.33    0.34
  -3  -2  -6    7.43    0.33
   3   2  -6    7.82    0.35
   3  -2  -6    7.72    0.33
   3   2   6    7.53    0.32
   3   2   6    8.57    0.33
  -3  -2   6    7.67    0.32
  -3   2  -6    7.97    0.32
  -3   2  -6    7.63    0.33
   3   3  -6    0.70    0.14
  -3  -3  -6    0.84    0.15
  -3   3   6    0.67    0.14
   3   3  -6    0.74    0.15
   3  -3   6    0.69    0.15
  -3   3   6    0.70    0.14
   3  -3  -6    0.66    0.13
  -3  -3   6    0.97    0.14
   3   3   6    0.75    0.13
  -3   3  -6    0.84    0.15
   3   3   6    0.70    0.13
   3   4  -6    4.67    0.33
  -3   4   6    4.45    0.31
   3  -4   6    4.50    0.34
  -3   4   6    5.20    0.33
  -3  -4  -6    5.37    0.34
   3  -4  -6    4.82    0.31
  -3  -4   6    5.17    0.31
  -3   4  -6    4.55    0.33
   3   4   6    4.89    0.32
   3   0   7  168.23    3.25
   3   0  -7  170.69    3.24
  -3   0  -7  168.95    3.26
   3   0   7  165.48    3.35
  -3   0   7  161.51    3.34
  -3   0  -7  165.35    3.34
   3   0  -7  165.25    3.36
  -3   0   7  167.60    3.23
   3  -1   7   58.59    1.40
   3  -1   7   63.16    1.27
   3   1  -7   60.22    1.42
  -3  -1  -7   64.38    1.27
  -3  -1  -7   62.04    1.40
  -3   1   7   61.37    1.41
  -3   1  -7   61.80    1.39
   3   1   7   62.13    1.35
  -3  -1   7   59.16    1.38
   3   1   7   59.80    1.42
  -3   1  -7   60.31    1.35
  -3  -1   7   61.78    1.34
   3  -1  -7   62.42    1.34
   3  -1  -7   60.86    1.40
  -3  -2  -7  118.54    2.50
  -3   2   7  119.89    2.51
   3  -2   7  114.93    2.50
   3   2  -7  117.64    2.53
  -3   2   7  118.81    2.46
  -3   2  -7  119.91    2.49
  -3   2  -7  118.64    2.45
   3   2   7  117.64    2.46
   3   2   7  118.31    2.46
   3  -2  -7  118.10    2.48
  -3  -2   7  115.82    2.46
  -3  -3  -7   43.95    1.16
  -3   3   7   42.92    1.13
   3  -3   7   44.19    1.18
   3   3  -7   44.91    1.19
  -3   3   7   46.25    1.17
  -3  -3   7   44.51    1.10
  -3   3  -7   44.78    1.17
   3  -3  -7   42.45    1.11
   3   3   7   42.62    1.13
   3  -4   7   56.50    1.50
  -3   4   7   56.59    1.45
   3   4  -7   56.90    1.50
  -3  -4  -7   57.99    1.49
  -3  -4   7   56.61    1.49
   3  -4  -7   56.76    1.47
   3   4   7   55.65    1.45
  -3   4  -7   57.62    1.49
  -3   0  -8    3.64    0.23
  -3   0   8    3.58    0.18
   3   0   8    3.47    0.19
  -3   0  -8    3.96    0.20
  -3   0   8    3.36    0.22
   3   0  -8    3.50    0.23
   3   0  -8    3.63    0.19
   3   0   8    3.92    0.24
   3   1  -8   88.78    2.02
  -3   1   8   89.74    2.00
  -3  -1  -8   94.72    1.86
   3  -1   8   93.79    1.86
  -3  -1  -8   91.21    1.99
   3  -1   8   89.25    2.00
  -3  -1   8   93.56    1.94
   3  -1  -8   98.01    2.02
   3  -1  -8   90.91    1.93
   3   1   8   93.43    1.95
  -3   1  -8   92.12    2.00
   3   1   8   88.32    2.02
  -3  -1   8   90.68    1.99
  -3   1  -8   92.03    1.95
   3  -2   8    4.03    0.27
  -3  -2  -8    4.12    0.27
  -3   2   8    3.93    0.27
   3   2  -8    4.32    0.29
   3   2   8    4.09    0.26
   3  -2  -8    4.18    0.26
   3  -2  -8    3.93    0.26
  -3  -2   8    4.18    0.26
  -3  -2   8    3.80    0.25
  -3   2  -8    3.86    0.25
   3   2   8    3.59    0.24
  -3   2  -8    4.09    0.26
   3   3  -8   54.78    1.42
  -3   3   8   56.71    1.40
   3  -3   8   53.07    1.40
  -3  -3  -8   55.21    1.39
   3   3   8   51.91    1.35
  -3   3  -8   54.27    1.39
  -3  -3   8   54.40    1.32
  -3  -3   8   55.24    1.38
   3  -3  -8   53.24    1.36
   3  -3  -8   54.82    1.34
  -3   4   8    3.52    0.35
  -3  -4  -8    4.24    0.33
   3   4  -8    4.06    0.34
   3  -4   8    4.23    0.35
   3   4   8    4.07    0.32
  -3   4  -8    4.39    0.34
  -3  -4   8    4.17    0.33
   3  -4  -8    4.17    0.33
  -3   0  -9    1.27    0.15
   3   0   9    1.51    0.19
  -3   0  -9    1.49    0.18
   3   0  -9    1.53    0.14
   3   0  -9    1.39    0.18
   3   0   9    1.53    0.15
  -3   0   9    1.63    0.14
  -3   0   9    1.44    0.18
  -3   1   9    0.77    0.14
   3  -1   9    0.97    0.15
  -3  -1  -9    1.05    0.13
  -3  -1  -9    0.80    0.15
   3  -1   9    1.10    0.13
   3   1  -9    0.87    0.16
  -3   1  -9    1.04    0.17
  -3   1  -9    1.00    0.15
  -3  -1   9    0.97    0.16
   3   1   9    1.04    0.14
   3  -1  -9    1.11    0.15
  -3  -1   9    0.83    0.13
   3  -1  -9    1.10    0.17
   3   1   9    1.10    0.18
   3  -2   9    1.64    0.22
  -3  -2  -9    1.56    0.20
   3   2  -9    1.63    0.22
  -3   2   9    1.52    0.21
  -3  -2   9    1.69    0.20
   3   2   9    1.60    0.19
   3  -2  -9    1.54    0.19
  -3   2  -9    1.70    0.21
   3  -2  -9    1.32    0.18
  -3  -2   9    2.06    0.23
  -3   3   9    0.73    0.17
   3   3  -9    0.80    0.18
   3  -3   9    0.85    0.18
  -3  -3  -9    0.76    0.17
  -3   3  -9    0.64    0.16
  -3  -3   9    0.96    0.17
  -3  -3   9    0.73    0.16
   3   3   9    0.99    0.18
   3  -3  -9    0.92    0.16
   3  -3  -9    0.74    0.17
  -3   0 -10   30.27    0.78
  -3   0 -10   29.15    0.84
   3   0  10   30.13    0.77
  -3   0  10   28.76    0.84
   3   0 -10   27.61    0.84
   3   0  10   30.70    0.86
  -3  -1 -10  129.58    2.78
   3  -1  10  129.24    2.79
   3   1 -10  128.74    2.81
  -3   1  10  133.67    2.80
  -3  -1  10  133.82    2.72
  -3   1 -10  132.46    2.80
  -3   1 -10  132.14    2.74
   3  -1 -10  128.92    2.78
   3  -1 -10  132.10    2.72
   3   1  10  129.45    2.72
  -3  -1  10  130.14    2.77
   3   1  10  130.28    2.82
   3   2 -10   24.43    0.81
   3  -2  10   24.55    0.81
  -3  -2 -10   25.04    0.80
  -3   2  10   24.08    0.78
   3  -2 -10   23.71    0.75
   3   2  10   24.14    0.75
  -3   2 -10   24.77    0.77
  -3  -2  10   25.13    0.76
  -3  -2  10   24.04    0.75
   3  -2 -10   24.53    0.77
   3  -3  10   91.14    2.16
  -3   3  10   91.64    2.15
  -3  -3 -10   91.25    2.14
   3   3 -10   88.33    2.17
   3  -3 -10   90.96    2.11
  -3  -3  10   91.51    2.12
   3   3  10   89.91    2.10
  -3   3 -10   88.12    2.12
   3   0  11    1.35    0.20
   3   0 -11    1.36    0.20
  -3   0 -11    1.29    0.19
  -3   0  11    1.06    0.18
   3   0  11    1.40    0.17
  -3   0 -11    1.55    0.18
   3  -1  11   47.28    1.24
  -3   1  11   47.38    1.23
   3   1 -11   44.76    1.24
  -3  -1 -11   47.06    1.23
   3   1  11   46.68    1.17
   3  -1 -11   45.62    1.21
   3  -1 -11   45.72    1.16
  -3  -1  11   47.78    1.17
  -3  -1  11   46.55    1.20
  -3   1 -11   47.31    1.24
  -3   1 -11   47.81    1.19
  -3   2  11    1.60    0.22
  -3  -2 -11    1.51    0.22
   3   2 -11    1.54    0.23
   3  -2  11    1.42    0.22
   3  -2 -11    1.39    0.20
  -3   2 -11    1.35    0.21
   3  -2 -11    1.76    0.23
  -3  -2  11    1.91    0.24
   3   2  11    1.71    0.22
  -3  -2  11    1.29    0.19
   3   3 -11   31.75    1.06
   3  -3  11   33.98    1.07
  -3  -3 -11   31.50    1.02
  -3   3  11   31.60    1.02
   3   3  11   32.65    1.00
   3  -3 -11   31.82    0.99
  -3  -3  11   32.62    1.01
  -3   3 -11   30.78    1.01
  -3   0  12    3.88    0.29
   3   0  12    3.88    0.25
   3   0  12    3.68    0.29
   3   0 -12    3.69    0.29
  -3   0 -12    3.48    0.25
  -3   0 -12    3.84    0.29
  -3   1  12    1.93    0.25
   3   1 -12    2.45    0.28
   3  -1  12    2.30    0.27
  -3  -1 -12    2.06    0.26
   3  -1 -12    2.34    0.26
   3  -1 -12    2.63    0.26
  -3   1 -12    2.51    0.26
  -3  -1  12    2.14    0.24
   3   1  12    2.18    0.24
   3  -2  12    2.77    0.32
  -3  -2 -12    2.92    0.32
  -3   2  12    2.98    0.31
   3   2 -12    3.00    0.33
  -3  -2  12    3.73    0.29
  -3   2 -12    2.71    0.29
   3   2  12    3.15    0.31
   3  -2 -12    3.26    0.28
  -3  -2  12    2.89    0.30
   3  -2 -12    2.96    0.30
   3   0  13    9.71    0.42
  -3   0 -13    9.82    0.48
   3   0 -13   10.40    0.50
  -3   0  13   10.82    0.49
  -3   1  13   62.42    1.61
  -3  -1 -13   63.26    1.63
   3   1 -13   64.78    1.65
   3  -1  13   65.69    1.65
  -3  -1  13   63.95    1.60
   3  -1 -13   66.05    1.61
  -3   1 -13   65.63    1.59
   3   1  13   63.94    1.56
   4   0   0   41.44    0.86
  -4   0   0   41.06    0.87
   4   0   0   41.57    0.87
  -4   0   0   41.90    0.85
   4  -1   0  644.69   12.18
   4   1   0  645.78   12.03
   4   1   0  626.29   12.16
  -4   1   0  652.43   12.39
  -4  -1   0  646.55   12.08
   4  -1   0  579.86   12.10
  -4   1   0  609.60   11.95
  -4  -1   0  655.94   12.21
   4   2   0   27.69    0.71
  -4   2   0   29.01    0.71
  -4  -2   0   28.12    0.65
   4   2   0   29.07    0.64
  -4   2   0   28.69    0.62
   4   2   0   28.78    0.69
  -4   2   0   28.28    0.70
   4  -2   0   28.23    0.67
   4   3   0  340.49    6.35
  -4  -3   0  332.69    6.36
  -4   3   0  324.01    6.43
   4  -3   0  328.99    6.38
  -4   3   0  328.99    6.45
   4   3   0  332.55    6.45
  -4   3   0  346.11    6.33
   4   4   0    9.51    0.43
  -4   4   0    9.55    0.42
   4  -4   0   10.56    0.41
  -4  -4   0   10.03    0.42
   4   0   1   51.87    1.12
  -4   0   1   54.21    1.10
  -4   0  -1   53.73    1.06
   4   0  -1   53.43    1.11
  -4   0  -1   49.61    1.10
   4   0  -1   56.01    1.08
   4   0   1   53.67    1.06
  -4   0   1   54.78    1.08
   4   1  -1   28.05    0.63
  -4   1   1   27.50    0.62
  -4  -1  -1   27.87    0.63
   4  -1   1   28.23    0.64
   4   1  -1   27.02    0.64
  -4   1   1   27.65    0.64
   4  -1  -1   27.41    0.65
   4   1   1   27.17    0.65
  -4   1  -1   28.83    0.54
   4   1   1   26.96    0.62
  -4   1  -1   28.25    0.64
   4   1   1   28.04    0.55
   4  -1  -1   27.74    0.59
  -4   1  -1   27.21    0.65
  -4  -1   1   26.38    0.63
  -4  -1   1   27.87    0.58
   4  -2   1   32.23    0.76
   4   2  -1   33.06    0.74
  -4   2   1   32.33    0.72
   4   2  -1   30.85    0.78
  -4   2   1   31.85    0.78
  -4  -2  -1   32.40    0.75
   4   2   1   31.96    0.79
  -4  -2   1   31.99    0.77
   4   2   1   33.90    0.69
  -4   2  -1   33.46    0.67
   4  -2  -1   33.01    0.79
  -4   2  -1   32.43    0.79
   4  -2  -1   31.78    0.72
   4   2   1   31.55    0.77
  -4  -2   1   32.74    0.70
  -4   2  -1   31.49    0.78
  -4  -3  -1   11.49    0.39
  -4   3   1   11.52    0.42
   4  -3   1   11.37    0.40
   4   3  -1   11.54    0.43
  -4   3   1   11.81    0.36
   4   3  -1   12.00    0.38
   4   3   1   12.51    0.36
   4  -3  -1   12.38    0.38
   4  -3  -1   11.63    0.43
  -4  -3   1   11.78    0.35
   4   3   1   11.95    0.41
  -4   3  -1   11.88    0.42
   4   3   1   11.94    0.42
  -4   3  -1   11.51    0.43
  -4  -3   1   11.47    0.42
  -4  -4  -1   15.09    0.50
   4  -4   1   14.23    0.51
   4   4  -1   13.23    0.53
  -4   4   1   14.36    0.53
  -4  -4   1   14.21    0.53
   4   4   1   14.54    0.54
   4  -4  -1   14.42    0.54
   4   4   1   13.45    0.51
  -4   4  -1   14.96    0.55
  -4   4  -1   14.24    0.52
  -4   0   2   28.78    0.60
  -4   0   2   26.52    0.64
  -4   0  -2   27.63    0.65
  -4   0  -2   29.04    0.59
   4   0   2   27.50    0.66
   4   0   2   28.77    0.58
   4   0  -2   28.36    0.60
  -4   1   2   12.83    0.36
   4   1  -2   12.57    0.36
  -4  -1  -2   12.91    0.36
   4  -1   2   12.31    0.37
  -4   1   2   11.90    0.35
   4   1  -2   12.21    0.36
   4   1   2   12.80    0.35
   4  -1  -2   13.10    0.29
  -4   1  -2   12.84    0.36
  -4  -1   2   12.75    0.28
  -4   1  -2   11.89    0.37
  -4  -1   2   12.96    0.36
   4   2  -2   20.83    0.57
   4  -2   2   20.41    0.56
  -4  -2  -2   20.48    0.55
   4   2  -2   20.39    0.54
  -4   2   2   19.10    0.55
  -4   2   2   20.34    0.52
   4  -2   2   21.44    0.43
   4   2   2   21.32    0.57
  -4   2  -2   20.86    0.57
   4   2   2   21.08    0.56
   4  -2  -2   20.76    0.57
  -4  -2   2   21.72    0.46
  -4   2  -2   19.86    0.55
   4  -2  -2   21.07    0.48
  -4  -2   2   20.72    0.56
   4   2   2   21.54    0.45
   4   3  -2   10.89    0.38
   4  -3   2   10.22    0.39
   4   3  -2   10.75    0.41
  -4  -3  -2   10.75    0.38
  -4   3   2   11.31    0.36
  -4   3   2   10.15    0.40
   4  -3  -2   10.43    0.33
   4   3   2   10.78    0.40
  -4   3  -2   11.29    0.40
   4  -3  -2   10.54    0.40
   4   3   2   10.33    0.39
  -4   3  -2    9.98    0.40
  -4  -3   2   10.67    0.40
  -4   4   2   11.14    0.47
   4   4  -2   12.44    0.45
  -4  -4  -2   11.73    0.45
   4  -4   2   12.24    0.48
   4   4  -2   12.13    0.49
  -4  -4   2   11.99    0.47
  -4   4  -2   11.99    0.46
   4   4   2   11.12    0.46
   4   4   2   12.33    0.48
   4  -4  -2   11.62    0.48
  -4   4  -2   11.95    0.49
  -4   0  -3  131.83    2.61
  -4   0   3  133.54    2.52
   4   0  -3  129.96    2.62
  -4   0   3  129.01    2.60
   4   0  -3  133.44    2.52
   4   0   3  127.54    2.62
  -4   0  -3  134.52    2.52
   4   0   3  135.19    2.52
   4  -1   3    3.80    0.20
  -4   1   3    4.20    0.20
  -4  -1  -3    4.16    0.20
  -4   1   3    3.85    0.17
   4   1  -3    3.92    0.17
   4   1  -3    3.73    0.19
  -4   1  -3    3.93    0.20
   4   1   3    4.11    0.21
  -4   1  -3    3.82    0.17
   4   1   3    3.88    0.17
  -4  -1   3    3.93    0.19
  -4   2   3   97.90    1.99
  -4   2   3   95.71    2.00
   4   2  -3   97.36    2.01
  -4  -2  -3   95.13    2.00
  -4  -2  -3  100.47    1.85
   4  -2   3   95.40    2.02
   4   2  -3   96.83    2.02
   4   2   3   94.94    2.00
  -4   2  -3   95.55    2.00
  -4  -2   3   99.65    1.84
  -4  -2   3   94.72    2.00
   4   2   3   99.97    2.02
   4  -2  -3   93.57    2.02
  -4   2  -3   94.99    2.01
   4  -2  -3  103.19    1.87
   4   3  -3    0.75    0.12
  -4   3   3    0.77    0.12
  -4   3   3    0.68    0.12
  -4  -3  -3    1.24    0.16
   4   3  -3    0.49    0.12
   4  -3   3    0.73    0.13
   4   3   3    0.62    0.12
  -4   3  -3    0.51    0.12
  -4  -3   3    0.72    0.13
   4   3   3    0.53    0.11
  -4   3  -3    0.96    0.13
   4  -3  -3    1.09    0.16
  -4  -4  -3   53.09    1.32
  -4   4   3   54.94    1.35
   4   4  -3   53.11    1.37
   4   4  -3   54.71    1.32
   4  -4   3   54.66    1.36
  -4   4   3   56.07    1.29
   4  -4  -3   55.67    1.36
  -4   4  -3   52.35    1.36
  -4   4  -3   53.33    1.30
   4   4   3   55.04    1.33
   4   4   3   53.60    1.33
  -4  -4   3   55.02    1.33
   4   0   4   21.57    0.49
   4   0   4   21.41    0.59
  -4   0  -4   22.37    0.58
  -4   0  -4   21.80    0.50
  -4   0   4   22.45    0.59
   4   0  -4   22.63    0.49
  -4   0   4   22.64    0.50
   4   1  -4    6.93    0.29
   4  -1   4    6.95    0.16
  -4  -1  -4    7.12    0.28
   4   1  -4    6.67    0.25
   4  -1   4    6.92    0.28
  -4   1   4    6.81    0.25
  -4   1   4    6.54    0.27
   4   1   4    7.17    0.29
   4  -1  -4    6.90    0.28
  -4   1  -4    6.77    0.25
   4   1   4    6.60    0.24
  -4   1  -4    7.11    0.28
  -4  -1   4    6.64    0.27
  -4   2   4   16.40    0.49
   4   2  -4   15.76    0.49
  -4  -2  -4   15.64    0.49
   4  -2   4   16.74    0.51
   4   2  -4   16.14    0.50
  -4   2   4   15.25    0.48
   4   2   4   15.39    0.47
  -4  -2   4   15.68    0.48
   4   2   4   16.35    0.49
   4  -2  -4   15.65    0.49
  -4   2  -4   15.45    0.49
  -4   2  -4   16.01    0.48
   4  -3   4    5.56    0.30
  -4   3   4    5.84    0.30
  -4   3   4    5.03    0.27
   4   3  -4    5.69    0.29
  -4  -3  -4    5.39    0.29
   4   3  -4    5.43    0.30
   4   3   4    5.73    0.29
   4  -3  -4    5.20    0.29
  -4   3  -4    5.64    0.28
   4   3   4    5.42    0.29
  -4  -3   4    5.52    0.28
  -4   3  -4    5.62    0.30
   4   4  -4    7.61    0.40
  -4  -4  -4    8.21    0.40
  -4   4   4    8.07    0.40
   4   4  -4    8.25    0.40
  -4   4   4    9.17    0.39
   4  -4   4    8.85    0.43
   4   4   4    8.25    0.38
  -4   4  -4    7.51    0.40
   4  -4  -4    8.35    0.40
   4   4   4    7.62    0.39
  -4  -4   4    8.38    0.39
  -4   0  -5    4.01    0.16
   4   0   5    4.07    0.22
   4   0  -5    3.95    0.15
   4   0   5    3.98    0.16
   4   0  -5    4.01    0.23
  -4   0   5    3.76    0.21
  -4   0  -5    4.12    0.22
  -4   0   5    4.04    0.15
  -4  -1  -5   42.20    0.82
   4   1  -5   41.01    1.01
   4   1  -5   41.42    0.93
   4  -1   5   41.41    0.83
   4  -1   5   41.34    1.00
  -4   1   5   42.89    0.94
  -4   1   5   41.92    1.00
  -4  -1  -5   40.39    0.98
   4   1   5   41.62    1.01
  -4   1  -5   42.41    0.94
   4   1   5   40.81    0.93
   4  -1  -5   41.13    1.00
  -4  -1   5   43.00    0.99
  -4   1  -5   41.81    0.99
   4  -2   5    1.78    0.19
   4   2  -5    1.65    0.17
  -4   2   5    2.16    0.20
   4   2  -5    2.04    0.18
  -4   2   5    1.86    0.16
  -4  -2  -5    1.94    0.17
   4   2   5    1.67    0.16
   4  -2  -5    1.95    0.17
  -4   2  -5    1.79    0.16
  -4   2  -5    2.13    0.17
  -4  -2   5    1.62    0.17
   4   2   5    1.90    0.17
   4   3  -5   25.30    0.74
  -4  -3  -5   24.09    0.73
  -4   3   5   24.38    0.72
   4  -3   5   24.56    0.74
  -4   3   5   24.77    0.71
   4   3  -5   24.16    0.74
  -4   3  -5   24.91    0.69
   4  -3  -5   24.48    0.72
   4   3   5   25.00    0.71
  -4  -3   5   24.69    0.71
   4   3   5   23.73    0.71
  -4   3  -5   23.78    0.73
  -4   4   5    0.37    0.12
   4   4  -5    0.27    0.12
   4  -4   5    0.46    0.14
  -4  -4  -5    0.29    0.12
  -4   4   5    0.11    0.10
   4   4  -5    0.59    0.15
   4  -4  -5    0.10    0.09
  -4   4  -5    0.20    0.11
   4   4   5    0.25    0.11
  -4  -4   5    0.29    0.12
   4   0   6   17.57    0.54
  -4   0   6   17.81    0.43
  -4   0  -6   17.51    0.53
   4   0   6   17.05    0.44
  -4   0   6   17.12    0.53
  -4   0  -6   17.09    0.44
  -4  -1  -6   64.59    1.47
  -4  -1  -6   65.39    1.30
  -4   1   6   67.06    1.41
   4  -1   6   65.12    1.49
   4   1  -6   65.27    1.40
  -4   1   6   72.31    1.50
   4  -1   6   65.95    1.31
  -4  -1   6   64.26    1.46
  -4   1  -6   66.13    1.48
  -4   1  -6   65.87    1.42
   4   1   6   66.28    1.41
   4  -1  -6   64.20    1.47
   4   1   6   65.64    1.50
   4  -2   6   12.37    0.46
   4   2  -6   13.07    0.44
  -4   2   6   12.83    0.46
  -4   2   6   12.51    0.43
  -4  -2  -6   12.59    0.46
   4   2  -6   12.27    0.47
  -4  -2   6   12.66    0.45
   4  -2  -6   12.46    0.45
  -4   2  -6   12.33    0.44
   4   2   6   12.20    0.45
  -4   2  -6   12.61    0.44
   4   2   6   11.94    0.43
  -4  -3  -6   44.15    1.14
   4   3  -6   43.53    1.12
  -4   3   6   42.00    1.11
   4  -3   6   42.68    1.15
   4   3  -6   44.96    1.16
  -4   3   6   44.77    1.13
  -4   3  -6   43.84    1.14
   4   3   6   43.07    1.11
  -4  -3   6   43.87    1.10
   4   3   6   44.45    1.09
  -4   3  -6   45.13    1.08
   4  -3  -6   42.46    1.11
  -4  -4  -6    5.79    0.37
   4   4  -6    6.89    0.40
  -4   4   6    6.55    0.37
   4   4  -6    6.57    0.39
   4  -4   6    7.05    0.41
  -4   4   6    6.82    0.38
  -4  -4   6    6.90    0.37
   4   4   6    5.80    0.36
   4  -4  -6    7.20    0.38
  -4   4  -6    6.42    0.39
   4   0   7   23.21    0.68
  -4   0  -7   22.36    0.57
   4   0   7   22.68    0.57
  -4   0   7   23.05    0.55
   4   0  -7   23.18    0.68
   4   0  -7   23.49    0.56
  -4   0  -7   23.22    0.66
  -4   0   7   22.57    0.66
  -4   1   7    1.65    0.19
   4  -1   7    2.11    0.19
  -4   1   7    1.91    0.15
  -4  -1  -7    2.03    0.11
  -4  -1  -7    2.07    0.18
   4   1  -7    2.03    0.15
   4  -1   7    1.87    0.11
   4   1  -7    1.86    0.21
  -4  -1   7    2.41    0.19
  -4   1  -7    2.04    0.21
   4   1   7    1.76    0.21
   4  -1  -7    1.90    0.17
   4   1   7    1.87    0.15
  -4   1  -7    1.71    0.15
  -4   2   7   17.32    0.59
   4  -2   7   18.34    0.61
  -4   2   7   17.65    0.56
  -4  -2  -7   18.63    0.60
   4   2  -7   17.67    0.62
   4   2  -7   18.01    0.57
  -4   2  -7   18.11    0.58
  -4  -2   7   18.58    0.58
  -4   2  -7   17.66    0.58
   4  -2  -7   17.06    0.58
   4   2   7   19.03    0.60
   4   2   7   17.83    0.56
   4   3  -7    0.85    0.16
   4  -3   7    0.80    0.17
  -4   3   7    0.83    0.15
  -4   3   7    0.69    0.15
   4   3  -7    0.60    0.15
  -4  -3  -7    0.83    0.16
   4   3   7    0.85    0.16
  -4  -3   7    0.78    0.15
   4  -3  -7    0.88    0.16
  -4   3  -7    0.62    0.14
  -4  -4  -7   10.46    0.50
  -4   4   7   10.07    0.48
  -4   4   7   10.83    0.50
   4  -4   7   10.52    0.52
   4   4  -7   10.81    0.53
  -4   4  -7   10.30    0.50
   4   4   7    9.41    0.47
   4  -4  -7    9.31    0.46
  -4  -4   7    9.91    0.45
  -4   0  -8   26.89    0.74
   4   0   8   25.80    0.75
  -4   0   8   25.41    0.62
   4   0   8   25.04    0.64
   4   0  -8   24.68    0.75
  -4   0  -8   25.75    0.64
   4   0  -8   25.90    0.63
   4   1  -8   51.25    1.28
  -4   1   8   48.93    1.24
   4  -1   8   52.60    1.08
  -4  -1  -8   50.50    1.23
   4  -1   8   51.25    1.25
   4  -1  -8   52.83    1.18
   4   1   8   49.30    1.27
  -4   1  -8   51.67    1.25
   4  -1  -8   49.69    1.24
  -4  -1   8   50.40    1.24
  -4  -1   8   50.46    1.17
  -4   1  -8   51.60    1.18
   4   1   8   51.32    1.17
  -4   2   8   20.37    0.66
  -4  -2  -8   20.29    0.66
   4  -2   8   19.55    0.67
  -4   2   8   19.97    0.61
   4   2  -8   18.58    0.67
  -4  -2   8   19.70    0.63
   4  -2  -8   19.33    0.63
   4   2   8   18.58    0.64
  -4   2  -8   19.52    0.63
  -4   2  -8   19.16    0.64
   4   2   8   20.71    0.62
  -4  -2   8   20.43    0.63
   4   3  -8   32.71    1.00
  -4   3   8   32.34    0.93
  -4  -3  -8   32.87    0.97
   4  -3   8   31.80    0.98
  -4   3   8   33.82    0.98
   4   3   8   32.94    0.94
  -4   3  -8   33.67    0.96
  -4  -3   8   32.46    0.95
   4  -3  -8   33.09    0.94
  -4  -3   8   32.45    0.92
   4   0   9   56.65    1.25
  -4   0  -9   56.16    1.26
   4   0   9   57.10    1.38
   4   0  -9   58.32    1.25
  -4   0   9   54.23    1.35
  -4   0  -9   58.73    1.37
   4   0  -9   56.09    1.38
  -4   1   9    6.16    0.33
   4  -1   9    5.86    0.33
   4   1  -9    5.87    0.34
  -4  -1  -9    5.18    0.31
  -4  -1   9    5.46    0.32
  -4  -1   9    5.88    0.28
  -4   1  -9    5.60    0.28
   4  -1  -9    6.31    0.29
  -4   1  -9    6.23    0.34
   4   1   9    5.83    0.35
   4  -1  -9    5.85    0.33
   4   1   9    5.78    0.28
   4  -2   9   46.03    1.21
  -4   2   9   45.38    1.19
   4   2  -9   45.50    1.22
  -4  -2  -9   44.39    1.19
   4  -2  -9   45.31    1.14
   4  -2  -9   43.49    1.16
  -4   2  -9   40.87    1.15
   4   2   9   42.84    1.19
  -4  -2   9   46.19    1.16
  -4   2  -9   45.00    1.15
  -4  -2   9   45.37    1.14
   4   2   9   45.92    1.14
  -4   3   9    4.35    0.33
   4   3  -9    4.22    0.34
   4  -3   9    4.56    0.34
  -4   3  -9    4.17    0.31
   4  -3  -9    4.43    0.31
  -4  -3   9    3.85    0.30
  -4  -3   9    4.06    0.29
   4  -3  -9    4.06    0.30
   4   3   9    4.27    0.30
  -4   0 -10   10.51    0.45
   4   0 -10   10.45    0.46
   4   0  10    9.62    0.45
  -4   0  10   10.29    0.44
   4   0  10   11.18    0.39
  -4   0 -10   10.54    0.38
   4  -1  10    0.21    0.11
  -4  -1 -10    0.24    0.11
  -4   1  10    0.22    0.11
   4   1 -10    0.15    0.10
  -4   1 -10    0.39    0.13
   4   1  10    0.12    0.08
   4  -1 -10    0.17    0.10
  -4   1 -10    0.30    0.10
   4  -1 -10    0.12    0.08
   4   1  10   -0.03    0.08
  -4  -1  10    0.29    0.10
  -4  -1  10    0.03    0.09
   4  -2  10    8.07    0.43
  -4  -2 -10    7.38    0.40
  -4   2  10    6.61    0.39
   4   2 -10    7.44    0.42
  -4  -2  10    7.28    0.38
  -4  -2  10    7.70    0.38
  -4   2 -10    7.04    0.38
   4  -2 -10    7.20    0.37
   4  -2 -10    7.61    0.40
   4   2  10    7.68    0.38
  -4   3  10    0.08    0.12
   4   3 -10    0.12    0.11
  -4  -3 -10    0.15    0.12
   4  -3  10   -0.10    0.09
   4  -3 -10   -0.10    0.08
  -4   3 -10    0.23    0.12
  -4  -3  10   -0.10    0.08
   4  -3 -10   -0.02    0.09
   4   3  10   -0.01    0.08
  -4  -3  10    0.21    0.12
  -4   0 -11   40.76    1.11
   4   0 -11   40.37    1.11
  -4   0 -11   39.52    0.99
  -4   0  11   39.19    1.10
   4   0  11   39.93    0.99
   4   0  11   41.98    1.13
  -4  -1 -11   24.79    0.82
  -4   1  11   25.54    0.83
   4  -1  11   26.40    0.85
   4   1 -11   25.83    0.85
   4  -1 -11   26.10    0.83
   4   1  11   27.07    0.87
  -4  -1  11   27.06    0.78
  -4  -1  11   26.70    0.82
  -4   1 -11   27.24    0.79
  -4   1 -11   27.07    0.85
   4  -1 -11   26.85    0.77
   4   1  11   27.19    0.78
  -4   2  11   35.93    1.07
   4   2 -11   37.11    1.10
  -4  -2 -11   35.61    1.07
   4  -2  11   35.35    1.08
  -4  -2  11   36.06    1.01
   4  -2 -11   35.59    1.04
   4  -2 -11   34.02    0.99
   4   2  11   35.35    1.00
  -4   2 -11   37.02    1.03
  -4  -2  11   37.22    1.04
   4   0 -12    5.95    0.37
  -4   0 -12    5.92    0.37
  -4   0  12    5.18    0.34
   4   0  12    6.06    0.38
   4   0  12    5.40    0.29
  -4   1  12    0.68    0.16
   4  -1  12    0.30    0.14
  -4  -1 -12    0.89    0.18
   4   1 -12    0.40    0.14
   4  -1 -12    0.45    0.14
  -4  -1  12    0.58    0.14
   4   1  12    0.65    0.14
  -4   1 -12    0.73    0.15
   4  -2  12    5.47    0.39
  -4  -2 -12    5.20    0.37
  -4   2  12    5.15    0.36
   4   2 -12    4.87    0.37
  -4  -2  12    5.61    0.35
   4  -2 -12    5.63    0.37
  -4  -2  12    5.32    0.35
   4  -2 -12    5.62    0.35
   4   2  12    5.51    0.35
  -4   2 -12    5.25    0.35
   4   0  13    0.11    0.13
   4   0 -13    0.25    0.13
  -4   0  13    0.17    0.12
  -4   0 -13    0.25    0.13
  -4  -1 -13   10.17    0.51
   4  -1  13    9.46    0.50
  -4   1  13   10.39    0.51
   4   1 -13   10.57    0.53
   4  -1 -13   10.50    0.50
   4   1  13   10.21    0.46
  -4   1 -13   10.45    0.47
  -4  -1  13   10.39    0.49
   5   0   0    0.03    0.04
   5   0   0    0.07    0.04
  -5   0   0    0.04    0.04
  -5   0   0    0.04    0.04
  -5   1   0   -0.01    0.04
   5   1   0    0.03    0.04
   5  -1   0    0.00    0.04
   5  -1   0    0.04    0.04
  -5   1   0   -0.02    0.04
   5   1   0    0.06    0.05
  -5  -1   0    0.09    0.04
  -5  -1   0   -0.01    0.04
  -5  -2   0    0.06    0.04
  -5   2   0    0.08    0.04
   5  -2   0    0.05    0.05
  -5  -2   0    0.00    0.05
  -5   2   0    0.02    0.05
   5   2   0    0.05    0.06
   5   2   0    0.07    0.04
   5   3   0    0.14    0.07
   5  -3   0    0.05    0.06
  -5  -3   0    0.08    0.06
   5   3   0    0.02    0.07
  -5  -3   0    0.07    0.07
  -5   3   0    0.21    0.08
   5  -4   0   -0.01    0.09
  -5  -4   0   -0.03    0.08
  -5   4   0    0.04    0.09
   5   4   0   -0.03    0.08
   5   0   1  176.91    3.57
  -5   0  -1  185.57    3.50
  -5   0   1  186.19    3.52
   5   0   1  187.52    3.51
   5   0  -1  187.00    3.53
  -5   0   1  185.03    3.54
  -5   0  -1  184.94    3.56
   5   0  -1  180.33    3.55
   5   1  -1   89.83    1.84
  -5   1   1   88.23    1.80
  -5   1   1   90.91    1.84
   5  -1   1   92.46    1.84
  -5  -1  -1   91.46    1.82
   5   1  -1   90.24    1.82
  -5  -1   1   91.61    1.84
   5  -1  -1   89.44    1.78
  -5   1  -1   92.55    1.73
  -5  -1   1   92.21    1.77
   5   1   1   94.55    1.74
  -5   1  -1   91.15    1.82
   5   1   1   87.80    1.85
   5  -1  -1   88.90    1.84
   5   1   1   89.76    1.81
  -5   1  -1   89.51    1.85
   5   2  -1  123.03    2.60
  -5   2   1  131.13    2.51
   5  -2   1  126.58    2.57
  -5  -2  -1  128.30    2.55
  -5   2   1  124.99    2.60
   5   2  -1  130.06    2.53
  -5   2  -1  125.86    2.59
  -5   2  -1  136.17    2.44
   5   2   1  127.76    2.61
  -5  -2   1  128.90    2.59
   5  -2  -1  127.88    2.60
   5   2   1  124.11    2.57
  -5   2  -1  127.60    2.59
   5   2   1  134.41    2.46
   5  -2  -1  126.20    2.51
  -5  -2   1  130.75    2.50
  -5   3   1   44.53    1.09
   5   3  -1   45.81    1.03
   5   3  -1   42.69    1.10
  -5   3   1   46.84    1.00
  -5  -3  -1   44.36    1.03
   5  -3   1   44.99    1.06
  -5   3  -1   43.85    1.10
  -5  -3   1   45.62    1.10
  -5   3  -1   45.85    1.09
   5   3   1   44.16    1.10
   5  -3  -1   44.62    1.11
   5   3   1   45.01    1.08
   5  -3  -1   44.69    1.01
  -5   4   1   66.97    1.58
  -5  -4  -1   66.32    1.57
   5  -4   1   66.25    1.52
   5   4  -1   65.12    1.59
   5   4   1   67.03    1.58
  -5   4  -1   66.10    1.56
  -5   4  -1   65.27    1.57
   5  -4  -1   65.74    1.59
  -5  -4   1   64.97    1.56
  -5   0   2   35.21    0.74
  -5   0  -2   33.60    0.79
  -5   0   2   33.38    0.78
   5   0  -2   34.44    0.80
   5   0   2   34.63    0.81
   5   0  -2   35.10    0.74
   5  -1   2    8.40    0.31
  -5   1   2    8.19    0.29
   5   1  -2    8.48    0.29
   5   1  -2    8.24    0.30
  -5  -1  -2    8.95    0.30
  -5   1   2    8.83    0.29
   5   1   2    8.97    0.32
  -5   1  -2    8.60    0.28
   5  -1  -2    9.16    0.23
  -5  -1   2    8.43    0.29
   5   1   2    8.91    0.28
  -5   1  -2    9.11    0.31
  -5  -1   2    8.91    0.22
   5  -1  -2    8.90    0.31
   5  -2   2   21.90    0.60
  -5   2   2   21.93    0.60
  -5   2   2   22.77    0.56
   5   2  -2   21.86    0.61
   5   2  -2   23.02    0.58
  -5  -2  -2   21.13    0.58
   5  -2  -2   22.58    0.52
   5   2   2   21.94    0.59
  -5  -2   2   23.00    0.50
  -5   2  -2   22.07    0.61
  -5  -2   2   21.24    0.60
   5   2   2   21.96    0.61
   5  -2  -2   22.52    0.62
   5   2   2   21.85    0.47
  -5   2  -2   22.42    0.61
   5   3  -2    1.90    0.20
   5   3  -2    2.16    0.17
  -5   3   2    2.14    0.19
  -5  -3  -2    2.01    0.16
   5  -3   2    1.85    0.19
  -5   3   2    1.94    0.15
   5  -3  -2    1.82    0.19
   5   3   2    1.79    0.19
   5   3   2    1.70    0.19
  -5  -3   2    1.78    0.19
  -5   3  -2    1.80    0.19
  -5   3  -2    1.72    0.18
  -5  -4  -2    8.82    0.38
  -5   4   2    9.04    0.42
   5  -4   2    8.88    0.40
   5   4  -2    8.90    0.42
  -5  -4   2    8.26    0.40
   5  -4  -2    9.09    0.43
  -5   4  -2    8.83    0.42
   5   4   2    8.26    0.40
   5   4   2    9.32    0.42
  -5   4  -2    9.26    0.41
  -5   0  -3   18.39    0.42
   5   0  -3   17.72    0.42
   5   0  -3   18.42    0.51
  -5   0  -3   17.90    0.50
   5   0   3   17.82    0.51
  -5   0   3   17.73    0.42
   5   0   3   18.30    0.41
  -5   0   3   17.89    0.50
   5   1  -3    0.95    0.10
  -5   1   3    1.14    0.13
  -5  -1  -3    0.87    0.11
   5  -1   3    1.06    0.13
   5   1  -3    0.84    0.12
  -5   1   3    1.07    0.11
  -5   1  -3    0.93    0.10
  -5  -1   3    1.00    0.12
  -5   1  -3    1.13    0.13
   5  -1  -3    0.94    0.12
  -5  -1   3    1.01    0.05
   5  -1  -3    1.01    0.05
   5   1   3    0.92    0.10
   5   1   3    0.87    0.12
  -5  -2  -3   11.38    0.39
   5  -2   3   12.24    0.41
  -5   2   3   11.23    0.39
   5   2  -3   11.39    0.40
   5   2  -3   11.48    0.39
  -5   2   3   11.52    0.38
   5  -2  -3   11.62    0.41
   5  -2  -3   11.87    0.28
  -5  -2   3   11.66    0.39
  -5   2  -3   11.51    0.40
  -5   2  -3   11.58    0.40
   5   2   3   11.63    0.41
   5   2   3   11.52    0.38
   5   3  -3    1.26    0.16
  -5   3   3    0.82    0.14
   5  -3   3    1.06    0.16
  -5  -3  -3    1.08    0.15
   5   3  -3    1.07    0.16
  -5   3   3    1.01    0.13
  -5   3  -3    1.06    0.16
   5   3   3    1.14    0.16
   5   3   3    0.92    0.14
  -5   3  -3    0.88    0.15
   5  -3  -3    0.97    0.15
  -5  -3   3    1.09    0.16
  -5  -4  -3    5.25    0.31
   5   4  -3    4.84    0.29
   5  -4   3    5.32    0.33
  -5   4   3    4.82    0.31
   5   4  -3    4.96    0.33
  -5  -4   3    5.40    0.32
   5   4   3    5.49    0.32
  -5   4  -3    5.52    0.33
   5   4   3    5.54    0.32
  -5   4  -3    5.13    0.31
   5  -4  -3    4.81    0.32
   5   0   4   38.98    0.80
  -5   0  -4   38.71    0.80
  -5   0   4   38.70    0.81
  -5   0  -4   37.80    0.91
  -5   0   4   37.48    0.91
   5   0  -4   38.07    0.80
   5   0   4   36.64    0.92
   5   1  -4   64.94    1.45
   5   1  -4   64.98    1.38
   5  -1   4   66.42    1.45
  -5   1   4   65.25    1.44
  -5  -1  -4   64.95    1.43
  -5   1   4   65.56    1.39
  -5   1  -4   66.12    1.38
  -5  -1   4   68.76    1.24
   5   1   4   65.47    1.46
  -5   1  -4   65.88    1.44
   5   1   4   66.64    1.38
   5  -1  -4   64.83    1.44
  -5  -1   4   65.98    1.43
  -5  -2  -4   22.03    0.62
   5  -2   4   21.19    0.63
  -5   2   4   22.08    0.61
   5   2  -4   22.65    0.64
   5   2  -4   21.51    0.61
  -5   2   4   20.96    0.61
   5  -2  -4   20.60    0.62
   5   2   4   21.44    0.63
   5   2   4   22.14    0.60
  -5   2  -4   21.66    0.62
  -5  -2   4   21.34    0.61
  -5   2  -4   22.07    0.61
   5  -3   4   39.01    1.02
  -5   3   4   37.94    1.00
  -5  -3  -4   37.74    0.99
   5   3  -4   38.56    1.01
   5   3  -4   38.58    1.00
  -5   3   4   40.79    0.98
   5   3   4   39.00    0.99
   5  -3  -4   38.74    1.01
  -5  -3   4   38.87    0.99
   5   3   4   38.73    1.01
  -5   3  -4   39.33    0.99
  -5   3  -4   38.25    1.01
   5   4  -4    6.11    0.34
  -5  -4  -4    5.53    0.33
   5  -4   4    5.62    0.35
  -5   4   4    5.24    0.33
   5   4  -4    6.33    0.37
   5  -4  -4    6.05    0.35
   5   4   4    5.63    0.33
  -5  -4   4    5.74    0.34
  -5   4  -4    5.28    0.32
   5   4   4    5.81    0.34
  -5   4  -4    5.90    0.35
   5   0   5   58.25    1.33
  -5   0  -5   58.65    1.31
   5   0  -5   58.27    1.33
   5   0   5   57.82    1.18
   5   0  -5   58.22    1.18
  -5   0   5   57.14    1.31
  -5   0   5   58.01    1.18
  -5   0  -5   57.11    1.18
   5  -1   5    6.83    0.31
  -5   1   5    6.53    0.30
   5  -1   5    6.90    0.17
   5   1  -5    6.95    0.26
  -5  -1  -5    6.72    0.30
   5   1  -5    6.54    0.31
  -5   1   5    6.03    0.25
  -5  -1  -5    7.13    0.16
  -5   1  -5    6.45    0.30
  -5   1  -5    6.65    0.26
   5   1   5    6.44    0.31
   5   1   5    6.72    0.25
  -5  -1   5    6.81    0.30
   5  -1  -5    6.72    0.30
  -5  -2  -5   41.58    1.03
   5  -2   5   42.03    1.05
  -5   2   5   41.26    1.03
   5   2  -5   41.43    1.00
   5   2  -5   41.86    1.05
  -5   2  -5   41.17    1.00
  -5  -2   5   41.35    1.02
   5   2   5   40.87    1.04
   5   2   5   41.37    0.99
  -5   2  -5   41.52    1.02
   5  -2  -5   40.80    1.03
   5  -3   5    6.19    0.33
  -5  -3  -5    6.02    0.32
   5   3  -5    6.07    0.33
   5   3  -5    6.55    0.34
  -5   3   5    5.83    0.32
  -5   3   5    6.46    0.32
   5   3   5    6.37    0.33
   5   3   5    6.24    0.32
   5  -3  -5    6.52    0.34
  -5   3  -5    6.61    0.32
  -5   3  -5    6.26    0.33
  -5  -3   5    6.63    0.33
  -5  -4  -5   22.02    0.73
  -5   4   5   20.94    0.73
   5   4  -5   21.42    0.75
   5  -4   5   21.67    0.75
   5   4  -5   22.26    0.74
  -5   4   5   22.89    0.72
  -5  -4   5   21.66    0.72
   5   4   5   22.22    0.76
   5   4   5   22.43    0.74
  -5   4  -5   21.97    0.75
   5  -4  -5   22.93    0.75
  -5   0   6    0.58    0.07
   5   0   6    0.51    0.12
  -5   0  -6    0.44    0.10
   5   0   6    0.55    0.08
   5   0  -6    0.67    0.08
   5   0  -6    0.39    0.11
  -5   0   6    0.47    0.10
  -5   0  -6    0.58    0.08
   5  -1   6    6.23    0.18
  -5   1   6    6.55    0.31
   5   1  -6    6.39    0.32
   5  -1   6    5.96    0.30
  -5   1   6    6.35    0.26
  -5  -1  -6    6.09    0.30
   5   1  -6    6.23    0.26
  -5  -1   6    6.44    0.31
   5   1   6    6.29    0.26
  -5   1  -6    6.74    0.27
   5  -1  -6    6.31    0.31
  -5   1  -6    6.50    0.31
   5   1   6    6.23    0.32
   5   2  -6    0.16    0.09
   5  -2   6    0.17    0.09
  -5   2   6    0.15    0.08
  -5  -2  -6    0.06    0.07
  -5   2   6    0.30    0.10
   5   2  -6    0.22    0.09
  -5   2  -6    0.11    0.07
   5  -2  -6    0.24    0.10
   5   2   6    0.21    0.08
  -5   2  -6    0.10    0.08
  -5  -2   6    0.16    0.08
   5   2   6    0.12    0.09
   5  -3   6    5.61    0.34
   5   3  -6    5.89    0.34
  -5  -3  -6    5.13    0.31
   5   3  -6    5.52    0.31
  -5   3   6    5.12    0.31
  -5   3   6    5.57    0.31
  -5   3  -6    4.78    0.29
  -5   3  -6    5.50    0.32
   5   3   6    5.62    0.32
   5   3   6    5.21    0.30
   5  -3  -6    5.75    0.33
  -5  -3   6    5.14    0.30
  -5   4   6    0.05    0.10
   5   4  -6    0.26    0.13
   5  -4   6    0.22    0.13
  -5  -4  -6    0.09    0.10
   5   4  -6    0.00    0.09
  -5   4   6    0.04    0.10
   5   4   6    0.02    0.09
  -5   4  -6    0.06    0.10
   5  -4  -6    0.08    0.11
  -5  -4   6   -0.01    0.08
  -5   0  -7  260.11    4.96
   5   0   7  257.40    5.13
  -5   0   7  254.28    5.11
   5   0   7  264.47    4.96
  -5   0   7  263.56    4.94
  -5   0  -7  261.32    5.11
   5   0  -7  255.16    5.13
  -5   1   7    8.44    0.31
   5  -1   7    8.09    0.37
  -5   1   7    8.20    0.37
   5   1  -7    8.41    0.39
  -5  -1  -7    8.31    0.37
   5   1  -7    8.23    0.31
  -5  -1   7    8.41    0.37
  -5   1  -7    8.49    0.38
  -5   1  -7    8.71    0.32
   5   1   7    8.42    0.31
   5  -1  -7    7.95    0.37
   5   1   7    8.15    0.39
  -5   2   7  210.78    4.05
   5   2  -7  204.76    4.05
  -5   2   7  201.38    4.12
  -5  -2  -7  205.36    4.11
   5  -2   7  199.98    4.13
   5   2  -7  200.35    4.15
  -5   2  -7  196.59    4.10
   5   2   7  193.79    4.12
   5   2   7  206.06    4.05
  -5  -2   7  202.35    4.09
   5  -2  -7  207.25    4.12
  -5   2  -7  205.93    4.07
  -5  -3  -7    4.53    0.31
  -5   3   7    4.80    0.30
   5   3  -7    4.26    0.29
   5  -3   7    5.00    0.33
  -5   3   7    4.54    0.31
   5   3  -7    4.84    0.33
   5   3   7    4.80    0.30
  -5   3  -7    5.25    0.31
  -5   3  -7    4.80    0.31
   5  -3  -7    5.56    0.33
   5   3   7    4.71    0.30
  -5  -3   7    4.24    0.29
   5  -4   7  117.70    2.70
  -5   4   7  123.19    2.68
  -5  -4  -7  119.80    2.67
   5   4  -7  119.04    2.70
   5   4  -7  119.50    2.67
  -5   4   7  117.97    2.65
  -5  -4   7  116.32    2.60
   5  -4  -7  120.33    2.64
  -5   4  -7  119.25    2.69
   5   4   7  114.90    2.63
   5   0  -8   56.65    1.38
  -5   0  -8   58.30    1.37
  -5   0   8   55.97    1.36
  -5   0  -8   57.47    1.22
   5   0  -8   56.96    1.21
   5   0   8   55.22    1.37
   5   0   8   55.84    1.22
   5   1  -8    0.86    0.16
  -5   1   8    0.92    0.13
  -5   1   8    1.04    0.16
   5  -1   8    0.81    0.15
  -5  -1  -8    0.79    0.15
   5   1   8    0.83    0.12
  -5  -1   8    1.11    0.18
  -5   1  -8    1.14    0.17
   5  -1  -8    0.65    0.14
   5   1   8    0.74    0.15
  -5   1  -8    0.96    0.14
  -5  -2  -8   39.32    1.07
  -5   2   8   39.97    1.01
   5   2  -8   40.46    1.02
   5   2  -8   39.51    1.10
  -5   2   8   38.92    1.07
   5  -2  -8   39.23    1.06
  -5  -2   8   39.96    1.05
  -5   2  -8   37.28    1.06
  -5   2  -8   41.09    1.04
   5   2   8   38.02    1.08
   5   2   8   39.97    1.02
   5   3  -8    1.52    0.21
  -5   3   8    1.33    0.20
  -5  -3  -8    1.48    0.22
   5   3  -8    1.29    0.22
   5  -3   8    1.51    0.23
  -5   3   8    1.66    0.23
  -5   3  -8    1.27    0.20
   5   3   8    1.50    0.20
   5  -3  -8    1.46    0.20
  -5  -3   8    1.44    0.20
  -5   0  -9    6.75    0.36
   5   0   9    7.12    0.38
  -5   0  -9    7.20    0.28
  -5   0   9    6.95    0.35
   5   0  -9    6.81    0.36
   5   0   9    7.11    0.28
  -5  -1  -9   15.59    0.58
  -5   1   9   15.45    0.58
   5   1  -9   16.33    0.62
   5  -1   9   15.95    0.60
  -5  -1   9   16.32    0.51
   5   1   9   15.99    0.51
   5  -1  -9   16.54    0.60
  -5  -1   9   16.72    0.59
   5  -1  -9   16.42    0.52
  -5   1  -9   15.34    0.51
   5   1   9   17.01    0.63
  -5   1  -9   16.82    0.61
   5   2  -9    5.82    0.37
  -5  -2  -9    5.49    0.35
   5  -2   9    5.75    0.36
  -5   2   9    6.40    0.37
  -5   2  -9    6.11    0.36
   5  -2  -9    5.89    0.34
  -5  -2   9    5.66    0.32
   5   2   9    5.83    0.32
  -5  -2   9    6.04    0.35
  -5   2  -9    5.44    0.32
   5   2   9    5.64    0.36
   5   3  -9   11.41    0.56
   5  -3   9   10.93    0.54
  -5   3   9   12.38    0.55
  -5  -3  -9   11.05    0.53
   5   3   9   11.47    0.50
  -5   3  -9   10.80    0.51
   5  -3  -9   11.83    0.52
  -5  -3   9   10.75    0.50
  -5  -3   9   11.81    0.50
  -5   0 -10    0.41    0.13
   5   0  10    0.05    0.06
   5   0 -10    0.05    0.09
   5   0  10    0.22    0.12
  -5   0  10    0.08    0.09
  -5   0 -10    0.21    0.08
   5   1 -10  103.49    2.36
  -5   1  10  102.84    2.32
   5  -1  10  101.55    2.32
  -5  -1 -10   99.83    2.30
  -5  -1  10  103.56    2.31
   5   1  10  104.93    2.20
   5  -1 -10  101.84    2.31
   5  -1 -10  104.34    2.20
   5   1  10  101.51    2.35
  -5  -1  10  103.61    2.19
  -5   1 -10  102.83    2.20
  -5   1 -10  106.36    2.34
   5  -2  10    0.17    0.11
  -5   2  10    0.15    0.11
  -5  -2 -10    0.24    0.12
   5   2 -10   -0.01    0.10
   5   2  10    0.14    0.10
  -5   2 -10    0.27    0.11
   5  -2 -10    0.31    0.12
  -5  -2  10    0.62    0.16
  -5  -2  10    0.13    0.10
   5  -2 -10    0.09    0.09
   5   3 -10   67.57    1.80
  -5   3  10   68.08    1.76
   5  -3  10   72.32    1.80
  -5  -3 -10   71.46    1.77
   5  -3 -10   66.42    1.69
   5   3  10   68.02    1.69
   5  -3 -10   69.68    1.71
  -5  -3  10   69.56    1.72
  -5   3 -10   70.47    1.73
  -5  -3  10   68.92    1.70
   5   0  11   33.04    0.98
   5   0 -11   32.71    0.98
  -5   0  11   31.68    0.95
   5   0  11   34.18    0.88
  -5   0 -11   32.25    0.97
  -5  -1 -11    0.47    0.14
   5  -1  11    0.49    0.15
   5   1 -11    0.68    0.17
  -5   1  11    0.52    0.15
  -5  -1  11    0.42    0.14
   5  -1 -11    0.61    0.16
  -5   1 -11    0.63    0.13
   5  -1 -11    0.40    0.11
   5   1  11    0.60    0.13
  -5   1 -11    0.90    0.19
   5   1  11    0.71    0.18
   5   2 -11   26.04    0.91
  -5  -2 -11   26.64    0.88
  -5   2  11   26.08    0.88
   5  -2  11   26.30    0.89
  -5  -2  11   26.80    0.82
   5  -2 -11   26.88    0.82
  -5   2 -11   26.09    0.83
  -5  -2  11   26.81    0.86
   5   2  11   27.00    0.82
   5  -2 -11   28.09    0.89
   5   0 -12    1.41    0.23
  -5   0 -12    1.85    0.25
   5   0  12    2.07    0.27
  -5   0  12    2.12    0.27
   5  -1  12    5.94    0.39
  -5  -1 -12    6.74    0.41
   5   1 -12    5.94    0.40
  -5   1  12    5.60    0.37
   5   1  12    6.18    0.34
  -5  -1  12    6.66    0.39
  -5   1 -12    6.54    0.41
   5  -1 -12    6.50    0.39
  -5   1 -12    6.56    0.35
  -5   2  12    1.54    0.24
  -5  -2 -12    1.21    0.22
   5   2 -12    0.93    0.21
   5  -2  12    1.32    0.24
   5  -2 -12    1.89    0.24
   5  -2 -12    1.36    0.23
  -5  -2  12    1.20    0.20
  -5   2 -12    1.34    0.21
  -5  -2  12    1.42    0.23
   5   2  12    1.52    0.21
  -5   0  13   66.71    1.70
   5   0  13   69.00    1.72
  -5   0 -13   66.15    1.71
   5   0 -13   66.33    1.72
   5   1 -13    0.89    0.20
  -5  -1 -13    1.76    0.26
   5  -1  13    1.22    0.23
  -5   1  13    1.07    0.20
   5   1  13    0.91    0.17
   5  -1 -13    1.40    0.23
  -5  -1  13    1.11    0.20
   6   0   0   56.35    1.23
   6   0   0   59.17    1.22
  -6   0   0   59.72    1.21
  -6   0   0   59.32    1.24
  -6   1   0  113.71    2.25
   6   1   0  103.54    2.19
   6  -1   0  113.98    2.22
  -6  -1   0  112.70    2.21
   6   1   0  110.36    2.25
  -6  -1   0  114.20    2.23
  -6   1   0  109.57    2.19
   6  -1   0  113.77    2.24
  -6   2   0   35.14    0.75
   6  -2   0   35.70    0.88
  -6  -2   0   35.95    0.81
  -6   2   0   35.58    0.88
   6   2   0   35.58    0.77
   6  -2   0   35.29    0.83
   6   2   0   34.51    0.88
   6   3   0   77.54    1.76
  -6   3   0   78.28    1.74
   6  -3   0   78.19    1.76
  -6  -3   0   79.20    1.75
  -6  -3   0   77.47    1.64
   6  -3   0   78.84    1.68
  -6   4   0   11.81    0.49
  -6  -4   0   11.63    0.49
   6   4   0   11.93    0.51
   6   0  -1   16.91    0.46
   6   0   1   16.48    0.41
   6   0   1   16.52    0.46
  -6   0  -1   16.11    0.41
  -6   0  -1   16.73    0.46
   6   0  -1   17.14    0.44
  -6   0   1   16.80    0.43
  -6   0   1   16.10    0.44
   6  -1   1   13.45    0.41
  -6   1   1   13.82    0.39
  -6   1   1   14.02    0.41
   6   1  -1   13.66    0.41
  -6  -1  -1   13.92    0.40
  -6  -1  -1   13.61    0.39
   6   1  -1   13.93    0.41
  -6   1  -1   13.48    0.34
  -6  -1   1   13.95    0.41
  -6  -1   1   14.14    0.36
   6  -1  -1   14.58    0.38
   6   1   1   13.89    0.34
  -6   1  -1   14.01    0.42
   6  -1  -1   13.46    0.41
   6   1   1   14.72    0.43
   6   2  -1   14.25    0.47
   6  -2   1   15.30    0.46
  -6   2   1   15.31    0.40
  -6   2   1   15.16    0.47
   6   2  -1   15.24    0.42
  -6  -2  -1   15.43    0.44
   6  -2  -1   14.49    0.48
   6   2   1   15.18    0.35
  -6  -2   1   15.44    0.40
   6   2   1   14.68    0.48
   6  -2  -1   14.73    0.41
  -6  -2   1   14.90    0.47
  -6   2  -1   14.87    0.48
  -6   3   1    7.04    0.34
   6   3  -1    7.44    0.35
   6   3  -1    7.47    0.31
   6  -3   1    7.61    0.32
  -6  -3  -1    7.76    0.31
   6  -3  -1    7.61    0.35
  -6  -3   1    7.71    0.35
  -6   3  -1    7.54    0.35
  -6   3  -1    7.30    0.34
   6   3   1    7.98    0.36
   6  -3  -1    7.57    0.31
  -6   4   1   11.00    0.49
   6   4  -1   11.42    0.50
  -6  -4  -1   11.39    0.49
  -6   4  -1   12.42    0.50
   6  -4  -1   12.45    0.51
   6   4   1   11.90    0.51
  -6  -4   1   12.35    0.51
   6   0  -2   33.82    0.81
  -6   0   2   32.23    0.74
   6   0  -2   33.68    0.74
  -6   0   2   33.37    0.79
  -6   0  -2   33.57    0.80
  -6   0  -2   34.24    0.72
   6   0   2   34.26    0.72
   6  -1   2    8.62    0.32
   6   1  -2    8.82    0.30
   6   1  -2    8.14    0.31
  -6  -1  -2    8.91    0.31
  -6   1   2    8.45    0.30
  -6   1   2    8.25    0.30
  -6  -1   2    8.91    0.24
   6   1   2    8.51    0.28
   6   1   2    9.05    0.21
  -6   1  -2    8.54    0.32
  -6  -1   2    8.77    0.31
   6  -1  -2    8.52    0.25
   6   1   2    8.97    0.34
  -6   1  -2    8.53    0.20
  -6   1  -2    9.06    0.29
   6  -1  -2    8.48    0.32
   6  -2   2   21.51    0.60
   6   2  -2   21.25    0.61
  -6  -2  -2   20.42    0.58
  -6   2   2   20.87    0.60
  -6   2   2   21.44    0.55
   6   2  -2   22.16    0.58
  -6   2  -2   21.08    0.60
   6  -2  -2   20.05    0.61
  -6  -2   2   21.03    0.60
  -6  -2   2   21.95    0.49
   6  -2  -2   21.72    0.51
   6   2   2   20.42    0.58
  -6   3   2    4.85    0.23
   6   3  -2    4.98    0.25
   6   3  -2    4.97    0.28
  -6  -3  -2    4.91    0.26
   6  -3   2    4.85    0.27
  -6   3   2    4.76    0.28
   6  -3  -2    4.24    0.27
  -6   3  -2    4.41    0.27
   6   3   2    5.75    0.29
  -6  -3   2    4.78    0.27
   6   3   2    4.49    0.28
  -6   3  -2    4.89    0.28
   6   4  -2    8.45    0.42
  -6   4   2    7.91    0.40
   6  -4   2    7.85    0.38
   6  -4  -2    7.61    0.40
  -6  -4   2    8.17    0.41
  -6   4  -2    7.75    0.39
  -6   4  -2    7.28    0.39
   6   4   2    7.70    0.40
   6   0  -3  497.75    9.42
   6   0   3  508.20    9.38
  -6   0  -3  471.95    9.34
   6   0   3  458.81    9.36
  -6   0  -3  495.99    9.33
  -6   0   3  517.54    9.43
  -6   0   3  501.99    9.34
   6   0  -3  494.07    9.37
  -6  -1  -3    3.66    0.20
  -6   1   3    3.59    0.18
  -6   1   3    3.50    0.20
   6   1  -3    3.46    0.21
   6  -1   3    3.35    0.21
   6   1  -3    3.41    0.18
   6  -1  -3    3.83    0.13
   6   1   3    3.72    0.22
  -6  -1   3    3.30    0.20
   6   1   3    3.39    0.17
  -6   1  -3    3.67    0.21
   6  -1  -3    3.66    0.21
  -6  -1   3    3.79    0.12
  -6   1  -3    3.57    0.18
  -6   2   3  362.38    6.87
  -6   2   3  354.11    6.89
   6   2  -3  366.41    6.90
   6  -2   3  339.97    6.90
  -6  -2  -3  364.83    6.89
   6   2  -3  356.35    6.89
  -6  -2   3  362.01    6.90
   6   2   3  360.86    6.86
   6   2   3  359.30    6.93
  -6   2  -3  357.37    6.91
   6  -2  -3  357.08    6.92
  -6   2  -3  360.98    6.89
   6   3  -3    2.23    0.23
   6  -3   3    2.24    0.22
  -6   3   3    1.91    0.20
  -6   3   3    2.32    0.17
   6   3  -3    1.97    0.18
  -6  -3  -3    2.17    0.19
   6  -3  -3    2.20    0.24
  -6   3  -3    2.28    0.20
  -6   3  -3    2.07    0.22
   6   3   3    2.48    0.22
  -6  -3   3    1.99    0.21
   6   3   3    2.14    0.22
   6   4  -3  178.08    3.74
  -6   4   3  175.47    3.73
   6  -4   3  181.79    3.72
  -6  -4  -3  181.40    3.68
  -6  -4   3  188.27    3.74
  -6   4  -3  183.19    3.72
   6   4   3  172.43    3.70
   6   4   3  173.79    3.73
   6  -4  -3  183.39    3.76
  -6   4  -3  177.90    3.74
   6   0   4    6.77    0.30
   6   0  -4    6.39    0.21
  -6   0  -4    6.77    0.29
  -6   0   4    6.38    0.21
   6   0   4    6.21    0.20
  -6   0   4    6.63    0.29
  -6   0  -4    6.61    0.21
  -6   1   4   39.08    0.91
   6   1  -4   39.47    0.92
   6  -1   4   40.39    0.99
   6   1  -4   39.61    1.00
  -6  -1  -4   38.91    0.97
  -6   1   4   39.78    0.97
  -6   1  -4   39.72    0.91
   6   1   4   39.76    1.00
  -6   1  -4   40.26    0.98
   6  -1  -4   38.10    0.97
   6   1   4   41.39    0.91
   6  -1  -4   41.30    0.79
  -6  -1   4   41.99    0.79
  -6  -1   4   40.92    0.97
  -6   2   4    4.77    0.26
  -6   2   4    4.59    0.25
   6   2  -4    4.43    0.24
   6   2  -4    5.04    0.27
  -6  -2  -4    4.74    0.26
   6  -2   4    4.74    0.27
  -6   2  -4    4.95    0.27
   6   2   4    4.60    0.24
  -6  -2   4    4.41    0.25
   6  -2  -4    4.79    0.27
   6   2   4    4.43    0.27
  -6   2  -4    4.90    0.25
   6  -3   4   21.39    0.68
   6   3  -4   22.51    0.67
   6   3  -4   21.27    0.68
  -6  -3  -4   21.21    0.66
  -6   3   4   21.39    0.68
  -6   3   4   22.64    0.65
  -6   3  -4   21.12    0.67
  -6  -3   4   21.50    0.67
  -6   3  -4   21.83    0.67
   6   3   4   21.99    0.69
   6   3   4   21.57    0.66
   6  -3  -4   21.25    0.68
  -6   4   4    2.20    0.26
   6  -4   4    2.63    0.29
  -6  -4  -4    2.31    0.26
   6   4  -4    2.13    0.25
   6   4   4    2.37    0.27
   6  -4  -4    2.21    0.26
  -6   4  -4    2.37    0.25
   6   4   4    1.77    0.23
  -6  -4   4    2.20    0.26
  -6   4  -4    1.81    0.24
   6   0   5   45.00    1.14
  -6   0  -5   45.38    1.13
  -6   0   5   48.75    1.14
  -6   0   5   48.11    1.00
  -6   0  -5   48.10    1.00
   6   0  -5   47.42    1.15
   6   0  -5   48.45    1.00
   6   0   5   47.67    0.99
   6   1  -5    6.38    0.26
  -6  -1  -5    6.31    0.30
  -6   1   5    6.25    0.30
   6   1  -5    6.15    0.31
   6  -1   5    6.55    0.32
  -6   1   5    6.72    0.26
  -6   1  -5    6.33    0.25
  -6  -1   5    6.39    0.30
   6   1   5    6.94    0.33
  -6   1  -5    6.22    0.30
   6   1   5    6.22    0.25
   6  -1  -5    6.43    0.31
   6   2  -5   36.27    0.93
  -6  -2  -5   38.94    0.97
   6   2  -5   36.78    0.99
  -6   2   5   36.67    0.93
  -6   2   5   36.62    0.96
   6  -2   5   37.18    0.98
  -6   2  -5   37.10    0.97
  -6   2  -5   36.46    0.93
   6  -2  -5   37.00    0.98
   6   2   5   38.23    1.00
  -6  -2   5   36.76    0.96
   6   2   5   38.33    0.93
   6  -3   5    3.75    0.28
   6   3  -5    3.72    0.27
   6   3  -5    4.68    0.29
  -6   3   5    3.67    0.26
  -6  -3  -5    4.08    0.27
  -6   3   5    3.84    0.26
  -6  -3   5    3.51    0.26
   6   3   5    3.95    0.26
  -6   3  -5    4.21    0.27
   6  -3  -5    3.87    0.28
  -6   3  -5    3.46    0.26
   6   3   5    3.65    0.27
   6   4  -5   23.04    0.78
   6  -4   5   23.06    0.79
  -6   4   5   24.02    0.79
   6   4  -5   23.31    0.79
  -6  -4  -5   23.59    0.78
  -6   4  -5   23.26    0.79
   6  -4  -5   24.41    0.80
  -6  -4   5   24.79    0.79
  -6   4  -5   24.56    0.77
   6   4   5   23.73    0.79
   6   4   5   22.94    0.77
  -6   0  -6    7.71    0.25
   6   0  -6    8.41    0.26
  -6   0   6    8.07    0.26
  -6   0  -6    7.66    0.35
   6   0   6    7.83    0.26
  -6   0   6    7.78    0.35
   6   0   6    8.29    0.37
   6   1  -6  107.30    2.32
  -6  -1  -6  105.28    2.29
  -6   1   6  107.37    2.29
  -6   1   6  109.77    2.20
   6   1  -6  108.49    2.19
   6  -1   6  104.94    2.31
  -6  -1   6  105.67    2.29
   6   1   6  107.69    2.19
   6   1   6  109.22    2.34
  -6   1  -6  110.04    2.32
  -6   1  -6  109.93    2.21
   6  -1  -6  106.58    2.31
  -6  -2  -6    5.09    0.29
  -6   2   6    4.75    0.29
   6   2  -6    4.83    0.30
   6  -2   6    5.29    0.31
  -6   2   6    5.27    0.27
   6   2  -6    5.22    0.27
  -6  -2   6    5.34    0.30
   6   2   6    5.03    0.31
   6   2   6    4.99    0.26
  -6   2  -6    5.46    0.28
   6  -2  -6    5.39    0.31
  -6   2  -6    5.26    0.30
  -6  -3  -6   71.67    1.73
  -6   3   6   72.68    1.71
   6  -3   6   72.26    1.76
   6   3  -6   74.91    1.77
  -6   3   6   75.05    1.73
   6   3  -6   73.05    1.73
  -6   3  -6   74.88    1.73
   6   3   6   76.02    1.76
   6  -3  -6   75.16    1.75
  -6   3  -6   74.40    1.73
   6   3   6   74.90    1.71
  -6  -3   6   74.69    1.72
  -6  -4  -6    1.84    0.25
  -6   4   6    2.16    0.26
  -6   4   6    1.55    0.23
   6  -4   6    2.30    0.29
   6   4  -6    1.77    0.25
   6   4  -6    1.98    0.26
   6   4   6    2.03    0.25
   6  -4  -6    2.24    0.27
  -6  -4   6    2.02    0.25
  -6   4  -6    1.61    0.23
   6   0   7    3.34    0.25
  -6   0  -7    3.33    0.17
  -6   0   7    3.66    0.25
  -6   0   7    3.49    0.17
  -6   0  -7    3.71    0.25
   6   0   7    3.72    0.17
   6   0  -7    3.89    0.27
   6   0  -7    3.73    0.17
   6   1  -7   20.01    0.67
  -6  -1  -7   19.74    0.64
  -6   1   7   20.00    0.56
   6  -1   7   21.15    0.67
  -6   1   7   19.83    0.64
   6   1  -7   20.72    0.56
  -6  -1   7   19.40    0.63
  -6   1  -7   19.81    0.56
   6   1   7   19.95    0.56
  -6   1  -7   20.14    0.66
   6  -1  -7   20.28    0.65
   6   1   7   20.26    0.68
   6   2  -7    2.49    0.20
  -6  -2  -7    2.77    0.23
  -6   2   7    2.73    0.21
   6   2  -7    2.74    0.25
  -6   2   7    2.65    0.27
   6  -2   7    2.75    0.24
  -6   2  -7    3.04    0.25
   6   2   7    2.91    0.26
  -6   2  -7    2.76    0.21
   6   2   7    2.64    0.20
   6  -2  -7    2.50    0.23
  -6  -2   7    2.61    0.23
  -6  -3  -7   11.96    0.51
   6  -3   7   11.49    0.52
   6   3  -7   12.06    0.54
  -6   3   7   12.58    0.53
   6   3  -7   11.44    0.49
  -6   3   7   11.01    0.47
   6   3   7   11.40    0.48
   6  -3  -7   11.94    0.51
  -6  -3   7   11.23    0.48
  -6   3  -7   11.71    0.49
   6   3   7   11.66    0.51
  -6   3  -7   11.95    0.50
   6   0   8   10.76    0.35
  -6   0  -8   11.20    0.35
   6   0   8   11.69    0.48
   6   0  -8   11.74    0.49
  -6   0   8   11.02    0.46
  -6   0  -8   10.72    0.46
   6  -1   8    0.80    0.16
   6   1  -8    0.93    0.17
  -6   1   8    1.11    0.14
   6   1  -8    0.91    0.13
  -6  -1  -8    1.01    0.17
  -6   1   8    1.31    0.19
   6   1   8    1.02    0.13
  -6   1  -8    1.02    0.18
  -6  -1   8    1.57    0.20
   6  -1  -8    1.05    0.17
  -6   1  -8    1.41    0.16
   6   1   8    1.19    0.19
   6  -2   8    8.39    0.42
  -6  -2  -8    8.51    0.41
   6   2  -8    8.62    0.44
  -6   2   8    9.51    0.44
   6   2  -8    8.41    0.37
  -6   2   8    8.77    0.38
  -6  -2   8    8.14    0.40
   6   2   8    7.54    0.43
   6  -2  -8    8.56    0.42
  -6   2  -8    8.35    0.42
  -6   2  -8    8.08    0.37
   6   2   8    8.29    0.37
  -6   3   8    1.64    0.24
  -6  -3  -8    1.74    0.24
  -6   3   8    1.54    0.21
   6  -3   8    1.70    0.25
   6   3  -8    1.30    0.20
   6   3  -8    1.77    0.26
   6  -3  -8    1.47    0.22
  -6  -3   8    2.06    0.25
   6   3   8    1.21    0.19
  -6   3  -8    1.40    0.20
  -6   0   9   36.86    1.04
  -6   0  -9   38.81    1.06
   6   0   9   38.39    1.07
   6   0  -9   38.97    1.07
   6   0   9   38.73    0.89
   6   1  -9   33.08    0.98
  -6   1   9   32.97    0.96
   6  -1   9   33.34    0.97
  -6  -1  -9   32.50    0.95
  -6   1  -9   34.76    0.99
   6  -1  -9   33.42    0.98
  -6  -1   9   33.70    0.85
   6   1   9   33.21    0.99
  -6   1  -9   32.33    0.85
   6   1   9   32.34    0.84
  -6  -1   9   33.31    0.96
   6  -2   9   35.18    1.03
   6   2  -9   34.43    1.05
  -6   2   9   35.94    0.95
  -6  -2  -9   34.29    1.01
  -6   2   9   35.07    1.03
  -6  -2   9   36.09    1.02
  -6   2  -9   34.68    1.04
   6   2   9   30.75    1.03
  -6   2  -9   33.71    0.94
   6  -2  -9   36.26    1.02
   6   2   9   37.22    0.96
  -6  -3  -9   20.64    0.77
  -6   3   9   20.65    0.78
   6   3  -9   21.67    0.82
  -6   3   9   20.97    0.72
   6  -3   9   20.51    0.78
   6   3   9   22.21    0.74
   6  -3  -9   20.67    0.74
  -6  -3   9   20.52    0.73
  -6   3  -9   21.04    0.73
   6   0  10    6.81    0.39
  -6   0 -10    6.26    0.37
   6   0 -10    6.30    0.37
  -6   0  10    6.07    0.36
   6  -1  10    0.18    0.11
  -6   1  10   -0.02    0.08
   6   1 -10    0.05    0.09
  -6  -1 -10    0.06    0.10
  -6   1 -10    0.04    0.07
   6   1  10    0.05    0.07
  -6  -1  10    0.08    0.10
   6  -1 -10    0.29    0.09
   6   1  10    0.09    0.11
  -6   1 -10    0.11    0.11
   6  -1 -10   -0.06    0.08
  -6  -2 -10    4.56    0.33
  -6   2  10    4.15    0.32
   6  -2  10    4.54    0.34
   6   2 -10    4.05    0.34
  -6   2 -10    4.23    0.29
  -6   2 -10    3.78    0.32
   6  -2 -10    4.24    0.32
  -6  -2  10    4.49    0.29
   6  -2 -10    3.89    0.28
  -6  -2  10    4.20    0.32
   6   2  10    3.73    0.27
   6   2  10    2.73    0.32
  -6   3  10    0.16    0.13
   6  -3  10    0.04    0.10
  -6  -3 -10    0.16    0.13
   6   3 -10    0.12    0.12
  -6  -3  10    0.16    0.12
  -6  -3  10    0.02    0.10
   6   3  10    0.00    0.09
   6  -3 -10    0.21    0.13
  -6   3 -10    0.15    0.11
   6  -3 -10   -0.09    0.08
  -6   0 -11   63.63    1.60
  -6   0  11   63.35    1.57
   6   0 -11   61.20    1.58
   6   0  11   63.46    1.60
  -6   1  11    1.61    0.23
   6  -1  11    1.21    0.21
  -6  -1 -11    1.32    0.22
   6   1 -11    1.37    0.23
  -6   1 -11    1.42    0.19
  -6  -1  11    1.12    0.19
   6   1  11    1.25    0.22
   6   1  11    1.62    0.19
   6  -1 -11    1.33    0.22
  -6   1 -11    1.53    0.24
  -6  -2 -11   53.55    1.43
   6   2 -11   51.35    1.45
  -6   2  11   52.74    1.42
   6  -2  11   50.60    1.43
  -6  -2  11   50.53    1.39
  -6  -2  11   52.84    1.33
   6   2  11   53.01    1.33
  -6   2 -11   51.50    1.34
   6  -2 -11   52.61    1.33
   6  -2 -11   52.11    1.41
   6   0 -12   -0.06    0.09
   6   0  12    0.11    0.12
  -6   0 -12    0.13    0.12
  -6   0  12    0.50    0.15
   6  -1  12   63.97    1.67
  -6  -1 -12   63.84    1.65
   6   1 -12   62.60    1.69
  -6   1  12   63.68    1.65
  -6  -1  12   65.31    1.64
  -6   1 -12   68.13    1.71
   6   1  12   63.20    1.51
   6   1  12   67.64    1.71
   6  -1 -12   65.79    1.67
  -6   0  13    0.08    0.11
   6   0  13    0.54    0.17
  -6   0 -13    0.45    0.16
   6   0 -13    0.16    0.12
   7   0   0    0.00    0.05
  -7   0   0    0.07    0.05
  -7   0   0    0.21    0.06
   7   0   0    0.21    0.06
   7  -1   0    0.01    0.05
   7   1   0    0.07    0.05
  -7  -1   0    0.06    0.05
  -7   1   0   -0.02    0.05
  -7   1   0    0.09    0.05
  -7  -1   0   -0.01    0.04
   7   1   0    0.14    0.06
   7  -1   0    0.02    0.05
  -7   2   0    0.06    0.07
   7   2   0    0.13    0.07
   7  -2   0    0.03    0.05
   7   2   0    0.01    0.04
  -7  -2   0    0.03    0.05
  -7  -2   0    0.05    0.06
   7  -2   0    0.12    0.07
   7  -3   0    0.07    0.07
  -7  -3   0   -0.03    0.06
   7  -3   0    0.07    0.08
   7   3   0    0.27    0.10
  -7   3   0    0.13    0.09
  -7  -4   0    0.01    0.09
  -7   4   0   -0.03    0.09
   7  -4   0   -0.01    0.09
   7   4   0   -0.07    0.08
  -7   0  -1    8.98    0.32
   7   0   1    8.79    0.32
  -7   0   1    9.53    0.30
  -7   0  -1    9.10    0.28
  -7   0   1    9.85    0.32
   7   0  -1    9.66    0.31
   7   0   1    8.89    0.29
   7   0  -1    9.99    0.33
  -7   1   1   27.08    0.67
   7  -1   1   27.03    0.68
   7   1  -1   27.81    0.69
   7  -1   1   27.73    0.69
  -7  -1  -1   27.10    0.67
   7   1  -1   25.75    0.68
  -7   1   1   27.56    0.69
  -7  -1  -1   28.23    0.68
   7  -1  -1   27.92    0.65
  -7  -1   1   27.33    0.68
   7   1   1   26.88    0.71
  -7  -1   1   27.81    0.64
   7  -1  -1   27.04    0.69
   7   1   1   26.17    0.62
  -7   1  -1   26.93    0.70
  -7   1  -1   26.33    0.61
  -7   2   1    9.39    0.37
   7  -2   1    8.94    0.36
   7  -2   1    9.74    0.35
   7   2  -1    9.26    0.31
  -7   2   1    9.02    0.29
  -7  -2  -1    9.50    0.35
   7   2  -1    8.49    0.36
  -7  -2  -1    9.46    0.33
   7  -2  -1    8.99    0.30
   7   2   1    8.62    0.36
  -7  -2   1   10.22    0.30
  -7  -2   1    8.67    0.35
   7  -2  -1   10.04    0.38
  -7   2  -1    8.79    0.36
   7  -3   1   16.33    0.52
  -7  -3  -1   16.47    0.49
  -7  -3  -1   16.20    0.55
  -7   3   1   15.33    0.55
   7   3  -1   15.16    0.55
  -7  -3   1   15.67    0.55
   7   3   1   15.26    0.56
   7  -3  -1   15.98    0.56
  -7   3  -1   15.66    0.55
  -7   4   1    9.46    0.45
   7   4  -1    9.11    0.45
   7  -4   1    9.24    0.46
  -7  -4  -1    8.24    0.43
  -7   4  -1    9.21    0.44
  -7  -4   1    8.89    0.43
   7   4   1    9.18    0.45
   7  -4  -1    9.11    0.45
   7   0   2    1.13    0.14
  -7   0  -2    1.39    0.15
  -7   0  -2    1.39    0.10
  -7   0   2    1.38    0.11
   7   0  -2    1.51    0.16
  -7   0   2    1.38    0.14
   7   0   2    1.44    0.10
   7   0  -2    1.57    0.12
  -7  -1  -2  113.77    2.36
  -7   1   2  113.31    2.36
   7   1  -2  118.11    2.35
  -7   1   2  118.12    2.35
   7  -1   2  117.10    2.38
   7   1  -2  112.56    2.39
   7   1   2  115.22    2.23
  -7   1  -2  109.15    2.22
  -7  -1   2  117.79    2.37
  -7   1  -2  113.67    2.39
   7  -1  -2  116.07    2.38
  -7  -1   2  122.34    2.27
   7  -1  -2  117.47    2.27
   7   1   2  119.66    2.42
  -7   2   2    1.10    0.13
   7   2  -2    1.07    0.13
  -7  -2  -2    1.49    0.16
   7   2  -2    1.00    0.14
  -7   2   2    0.85    0.13
  -7   2  -2    0.93    0.13
  -7  -2   2    1.07    0.14
   7  -2  -2    0.82    0.13
  -7  -2   2    1.18    0.11
  -7   2  -2    1.03    0.15
   7   2   2    0.99    0.13
   7  -2  -2    1.22    0.10
   7   2   2    0.90    0.14
   7  -3   2   68.20    1.55
  -7  -3  -2   67.39    1.52
   7   3  -2   66.84    1.58
  -7  -3   2   66.63    1.57
  -7   3  -2   68.39    1.58
   7   3   2   67.40    1.55
   7  -3  -2   67.67    1.60
  -7   3  -2   68.94    1.59
   7   3   2   69.84    1.62
   7   4  -2    0.46    0.15
  -7  -4  -2    0.13    0.11
   7  -4   2    0.40    0.14
  -7   4   2    0.54    0.15
   7   4   2    0.35    0.14
  -7   4  -2    0.18    0.12
   7  -4  -2    0.62    0.16
  -7  -4   2    0.47    0.14
  -7   4  -2    0.29    0.11
  -7   0   3    3.46    0.20
   7   0  -3    3.59    0.22
   7   0   3    3.22    0.21
  -7   0   3    3.28    0.15
  -7   0  -3    3.21    0.14
   7   0  -3    3.25    0.16
  -7   0  -3    3.39    0.20
   7   0   3    3.47    0.15
  -7   1   3    0.10    0.07
  -7  -1  -3    0.11    0.07
   7   1  -3    0.17    0.07
  -7   1   3    0.05    0.05
   7   1  -3    0.05    0.05
   7  -1   3    0.06    0.06
   7   1   3    0.02    0.05
  -7   1  -3    0.08    0.05
  -7   1  -3    0.09    0.07
   7   1   3    0.09    0.07
  -7  -1   3    0.07    0.06
   7  -1  -3    0.12    0.07
  -7  -1   3    0.07    0.04
   7  -1  -3    0.14    0.04
  -7  -2  -3    2.78    0.20
   7   2  -3    2.56    0.20
   7   2  -3    2.99    0.21
  -7   2   3    3.08    0.20
   7  -2   3    2.88    0.21
  -7   2   3    2.70    0.19
  -7   2  -3    2.62    0.20
  -7  -2   3    2.88    0.21
   7   2   3    2.73    0.19
   7   2   3    2.63    0.22
  -7   2  -3    2.68    0.19
   7  -2  -3    2.53    0.21
  -7   3   3    0.25    0.10
  -7   3   3    0.40    0.10
  -7  -3  -3    0.35    0.11
   7   3  -3    0.32    0.10
   7   3  -3    0.14    0.09
   7  -3   3    0.18    0.09
   7   3   3    0.24    0.09
   7  -3  -3    0.32    0.11
  -7  -3   3    0.40    0.12
  -7   3  -3    0.31    0.11
  -7   3  -3    0.24    0.10
   7   3   3    0.21    0.11
  -7  -4  -3    1.54    0.21
   7   4  -3    1.50    0.22
   7  -4   3    1.23    0.20
  -7   4   3    1.38    0.20
   7   4   3    1.85    0.25
   7  -4  -3    1.42    0.22
   7   4   3    1.31    0.20
  -7   4  -3    1.72    0.23
  -7   4  -3    1.53    0.22
  -7  -4   3    1.74    0.23
   7   0   4    3.21    0.14
  -7   0  -4    3.38    0.21
  -7   0  -4    3.23    0.14
  -7   0   4    3.17    0.21
  -7   0   4    3.34    0.15
   7   0  -4    3.11    0.22
   7   0  -4    3.28    0.15
  -7   1   4  193.93    3.87
   7  -1   4  188.01    3.87
  -7  -1  -4  195.96    3.85
  -7   1   4  189.79    3.79
   7   1  -4  189.62    3.90
   7   1  -4  197.21    3.79
   7   1   4  195.46    3.77
  -7   1  -4  194.30    3.78
   7  -1  -4  198.77    3.66
   7  -1  -4  190.90    3.87
   7   1   4  189.35    3.89
  -7  -1   4  200.62    3.66
  -7   1  -4  192.75    3.87
  -7  -1   4  194.80    3.86
  -7   2   4    3.13    0.22
   7   2  -4    3.30    0.24
   7   2  -4    3.33    0.22
   7  -2   4    3.44    0.24
  -7   2   4    3.25    0.22
  -7  -2  -4    3.01    0.22
  -7   2  -4    3.44    0.22
   7  -2  -4    3.25    0.23
   7   2   4    3.43    0.25
  -7   2  -4    3.39    0.24
  -7  -2   4    3.30    0.22
   7   2   4    3.23    0.20
  -7   3   4  124.61    2.55
   7  -3   4  115.65    2.59
   7   3  -4  121.32    2.61
  -7  -3  -4  116.43    2.57
   7   3  -4  124.37    2.58
  -7   3   4  120.20    2.59
   7   3   4  120.12    2.63
  -7  -3   4  118.88    2.59
   7   3   4  124.41    2.57
  -7   3  -4  123.83    2.61
   7  -3  -4  121.74    2.63
  -7   3  -4  121.80    2.60
   7  -4   4    2.88    0.30
  -7   4   4    3.03    0.27
  -7  -4  -4    2.76    0.25
   7   4  -4    3.12    0.31
   7   4   4    2.60    0.27
   7  -4  -4    2.88    0.30
  -7   4  -4    3.03    0.27
   7   4   4    3.11    0.32
  -7  -4   4    2.84    0.29
  -7   4  -4    2.73    0.28
  -7   0   5   28.40    0.66
  -7   0  -5   28.08    0.78
  -7   0   5   29.05    0.79
   7   0  -5   28.42    0.66
  -7   0  -5   29.57    0.65
   7   0   5   28.79    0.65
   7   0  -5   28.82    0.81
   7   0   5   28.56    0.80
   7  -1   5    8.51    0.37
   7   1  -5    8.41    0.39
  -7   1   5    8.08    0.36
   7   1  -5    8.20    0.31
  -7   1   5    8.32    0.31
  -7  -1  -5    8.44    0.36
  -7  -1   5    8.37    0.36
   7   1   5    8.32    0.38
   7  -1  -5    7.70    0.36
  -7   1  -5    8.39    0.31
   7   1   5    7.93    0.30
  -7   1  -5    8.30    0.37
  -7   2   5   24.33    0.69
   7   2  -5   24.42    0.70
   7   2  -5   24.87    0.76
   7  -2   5   24.26    0.74
  -7  -2  -5   24.36    0.72
  -7   2   5   23.97    0.73
  -7   2  -5   24.18    0.69
   7  -2  -5   24.23    0.74
   7   2   5   24.77    0.77
  -7   2  -5   24.59    0.74
   7   2   5   24.50    0.68
  -7  -2   5   24.42    0.72
   7   3  -5    1.89    0.23
  -7  -3  -5    1.80    0.22
   7  -3   5    1.93    0.23
  -7   3   5    1.95    0.22
  -7   3   5    1.99    0.23
   7   3  -5    1.88    0.22
  -7   3  -5    2.01    0.24
  -7   3  -5    1.83    0.22
   7  -3  -5    2.20    0.25
   7   3   5    1.82    0.23
   7   3   5    2.00    0.22
  -7  -3   5    1.80    0.22
  -7   4   5   16.73    0.65
  -7  -4  -5   17.02    0.63
   7   4  -5   15.67    0.64
   7  -4   5   16.98    0.66
   7   4   5   16.70    0.63
  -7   4  -5   15.36    0.63
  -7  -4   5   16.93    0.64
   7  -4  -5   16.83    0.66
   7   4   5   17.57    0.67
  -7   4  -5   17.11    0.65
  -7   0  -6    0.15    0.05
   7   0  -6    0.07    0.05
  -7   0   6    0.34    0.10
   7   0  -6   -0.07    0.06
   7   0   6    0.08    0.05
  -7   0   6    0.07    0.04
  -7   0  -6    0.04    0.07
   7   0   6   -0.02    0.07
  -7  -1  -6   18.15    0.59
   7   1  -6   17.74    0.61
  -7   1   6   17.06    0.51
   7  -1   6   17.79    0.60
  -7   1   6   16.86    0.58
   7   1  -6   17.15    0.51
  -7  -1   6   16.83    0.58
  -7   1  -6   17.69    0.60
   7   1   6   18.12    0.50
   7   1   6   17.34    0.61
  -7   1  -6   17.73    0.51
   7  -1  -6   18.05    0.60
   7   2  -6    0.12    0.08
   7  -2   6    0.19    0.10
  -7  -2  -6    0.17    0.09
  -7   2   6    0.06    0.06
   7   2  -6    0.08    0.09
  -7   2   6    0.08    0.09
   7  -2  -6    0.12    0.10
   7   2   6   -0.01    0.08
  -7  -2   6    0.12    0.09
  -7   2  -6    0.13    0.09
   7   2   6    0.07    0.07
  -7   2  -6    0.08    0.07
   7   3  -6   10.26    0.46
  -7   3   6   10.88    0.48
  -7  -3  -6   10.07    0.46
   7  -3   6   10.42    0.48
  -7   3   6   10.97    0.46
   7   3  -6    9.95    0.49
   7   3   6   11.08    0.50
  -7  -3   6   10.31    0.46
  -7   3  -6   10.76    0.46
   7   3   6   10.81    0.45
   7  -3  -6   10.18    0.48
  -7   3  -6   11.04    0.49
   7   4  -6    0.14    0.12
  -7   4   6    0.19    0.12
   7  -4   6    0.10    0.12
  -7  -4  -6    0.12    0.11
   7   4  -6    0.32    0.14
   7   4   6    0.05    0.11
  -7   4  -6    0.11    0.11
   7   4   6    0.06    0.10
   7  -4  -6    0.21    0.13
  -7  -4   6    0.14    0.12
   7   0   7   64.27    1.35
   7   0  -7   64.62    1.35
   7   0   7   64.47    1.56
  -7   0  -7   64.11    1.54
  -7   0   7   65.47    1.54
  -7   0   7   66.46    1.36
  -7   0  -7   65.26    1.35
   7   0  -7   65.16    1.57
   7  -1   7  107.97    2.37
   7   1  -7  109.38    2.23
   7   1  -7  109.89    2.40
  -7  -1  -7  108.32    2.36
  -7   1   7  108.01    2.23
  -7   1   7  107.51    2.35
   7  -1  -7  107.88    2.37
  -7   1  -7  108.92    2.23
  -7  -1   7  108.11    2.35
   7   1   7  106.78    2.22
   7   1   7  106.71    2.39
  -7   1  -7  108.40    2.37
  -7   2   7   51.39    1.25
  -7  -2  -7   51.72    1.32
   7  -2   7   52.67    1.35
  -7   2   7   51.11    1.34
   7   2  -7   52.47    1.26
   7   2  -7   51.99    1.37
   7   2   7   52.52    1.38
   7   2   7   51.93    1.25
  -7   2  -7   53.60    1.27
   7  -2  -7   54.02    1.35
  -7  -2   7   53.35    1.33
  -7   2  -7   52.55    1.35
   7  -3   7   59.95    1.57
  -7  -3  -7   61.23    1.54
   7   3  -7   60.99    1.51
  -7   3   7   62.29    1.51
  -7   3   7   63.13    1.57
   7   3  -7   61.99    1.60
  -7  -3   7   60.99    1.53
  -7   3  -7   61.32    1.56
  -7   3  -7   61.97    1.53
   7  -3  -7   60.18    1.54
   7   3   7   63.55    1.50
   7   3   7   63.09    1.58
   7   0   8   12.53    0.52
  -7   0   8   12.18    0.50
  -7   0  -8   12.39    0.51
   7   0  -8   12.76    0.53
   7   0   8   12.18    0.37
  -7   1   8   33.69    0.95
   7   1  -8   32.58    0.82
  -7   1   8   32.81    0.83
  -7  -1  -8   30.71    0.92
   7   1  -8   31.85    0.96
   7  -1   8   32.01    0.94
  -7  -1   8   34.23    0.95
   7  -1  -8   31.56    0.95
   7   1   8   31.09    0.81
  -7   1  -8   33.57    0.84
   7   1   8   33.50    0.98
  -7   1  -8   33.52    0.97
  -7   2   8    8.31    0.38
   7   2  -8    9.30    0.39
  -7  -2  -8    8.45    0.43
   7  -2   8   10.25    0.48
  -7   2   8    9.08    0.45
   7   2  -8    8.86    0.47
   7   2   8    9.04    0.48
   7   2   8    8.45    0.38
  -7   2  -8    8.31    0.38
   7  -2  -8    8.68    0.44
  -7   2  -8    9.26    0.46
  -7  -2   8    9.00    0.44
   7  -3   8   21.52    0.78
  -7   3   8   21.72    0.73
   7   3  -8   22.59    0.82
  -7   3   8   20.60    0.77
  -7  -3  -8   22.35    0.77
   7   3  -8   22.75    0.74
   7  -3  -8   22.11    0.77
  -7   3  -8   21.29    0.77
  -7   3  -8   21.11    0.73
  -7  -3   8   21.55    0.75
   7   3   8   21.48    0.72
   7   3   8   21.27    0.78
  -7   0  -9   10.40    0.49
   7   0   9   11.30    0.51
   7   0  -9   11.67    0.52
  -7   0   9   11.44    0.50
   7  -1   9    1.18    0.20
  -7  -1  -9    1.29    0.20
  -7   1   9    1.20    0.20
  -7   1   9    1.43    0.17
   7   1  -9    1.19    0.21
   7  -1  -9    1.22    0.21
  -7   1  -9    1.09    0.15
   7   1   9    1.46    0.23
  -7   1  -9    1.52    0.23
  -7  -1   9    1.03    0.18
   7   1   9    1.32    0.16
  -7   2   9    9.10    0.41
  -7  -2  -9    9.83    0.48
   7   2  -9    9.80    0.51
   7  -2   9    9.37    0.48
   7   2  -9    9.21    0.41
  -7   2   9    9.15    0.47
  -7   2  -9    9.38    0.48
  -7   2  -9    9.94    0.42
   7   2   9    8.88    0.40
  -7  -2   9    9.82    0.47
   7   2   9    8.67    0.49
   7  -2  -9    9.83    0.47
   7   3  -9    0.28    0.13
  -7   3   9    0.18    0.13
  -7   3   9    0.26    0.12
   7  -3   9    0.39    0.15
  -7  -3  -9    0.40    0.14
   7   3  -9    0.30    0.14
   7   3   9    0.24    0.12
   7  -3  -9    0.34    0.14
  -7   3  -9    0.24    0.12
  -7  -3   9    0.36    0.14
  -7   0  10   23.78    0.79
  -7   0 -10   24.87    0.82
   7   0  10   23.70    0.81
   7   0 -10   22.99    0.80
   7  -1  10   54.26    1.45
  -7   1  10   55.92    1.46
   7   1 -10   56.94    1.49
  -7  -1 -10   53.96    1.42
  -7   1 -10   54.94    1.30
   7  -1 -10   55.09    1.30
   7   1  10   55.81    1.30
  -7   1 -10   54.60    1.47
   7  -1 -10   56.27    1.47
  -7  -1  10   56.88    1.45
   7   1  10   54.32    1.48
   7   2 -10   19.74    0.77
   7  -2  10   20.32    0.76
  -7  -2 -10   19.83    0.74
  -7   2  10   19.49    0.74
  -7   2 -10   18.86    0.75
  -7   2 -10   19.44    0.67
   7   2  10   19.88    0.65
  -7  -2  10   19.68    0.67
   7   2  10   18.14    0.76
  -7  -2  10   19.83    0.73
   7  -2 -10   19.76    0.73
   7   0 -11   14.58    0.62
  -7   0 -11   15.40    0.63
   7   0  11   15.27    0.63
  -7   0  11   13.70    0.59
   7   1 -11    3.09    0.34
  -7   1  11    3.36    0.34
  -7  -1 -11    3.27    0.29
   7  -1  11    2.89    0.32
   7  -1 -11    2.96    0.31
   7   1  11    2.87    0.22
  -7  -1  11    2.81    0.31
  -7   1 -11    3.12    0.34
   7   1  11    3.26    0.36
   7   2 -11   13.09    0.64
   7  -2  11   12.87    0.61
  -7  -2 -11   12.64    0.60
  -7   2  11   13.70    0.61
  -7   2 -11   13.17    0.54
   7  -2 -11   13.72    0.54
  -7  -2  11   12.27    0.58
   7   2  11   12.87    0.52
  -7  -2  11   13.79    0.55
   7  -2 -11   13.85    0.62
  -7   0  12   13.15    0.58
   7   0  12   13.18    0.60
  -7   0 -12   12.63    0.59
   7   0 -12   12.48    0.59
  -7   1  12    4.31    0.35
   7   1 -12    3.68    0.34
  -7  -1 -12    4.76    0.37
   7  -1  12    4.04    0.35
  -7  -1  12    4.55    0.35
  -7   1 -12    4.65    0.37
   7   1  12    4.42    0.37
   7  -1 -12    4.15    0.34
   8   0   0   74.43    1.56
  -8   0   0   72.26    1.53
   8   0   0   74.58    1.57
  -8   0   0   74.19    1.57
  -8   1   0   99.29    2.11
   8  -1   0  105.89    2.09
  -8  -1   0  102.75    2.09
   8   1   0   98.15    2.08
  -8  -1   0  102.46    2.06
   8  -1   0  102.34    2.10
  -8   1   0   97.95    2.05
   8   1   0  102.07    2.12
   8  -2   0   52.42    1.16
  -8  -2   0   50.99    1.20
  -8  -2   0   52.31    1.14
  -8   2   0   50.48    1.22
   8  -2   0   50.80    1.22
   8   2   0   49.84    1.23
  -8  -3   0   59.18    1.43
   8  -3   0   59.13    1.44
   8   3   0   59.82    1.46
  -8   3   0   60.55    1.46
   8  -4   0   24.66    0.82
   8   4   0   24.76    0.83
  -8   4   0   25.15    0.82
  -8  -4   0   23.79    0.80
  -8   0  -1   46.41    1.10
   8   0   1   48.02    1.11
  -8   0   1   49.28    1.08
   8   0  -1   50.47    1.09
  -8   0  -1   48.29    1.05
   8   0  -1   49.01    1.11
  -8   0   1   49.13    1.09
   8   0   1   48.43    1.06
   8  -1   1   28.93    0.72
  -8   1   1   28.84    0.74
  -8  -1  -1   29.54    0.72
   8  -1   1   28.41    0.73
  -8   1   1   28.72    0.72
   8   1  -1   28.33    0.74
  -8  -1  -1   29.29    0.73
   8   1  -1   28.27    0.75
  -8   1  -1   27.68    0.66
   8   1   1   26.75    0.68
  -8  -1   1   29.33    0.73
  -8  -1   1   28.79    0.68
   8  -1  -1   28.46    0.74
  -8   1  -1   28.53    0.75
   8   1   1   27.95    0.75
   8  -1  -1   29.25    0.69
   8   2  -1   32.10    0.86
  -8  -2  -1   30.26    0.82
   8  -2   1   31.05    0.84
  -8   2   1   32.15    0.76
  -8  -2  -1   32.35    0.80
  -8   2   1   32.85    0.85
   8  -2   1   32.37    0.82
   8   2  -1   33.77    0.78
   8  -2  -1   30.60    0.85
  -8   2  -1   31.09    0.85
   8   2   1   31.38    0.86
   8  -2  -1   32.30    0.77
  -8  -2   1   32.53    0.75
  -8  -2   1   31.15    0.84
   8   3  -1   17.21    0.62
   8  -3   1   18.20    0.57
  -8  -3  -1   17.83    0.54
  -8   3   1   17.49    0.61
  -8  -3  -1   18.03    0.61
   8  -3   1   18.20    0.62
  -8  -3   1   18.33    0.61
   8  -3  -1   16.91    0.61
   8   3   1   18.18    0.63
  -8   3  -1   17.54    0.61
   8   4  -1   13.21    0.57
  -8   4   1   13.17    0.56
   8  -4   1   13.39    0.58
  -8  -4  -1   14.31    0.57
  -8   4  -1   13.15    0.56
  -8  -4   1   13.19    0.56
   8   4   1   13.86    0.59
   8  -4  -1   13.48    0.57
   8   0  -2    0.43    0.08
  -8   0  -2    0.38    0.09
   8   0  -2    0.49    0.10
   8   0   2    0.57    0.08
  -8   0   2    0.47    0.08
   8   0   2    0.43    0.10
  -8   0  -2    0.52    0.08
  -8   0   2    0.62    0.11
   8  -1   2   24.22    0.67
  -8   1   2   25.32    0.65
   8   1  -2   25.65    0.66
   8   1  -2   24.05    0.69
  -8  -1  -2   24.13    0.66
  -8   1   2   23.96    0.66
   8  -1   2   25.36    0.64
  -8  -1  -2   24.03    0.63
  -8   1  -2   22.66    0.58
   8  -1  -2   25.47    0.59
  -8   1  -2   24.30    0.68
   8   1   2   21.38    0.57
  -8  -1   2   25.46    0.58
  -8  -1   2   23.17    0.65
   8   1   2   25.08    0.70
   8  -1  -2   24.00    0.67
  -8   2   2    0.40    0.10
   8   2  -2    0.53    0.11
  -8  -2  -2    0.63    0.12
  -8  -2  -2    0.41    0.10
   8   2  -2    0.59    0.12
  -8   2   2    0.70    0.11
   8  -2   2    0.69    0.12
   8  -2  -2    0.38    0.10
   8   2   2    0.32    0.11
  -8  -2   2    0.40    0.11
  -8   2  -2    0.50    0.12
  -8  -3  -2   17.70    0.57
   8  -3   2   19.11    0.61
  -8  -3  -2   18.24    0.61
  -8   3   2   18.27    0.63
   8   3  -2   18.12    0.63
  -8  -3   2   19.16    0.64
  -8   3  -2   18.55    0.64
   8   3   2   19.09    0.66
   8  -3  -2   18.75    0.65
   8   4  -2    0.69    0.17
   8  -4   2    0.52    0.15
  -8   4   2    0.63    0.16
  -8  -4  -2    0.58    0.15
  -8   4  -2    0.63    0.16
   8   4   2    0.79    0.18
  -8  -4   2    0.89    0.18
   8  -4  -2    0.69    0.17
   8   0   3   26.03    0.62
   8   0  -3   26.58    0.64
  -8   0   3   26.27    0.72
   8   0  -3   27.55    0.75
  -8   0  -3   26.11    0.72
   8   0   3   26.70    0.74
  -8   0   3   25.94    0.64
  -8   0  -3   26.39    0.61
  -8  -1  -3   63.42    1.40
  -8   1   3   61.51    1.36
   8   1  -3   63.40    1.37
   8   1  -3   62.62    1.45
   8  -1   3   62.13    1.42
  -8   1   3   59.78    1.40
  -8   1  -3   61.31    1.33
   8  -1  -3   61.91    1.26
   8   1   3   61.38    1.32
  -8  -1   3   62.17    1.26
   8  -1  -3   61.66    1.42
  -8   1  -3   61.25    1.42
   8   1   3   60.14    1.43
   8  -2   3   23.33    0.71
  -8   2   3   24.95    0.70
   8   2  -3   24.56    0.71
  -8  -2  -3   23.87    0.69
  -8   2   3   24.73    0.69
   8   2  -3   25.59    0.71
   8   2   3   24.28    0.75
  -8   2  -3   24.44    0.69
  -8   2  -3   24.25    0.72
   8   2   3   24.06    0.67
  -8  -2   3   24.60    0.71
   8  -2  -3   24.18    0.73
  -8  -3  -3   35.95    0.94
  -8   3   3   35.68    0.98
   8  -3   3   35.47    0.97
   8   3  -3   35.13    0.99
   8   3   3   36.70    0.96
   8  -3  -3   36.37    1.01
  -8  -3   3   33.42    0.96
   8   3   3   35.52    1.02
  -8   3  -3   34.89    0.99
  -8   3  -3   36.17    0.98
  -8  -4  -3   19.39    0.70
   8   4  -3   19.73    0.72
   8  -4   3   20.31    0.69
  -8   4   3   19.13    0.71
  -8   4  -3   18.64    0.69
   8  -4  -3   19.98    0.73
   8   4   3   18.37    0.72
  -8   4  -3   19.41    0.71
  -8  -4   3   19.86    0.71
   8   0  -4    1.39    0.11
   8   0  -4    1.21    0.17
  -8   0  -4    1.66    0.11
  -8   0  -4    1.44    0.18
  -8   0   4    1.51    0.11
   8   0   4    1.38    0.17
   8   0   4    1.30    0.10
  -8   0   4    1.55    0.18
   8   1  -4    5.20    0.30
  -8  -1  -4    5.41    0.28
   8   1  -4    5.38    0.24
   8  -1   4    5.45    0.30
  -8   1   4    5.82    0.25
  -8   1   4    5.40    0.29
  -8   1  -4    5.10    0.23
  -8   1  -4    4.82    0.28
   8  -1  -4    5.14    0.28
   8   1   4    5.37    0.23
   8   1   4    5.15    0.30
  -8  -1   4    5.29    0.28
  -8   2   4    0.80    0.14
  -8  -2  -4    0.78    0.14
   8  -2   4    0.94    0.16
   8   2  -4    0.92    0.16
  -8   2   4    0.94    0.16
   8   2  -4    1.07    0.16
  -8   2  -4    0.66    0.14
  -8  -2   4    0.93    0.15
   8  -2  -4    0.85    0.15
  -8   2  -4    0.92    0.14
   8   2   4    1.14    0.18
   8   2   4    0.83    0.13
   8   3  -4    3.87    0.28
  -8   3   4    4.09    0.28
   8  -3   4    4.05    0.29
   8   3  -4    4.31    0.28
  -8  -3  -4    4.50    0.28
   8  -3  -4    4.25    0.30
  -8   3  -4    4.34    0.30
  -8   3  -4    4.14    0.28
   8   3   4    3.93    0.30
  -8  -3   4    4.14    0.29
   8   3   4    4.62    0.28
   8   4  -4    0.40    0.15
  -8  -4  -4    0.39    0.13
   8  -4   4    0.06    0.10
  -8   4   4    0.12    0.10
  -8   4  -4    0.09    0.10
  -8   4  -4    0.15    0.11
  -8  -4   4    0.36    0.14
   8   4   4    0.18    0.11
   8  -4  -4    0.07    0.12
   8   4   4    0.22    0.13
  -8   0  -5   36.57    0.80
  -8   0   5   36.38    0.96
   8   0  -5   35.67    0.81
   8   0  -5   36.08    0.98
  -8   0   5   37.19    0.82
  -8   0  -5   35.14    0.95
   8   0   5   36.29    0.98
   8   0   5   37.19    0.80
  -8   1   5    1.62    0.20
   8   1  -5    1.79    0.22
  -8  -1  -5    1.96    0.21
   8  -1   5    1.18    0.17
  -8   1   5    1.35    0.15
   8   1  -5    1.58    0.16
   8  -1  -5    2.26    0.23
  -8   1  -5    1.44    0.19
   8   1   5    1.65    0.14
  -8   1  -5    1.55    0.14
  -8  -1   5    1.37    0.18
   8   1   5    2.23    0.23
  -8  -2  -5   27.77    0.81
   8   2  -5   27.85    0.85
   8   2  -5   29.24    0.79
  -8   2   5   27.20    0.77
  -8   2   5   26.96    0.81
   8  -2   5   28.10    0.84
  -8   2  -5   27.43    0.77
  -8   2  -5   28.05    0.83
   8   2   5   28.22    0.76
   8   2   5   27.70    0.86
  -8  -2   5   29.13    0.82
   8  -2  -5   27.58    0.83
   8   3  -5    0.32    0.11
   8  -3   5    0.18    0.10
  -8  -3  -5    0.02    0.09
  -8   3   5    0.47    0.13
  -8   3   5    0.24    0.11
   8   3  -5    0.08    0.10
  -8   3  -5    0.32    0.11
  -8  -3   5    0.22    0.12
  -8   3  -5    0.43    0.13
   8  -3  -5    0.22    0.11
   8   3   5    0.20    0.10
   8   3   5    0.27    0.12
  -8   4   5   17.18    0.67
  -8  -4  -5   16.51    0.63
   8  -4   5   17.35    0.67
   8   4  -5   16.99    0.67
  -8   4  -5   16.55    0.66
   8  -4  -5   17.27    0.69
   8   4   5   16.68    0.69
   8   4   5   15.93    0.63
  -8  -4   5   16.20    0.65
  -8   4  -5   16.22    0.65
   8   0   6    7.26    0.37
  -8   0  -6    6.95    0.35
  -8   0   6    6.92    0.25
  -8   0  -6    7.30    0.25
  -8   0   6    7.35    0.36
   8   0   6    6.88    0.24
   8   0  -6    7.29    0.38
   8   0  -6    6.90    0.25
   8   1  -6   58.77    1.43
   8   1  -6   56.59    1.26
  -8   1   6   56.18    1.27
  -8   1   6   56.40    1.38
   8  -1   6   56.40    1.39
  -8  -1  -6   56.47    1.37
  -8   1  -6   56.38    1.26
   8   1   6   56.21    1.25
   8   1   6   56.71    1.42
  -8   1  -6   54.25    1.37
   8  -1  -6   57.21    1.40
  -8  -1   6   55.70    1.37
  -8   2   6    4.32    0.30
  -8   2   6    4.55    0.27
   8  -2   6    4.20    0.30
   8   2  -6    4.41    0.27
   8   2  -6    4.16    0.31
  -8  -2  -6    4.46    0.29
   8   2   6    4.57    0.26
  -8   2  -6    5.08    0.32
   8  -2  -6    4.81    0.31
  -8  -2   6    4.90    0.31
   8   2   6    5.67    0.35
  -8   2  -6    4.74    0.27
   8  -3   6   37.75    1.11
  -8  -3  -6   38.87    1.09
  -8   3   6   39.47    1.11
   8   3  -6   38.93    1.08
   8   3  -6   38.81    1.13
  -8   3   6   40.10    1.08
   8  -3  -6   41.77    1.14
  -8   3  -6   39.96    1.13
  -8  -3   6   40.37    1.10
   8   3   6   38.65    1.05
  -8   3  -6   38.20    1.07
   8   3   6   41.09    1.16
   8   0  -7    0.19    0.11
  -8   0  -7    0.01    0.08
   8   0   7    0.05    0.05
  -8   0   7    0.13    0.06
   8   0   7    0.19    0.10
  -8   0   7    0.07    0.09
  -8   1   7   29.03    0.75
  -8  -1  -7   28.09    0.85
  -8   1   7   30.50    0.88
   8  -1   7   28.37    0.87
   8   1  -7   28.26    0.89
   8   1  -7   28.76    0.75
   8   1   7   29.75    0.90
  -8   1  -7   28.83    0.75
  -8  -1   7   29.00    0.86
  -8   1  -7   29.35    0.88
   8   1   7   29.95    0.75
   8  -1  -7   29.15    0.87
  -8   2   7    0.07    0.08
  -8   2   7    0.66    0.16
  -8  -2  -7    0.18    0.10
   8  -2   7    0.28    0.12
   8   2  -7    0.04    0.08
   8   2  -7    1.34    0.23
  -8  -2   7    0.05    0.09
   8   2   7    0.23    0.13
   8  -2  -7    0.09    0.10
  -8   2  -7    0.12    0.08
  -8   2  -7    0.16    0.11
   8   2   7    0.15    0.09
   8   3  -7   18.80    0.73
   8   3  -7   17.40    0.65
  -8   3   7   18.66    0.70
  -8   3   7   17.82    0.64
   8  -3   7   17.07    0.68
  -8  -3  -7   18.67    0.68
   8   3   7   18.04    0.64
  -8  -3   7   17.91    0.67
   8   3   7   19.33    0.74
  -8   3  -7   18.55    0.70
  -8   3  -7   18.83    0.66
   8  -3  -7   18.59    0.70
  -8   0   8   13.69    0.56
   8   0  -8   14.48    0.58
   8   0   8   14.32    0.58
  -8   0  -8   14.10    0.56
  -8   1   8   45.11    1.09
   8   1  -8   45.28    1.26
  -8   1   8   45.81    1.22
   8  -1   8   46.04    1.24
   8   1  -8   45.68    1.08
  -8  -1  -8   44.66    1.21
   8   1   8   44.36    1.07
  -8  -1   8   46.88    1.23
  -8   1  -8   48.05    1.26
   8  -1  -8   47.09    1.25
  -8   1  -8   46.67    1.09
   8   1   8   45.88    1.27
   8   2  -8   10.55    0.43
   8  -2   8   10.41    0.51
   8   2  -8   11.21    0.54
  -8  -2  -8   11.58    0.51
  -8   2   8   11.18    0.52
  -8   2   8   10.97    0.44
  -8  -2   8   10.84    0.50
  -8   2  -8   10.82    0.52
   8   2   8   11.26    0.44
  -8   2  -8   11.01    0.45
   8   2   8   10.39    0.54
   8  -2  -8   10.53    0.50
   8  -3   8   29.95    0.99
  -8  -3  -8   31.25    0.97
  -8   3   8   30.40    0.92
   8   3  -8   28.93    1.01
   8   3  -8   32.40    0.94
  -8   3   8   30.76    0.99
  -8  -3   8   30.93    0.97
   8   3   8   31.08    1.02
   8  -3  -8   31.80    0.99
   8   3   8   30.80    0.92
  -8   3  -8   30.07    0.99
  -8   3  -8   30.12    0.93
   8   0  -9   65.57    1.65
  -8   0   9   65.16    1.62
  -8   0  -9   66.26    1.63
   8   0   9   64.64    1.64
  -8   1   9   19.24    0.59
  -8  -1  -9   18.85    0.70
   8   1  -9   21.11    0.76
   8  -1   9   20.53    0.73
  -8   1   9   19.50    0.71
   8   1   9   19.69    0.59
  -8   1  -9   19.60    0.73
   8  -1  -9   20.57    0.74
  -8   1  -9   20.14    0.60
   8   1   9   20.02    0.75
  -8  -1   9   20.19    0.72
  -8   2   9   52.59    1.30
   8   2  -9   54.86    1.48
   8   2  -9   53.73    1.31
   8  -2   9   52.04    1.43
  -8  -2  -9   53.49    1.42
  -8   2   9   52.82    1.42
  -8   2  -9   51.53    1.30
   8   2   9   50.08    1.46
  -8   2  -9   53.79    1.45
  -8  -2   9   53.85    1.40
   8  -2  -9   52.33    1.40
   8   2   9   52.95    1.30
   8  -3   9   14.19    0.65
  -8  -3  -9   14.37    0.63
   8   3  -9   13.99    0.67
  -8   3   9   14.17    0.58
   8   3  -9   13.62    0.57
  -8   3   9   12.66    0.62
   8   3   9   14.03    0.57
   8  -3  -9   14.23    0.63
  -8  -3   9   13.34    0.60
  -8   3  -9   13.59    0.58
  -8   0 -10    9.70    0.48
   8   0 -10    8.63    0.48
   8   0  10    9.27    0.49
  -8   0  10   10.18    0.49
  -8   1  10    0.47    0.15
  -8  -1 -10    0.20    0.12
   8  -1  10    0.32    0.14
   8   1 -10    0.13    0.11
   8  -1 -10    0.27    0.14
  -8   1 -10    0.52    0.16
   8   1  10    0.30    0.10
  -8  -1  10    0.22    0.12
   8   1  10    0.11    0.12
   8  -2  10    6.20    0.42
  -8  -2 -10    6.85    0.43
  -8   2  10    6.90    0.43
  -8   2  10    7.21    0.36
   8   2 -10    6.48    0.45
  -8  -2  10    7.05    0.43
   8   2  10    6.93    0.36
  -8   2 -10    7.13    0.37
   8  -2 -10    6.35    0.41
  -8   2 -10    6.34    0.43
   8   2  10    5.98    0.44
   8   0  11   13.87    0.62
  -8   0 -11   12.75    0.58
   8   0 -11   11.80    0.58
  -8   0  11   12.78    0.57
  -8  -1 -11   28.99    0.96
   8  -1  11   29.80    0.98
  -8   1  11   27.74    0.95
   8   1 -11   27.32    0.98
  -8   1 -11   29.40    0.98
  -8  -1  11   29.15    0.96
   8  -1 -11   31.03    0.99
   8   1  11   30.92    1.01
   8   0 -12   23.38    0.87
   8   0  12   24.40    0.90
  -8   0 -12   24.76    0.88
  -8   0  12   25.59    0.87
  -8   1  12   30.00    1.00
   8   1 -12   31.07    1.05
   8  -1 -12   28.37    0.98
  -8  -1  12   27.96    0.97
   9   0   0    0.17    0.07
  -9   0   0    0.03    0.05
   9   0   0    0.02    0.06
  -9   0   0    0.05    0.06
   9   1   0    0.10    0.07
   9   1   0   -0.02    0.06
   9  -1   0    0.02    0.05
  -9   1   0   -0.01    0.06
  -9  -1   0    0.04    0.06
  -9  -1   0    0.10    0.06
   9  -1   0    0.11    0.07
  -9   1   0    0.02    0.06
  -9  -2   0   -0.03    0.06
  -9   2   0    0.14    0.08
  -9  -2   0   -0.08    0.05
   9  -2   0    0.09    0.08
   9  -2   0    0.04    0.06
   9   2   0    0.04    0.07
  -9   3   0    0.06    0.09
   9   3   0    0.02    0.08
   9  -3   0   -0.01    0.08
  -9  -3   0    0.20    0.09
   9   4   0   -0.02    0.09
  -9  -4   0    0.12    0.12
  -9   4   0    0.02    0.09
   9  -4   0    0.08    0.10
  -9   0  -1  183.23    3.53
  -9   0  -1  183.73    3.61
  -9   0   1  182.12    3.58
  -9   0   1  180.96    3.56
   9   0   1  178.56    3.61
   9   0  -1  181.66    3.57
   9   0  -1  177.22    3.60
   9   0   1  182.76    3.55
   9   1  -1   41.98    0.95
  -9   1   1   36.85    0.91
  -9  -1  -1   36.31    0.90
   9  -1   1   38.19    0.93
   9   1  -1   36.29    0.94
   9  -1   1   37.30    0.91
  -9   1   1   36.92    0.92
  -9  -1  -1   38.41    0.91
   9   1   1   33.54    0.87
   9   1   1   36.74    0.95
   9  -1  -1   38.03    0.88
  -9   1  -1   35.76    0.85
  -9  -1   1   38.78    0.93
   9  -1  -1   38.86    0.95
  -9   1  -1   38.00    0.94
  -9  -1   1   38.04    0.87
  -9   2   1  131.03    2.80
  -9  -2  -1  136.79    2.73
  -9  -2  -1  135.19    2.77
   9  -2   1  134.01    2.75
   9  -2   1  134.08    2.79
   9   2  -1  133.33    2.81
   9  -2  -1  137.43    2.69
  -9  -2   1  136.60    2.67
  -9  -2   1  132.58    2.78
  -9   2  -1  131.30    2.80
   9   2   1  132.74    2.82
   9  -2  -1  133.27    2.81
   9  -3   1   26.72    0.82
   9  -3   1   26.38    0.76
  -9  -3  -1   26.41    0.80
   9   3  -1   27.29    0.84
  -9   3   1   26.22    0.82
   9   3   1   27.18    0.85
   9  -3  -1   27.01    0.83
  -9  -3   1   25.99    0.81
  -9   3  -1   28.11    0.84
  -9  -4  -1   74.22    1.77
   9   4  -1   70.97    1.79
  -9   4   1   70.71    1.77
   9  -4   1   70.53    1.77
  -9   4  -1   71.66    1.78
   9  -4  -1   71.21    1.79
   9   4   1   73.02    1.81
  -9  -4   1   72.46    1.77
   9   0  -2    0.41    0.09
   9   0   2    0.51    0.09
  -9   0   2    0.56    0.11
   9   0   2    0.39    0.10
  -9   0  -2    0.38    0.08
  -9   0   2    0.48    0.09
   9   0  -2    0.31    0.09
  -9   0  -2    0.40    0.10
   9  -1   2   50.33    1.20
  -9   1   2   51.28    1.17
   9   1  -2   51.37    1.18
  -9   1   2   50.18    1.19
  -9  -1  -2   50.11    1.14
  -9  -1  -2   50.12    1.18
   9   1  -2   48.40    1.22
   9  -1   2   51.12    1.16
  -9  -1   2   51.18    1.09
  -9   1  -2   50.59    1.21
  -9  -1   2   51.16    1.19
   9  -1  -2   52.56    1.11
   9  -1  -2   50.02    1.20
   9   1   2   48.44    1.22
   9   2  -2    0.75    0.13
   9   2  -2    0.59    0.13
  -9   2   2    0.68    0.12
  -9  -2  -2    0.84    0.14
  -9   2   2    0.58    0.13
   9  -2   2    0.64    0.13
   9  -2   2    0.90    0.14
  -9  -2  -2    0.60    0.12
   9  -2  -2    0.70    0.14
   9   2   2    0.55    0.13
  -9  -2   2    0.62    0.13
  -9   2  -2    1.13    0.17
  -9  -3  -2   34.49    0.97
  -9  -3  -2   35.34    0.92
   9  -3   2   35.45    0.95
   9   3  -2   34.42    0.99
  -9   3   2   34.58    0.98
   9  -3   2   33.83    0.98
  -9   3  -2   35.14    1.01
   9   3   2   35.42    1.03
  -9  -3   2   34.64    0.98
   9  -3  -2   35.45    1.01
  -9  -4  -2    1.17    0.20
   9  -4   2    1.18    0.21
   9   4  -2    1.32    0.22
  -9   4   2    1.38    0.22
  -9   4  -2    1.87    0.25
   9   4   2    1.56    0.25
   9  -4  -2    1.35    0.23
  -9  -4   2    1.57    0.24
  -9   0   3    1.43    0.14
  -9   0   3    1.50    0.18
   9   0  -3    1.10    0.16
  -9   0  -3    1.25    0.16
   9   0   3    1.04    0.15
  -9   0  -3    1.58    0.12
   9   0   3    1.52    0.12
   9   0  -3    1.28    0.13
   9  -1   3   15.53    0.48
  -9  -1  -3   16.31    0.53
   9   1  -3   15.85    0.50
   9   1  -3   16.18    0.57
  -9   1   3   15.41    0.49
   9  -1   3   16.24    0.54
  -9  -1  -3   16.48    0.48
  -9   1   3   15.95    0.54
   9  -1  -3   15.80    0.42
   9  -1  -3   15.80    0.54
  -9   1  -3   16.46    0.55
  -9  -1   3   16.28    0.42
  -9  -1   3   15.57    0.52
   9   1   3   15.73    0.55
  -9   2   3    1.13    0.16
  -9   2   3    0.78    0.14
   9   2  -3    0.98    0.15
   9  -2   3    1.19    0.17
   9   2  -3    0.89    0.16
  -9  -2  -3    1.06    0.16
  -9   2  -3    0.83    0.14
   9   2   3    0.95    0.17
   9  -2  -3    0.95    0.16
  -9   2  -3    0.81    0.15
  -9  -2   3    0.93    0.15
  -9   3   3    8.58    0.41
   9   3  -3    7.71    0.40
   9  -3   3    8.09    0.40
  -9  -3  -3    7.64    0.37
  -9  -3  -3    8.00    0.39
  -9   3  -3    8.12    0.42
   9   3   3    8.19    0.43
   9  -3  -3    8.79    0.43
  -9  -3   3    8.11    0.41
  -9   3  -3    8.55    0.40
  -9  -4  -3    0.53    0.15
   9   4  -3    0.63    0.17
   9  -4   3    0.50    0.15
  -9   4   3    0.74    0.18
  -9  -4   3    0.80    0.18
   9  -4  -3    0.56    0.17
   9   4   3    0.47    0.15
  -9   4  -3    0.64    0.16
  -9   0  -4   58.17    1.21
   9   0  -4   58.70    1.38
   9   0   4   55.86    1.38
  -9   0   4   58.12    1.36
  -9   0   4   57.68    1.24
  -9   0  -4   55.56    1.36
   9   0  -4   57.31    1.24
   9   0   4   58.06    1.22
   9   1  -4    1.49    0.20
   9   1  -4    0.39    0.09
   9  -1   4    0.46    0.12
  -9   1   4    0.43    0.10
  -9  -1  -4    0.37    0.11
  -9   1   4    0.67    0.14
   9   1   4    0.38    0.09
  -9  -1   4    0.59    0.12
  -9   1  -4    0.52    0.12
   9   1   4    0.44    0.12
   9  -1  -4    0.34    0.11
  -9   1  -4    0.49    0.09
  -9   2   4   43.02    1.06
   9   2  -4   41.09    1.10
  -9  -2  -4   41.17    1.06
  -9   2   4   39.01    1.06
   9   2  -4   40.62    1.05
   9  -2   4   41.63    1.09
  -9   2  -4   40.67    1.03
   9   2   4   41.99    1.13
   9  -2  -4   40.96    1.10
   9   2   4   41.47    1.02
  -9  -2   4   41.42    1.08
  -9   2  -4   40.63    1.09
   9   3  -4    1.37    0.20
   9  -3   4    1.61    0.22
  -9  -3  -4    1.62    0.21
  -9   3   4    1.39    0.20
   9   3   4    1.15    0.18
  -9   3  -4    1.05    0.18
   9  -3  -4    1.60    0.23
  -9   3  -4    1.27    0.20
   9   3   4    1.35    0.22
  -9  -3   4    1.21    0.20
  -9   0  -5   84.57    1.68
   9   0  -5   82.97    1.89
   9   0  -5   80.52    1.69
  -9   0   5   82.56    1.69
  -9   0  -5   80.55    1.85
   9   0   5   81.00    1.88
  -9   0   5   82.53    1.86
   9   1  -5   23.75    0.76
   9  -1   5   22.73    0.73
  -9  -1  -5   22.84    0.71
  -9   1   5   24.00    0.74
   9   1  -5   23.04    0.63
  -9   1   5   21.91    0.63
   9   1   5   23.90    0.62
  -9  -1   5   21.90    0.70
   9   1   5   22.57    0.74
   9  -1  -5   21.88    0.72
  -9   1  -5   22.50    0.72
  -9   1  -5   23.03    0.62
  -9   2   5   64.73    1.48
   9   2  -5   61.18    1.56
   9   2  -5   62.91    1.48
  -9   2   5   61.30    1.53
   9  -2   5   63.12    1.53
  -9  -2  -5   64.56    1.52
   9   2   5   62.84    1.58
   9  -2  -5   64.04    1.55
  -9   2  -5   62.94    1.54
  -9   2  -5   64.73    1.47
   9   2   5   63.22    1.45
  -9  -2   5   62.41    1.51
   9  -3   5   14.21    0.58
  -9  -3  -5   14.16    0.55
   9   3  -5   14.40    0.56
  -9   3   5   13.54    0.55
   9   3  -5   14.31    0.58
  -9   3  -5   14.12    0.59
   9   3   5   14.64    0.62
  -9   3  -5   13.97    0.54
   9  -3  -5   13.08    0.57
  -9  -3   5   14.05    0.57
   9   3   5   13.26    0.52
  -9   0  -6    0.44    0.12
   9   0  -6    0.33    0.12
  -9   0   6    0.32    0.07
   9   0   6    0.41    0.13
  -9   0   6    0.20    0.10
   9   0  -6    0.29    0.08
   9   1  -6    4.86    0.25
  -9  -1  -6    5.05    0.31
  -9   1   6    5.46    0.33
   9  -1   6    4.89    0.32
   9   1  -6    4.96    0.34
  -9   1   6    5.09    0.25
   9   1   6    4.92    0.33
   9  -1  -6    4.92    0.32
   9   1   6    5.37    0.25
  -9   1  -6    5.19    0.32
  -9   1  -6    5.16    0.25
  -9  -1   6    5.43    0.32
   9   2  -6    0.60    0.13
  -9  -2  -6    0.46    0.14
  -9   2   6    0.62    0.16
   9  -2   6    0.77    0.17
  -9   2   6    0.41    0.12
   9   2  -6    0.53    0.16
  -9   2  -6    0.49    0.12
  -9  -2   6    0.67    0.16
   9  -2  -6    0.52    0.14
   9   2   6    0.74    0.14
   9   2   6    0.60    0.16
  -9   2  -6    0.58    0.15
  -9   3   6    3.26    0.32
   9  -3   6    2.94    0.31
  -9  -3  -6    2.66    0.28
   9   3  -6    3.12    0.33
   9   3  -6    3.05    0.27
  -9   3   6    2.99    0.26
  -9  -3   6    3.20    0.31
   9   3   6    2.96    0.25
  -9   3  -6    3.05    0.26
   9  -3  -6    3.27    0.29
  -9   3  -6    2.88    0.32
   9   3   6    3.77    0.37
  -9   0  -7   30.51    0.90
   9   0  -7   30.71    0.94
   9   0   7   30.93    0.93
  -9   0   7   29.72    0.91
  -9   1   7   72.72    1.62
  -9  -1  -7   73.16    1.76
   9   1  -7   75.45    1.63
   9   1  -7   76.57    1.83
  -9   1   7   75.34    1.78
   9  -1   7   73.48    1.79
   9   1   7   74.15    1.81
   9   1   7   76.19    1.62
   9  -1  -7   73.49    1.78
  -9   1  -7   74.43    1.78
  -9  -1   7   75.13    1.77
  -9   1  -7   75.30    1.62
   9   2  -7   24.95    0.87
  -9   2   7   25.71    0.84
  -9  -2  -7   25.23    0.82
   9  -2   7   25.37    0.84
  -9   2   7   24.81    0.75
   9   2  -7   27.34    0.76
  -9  -2   7   25.36    0.82
   9   2   7   25.45    0.87
   9  -2  -7   25.19    0.84
  -9   2  -7   24.99    0.85
   9   2   7   24.72    0.73
  -9   2  -7   24.13    0.74
  -9   3   7   55.79    1.40
  -9   3   7   52.15    1.44
   9   3  -7   54.31    1.49
   9   3  -7   53.99    1.39
  -9  -3  -7   53.55    1.42
   9  -3   7   53.78    1.47
  -9  -3   7   54.85    1.44
  -9   3  -7   53.90    1.39
   9   3   7   54.64    1.52
   9   3   7   53.43    1.36
   9  -3  -7   56.29    1.47
  -9   3  -7   53.84    1.47
   9   0   8    8.72    0.46
  -9   0  -8    8.44    0.44
   9   0  -8    9.50    0.48
  -9   0   8    9.47    0.46
  -9   1   8   52.80    1.35
  -9  -1  -8   50.11    1.34
   9  -1   8   49.58    1.35
   9   1  -8   53.20    1.40
  -9   1   8   51.40    1.19
   9   1  -8   51.19    1.19
  -9   1  -8   52.91    1.37
   9   1   8   49.10    1.17
  -9  -1   8   49.32    1.33
   9   1   8   51.13    1.38
  -9   1  -8   49.59    1.18
   9  -1  -8   50.84    1.36
  -9   2   8    8.60    0.47
  -9   2   8    8.83    0.40
   9   2  -8    8.09    0.48
   9   2  -8    8.96    0.40
  -9  -2  -8    8.31    0.45
   9  -2   8    8.57    0.46
  -9  -2   8    8.51    0.45
   9  -2  -8    8.54    0.46
  -9   2  -8    9.16    0.48
   9   2   8    8.48    0.49
  -9   2  -8    8.86    0.40
   9   2   8    8.30    0.38
  -9   3   8   34.37    1.00
  -9   3   8   32.86    1.07
   9   3  -8   31.92    1.09
   9   3  -8   33.79    1.00
   9  -3   8   33.84    1.08
  -9  -3  -8   34.37    1.05
  -9   3  -8   33.27    1.08
  -9   3  -8   35.14    1.01
  -9  -3   8   32.88    1.04
   9   3   8   33.37    1.11
   9   3   8   35.11    0.99
   9  -3  -8   33.47    1.07
  -9   0   9    9.51    0.48
   9   0   9   10.32    0.51
   9   0  -9    9.47    0.50
  -9   0  -9    9.42    0.48
   9  -1   9    7.83    0.45
  -9  -1  -9    8.19    0.44
  -9   1   9    7.76    0.34
  -9   1   9    8.37    0.45
   9   1  -9    8.32    0.47
  -9  -1   9    8.25    0.45
  -9   1  -9    8.42    0.46
   9   1   9    8.09    0.46
   9   1   9    7.96    0.34
   9  -1  -9    7.57    0.44
   9   2  -9    7.93    0.49
  -9  -2  -9    7.59    0.44
   9   2  -9    7.91    0.38
   9  -2   9    7.71    0.45
  -9   2   9    7.30    0.37
  -9   2   9    8.48    0.47
   9  -2  -9    8.07    0.45
   9   2   9    7.77    0.37
   9   2   9    7.96    0.50
  -9   2  -9    8.04    0.39
  -9   2  -9    7.27    0.46
  -9  -2   9    7.58    0.43
   9   0 -10   50.73    1.41
   9   0  10   51.40    1.41
  -9   0  10   49.47    1.38
  -9   0 -10   49.95    1.38
   9  -1  10   20.90    0.79
  -9  -1 -10   20.12    0.76
  -9   1  10   21.43    0.79
   9   1 -10   21.64    0.82
   9  -1 -10   20.02    0.78
  -9  -1  10   19.58    0.76
   9   1  10   21.93    0.81
  -9   1 -10   20.28    0.78
   9   2 -10   40.34    1.08
   9  -2  10   40.86    1.23
   9   2 -10   40.98    1.28
  -9   2  10   39.33    1.08
  -9  -2 -10   38.86    1.19
  -9   2  10   41.50    1.23
   9   2  10   39.88    1.08
  -9   2 -10   40.02    1.09
   9   2  10   40.30    1.28
  -9   2 -10   41.45    1.26
  -9  -2  10   40.01    1.20
   9  -2 -10   41.87    1.23
   9   0  11   21.44    0.82
   9   0 -11   21.77    0.83
  -9   0  11   21.33    0.79
  -9   0 -11   21.81    0.81
   9   1 -11   16.66    0.73
  -9  -1 -11   16.58    0.69
  -9   1  11   16.37    0.70
   9  -1  11   16.96    0.71
  -9  -1  11   16.60    0.70
   9   1  11   15.49    0.70
  -9   1 -11   17.13    0.72
   9  -1 -11   17.19    0.71
  10   0   0   92.86    2.05
 -10   0   0   98.62    2.05
 -10   0   0   98.64    2.02
  10   0   0   98.50    2.05
 -10  -1   0    0.33    0.09
 -10   1   0    0.33    0.10
 -10   1   0    0.47    0.10
  10   1   0    0.54    0.12
  10  -1   0    0.63    0.12
  10  -1   0    0.46    0.11
  10   1   0    0.39    0.10
 -10  -1   0    0.54    0.11
 -10   2   0   79.67    1.82
  10  -2   0   81.15    1.74
 -10  -2   0   80.75    1.80
 -10  -2   0   80.74    1.71
  10  -2   0   79.67    1.82
  10   2   0   78.07    1.83
 -10  -3   0    0.48    0.14
  10   3   0    0.54    0.15
 -10   3   0    0.57    0.14
  10  -3   0    0.52    0.14
  10   4   0   47.11    1.37
 -10   4   0   49.77    1.37
  10  -4   0   49.15    1.36
 -10  -4   0   49.98    1.35
 -10   0  -1    6.47    0.31
  10   0   1    6.92    0.29
 -10   0   1    6.97    0.30
 -10   0  -1    6.50    0.27
  10   0   1    6.36    0.31
  10   0  -1    6.73    0.29
  10   0  -1    6.59    0.31
 -10   0   1    7.05    0.29
  10   1  -1   10.77    0.44
 -10  -1  -1   11.03    0.40
 -10   1   1   11.58    0.42
 -10  -1  -1   11.40    0.41
 -10   1   1   11.69    0.42
  10   1  -1   11.22    0.42
  10  -1   1   11.02    0.41
  10  -1   1   11.95    0.43
 -10   1  -1   11.19    0.43
  10  -1  -1   11.57    0.38
  10   1   1   11.50    0.44
 -10  -1   1   11.82    0.38
  10  -1  -1   11.41    0.43
 -10  -1   1   11.51    0.42
 -10   2   1    5.46    0.31
  10  -2   1    5.82    0.32
 -10  -2  -1    6.45    0.29
 -10  -2  -1    6.35    0.32
  10   2  -1    6.37    0.34
  10  -2   1    5.91    0.30
 -10  -2   1    6.21    0.32
  10  -2  -1    6.15    0.33
  10   2   1    6.04    0.34
  10   3  -1    9.06    0.45
 -10   3   1    9.37    0.44
  10  -3   1    9.31    0.45
 -10  -3  -1    8.69    0.42
 -10  -3   1    8.91    0.44
  10   3   1    9.17    0.46
 -10   3  -1    9.42    0.46
  10  -3  -1    8.91    0.45
  10   0   2   33.82    0.80
  10   0  -2   32.55    0.81
  10   0  -2   33.21    0.88
 -10   0  -2   32.21    0.77
  10   0   2   30.90    0.86
 -10   0  -2   32.15    0.86
 -10   0   2   32.65    0.80
 -10   0   2   33.10    0.86
  10   1  -2   85.06    1.99
  10  -1   2   92.52    1.97
 -10   1   2   89.99    1.93
  10   1  -2   86.44    1.92
  10  -1   2   88.38    1.91
 -10   1   2   89.65    1.95
 -10  -1  -2   91.48    1.90
 -10  -1  -2   88.22    1.93
 -10   1  -2   89.23    1.97
  10  -1  -2   94.15    1.86
 -10  -1   2   94.54    1.85
 -10  -1   2   87.78    1.94
  10   1   2   89.33    1.99
  10  -1  -2   89.04    1.97
 -10  -2  -2   26.80    0.75
  10  -2   2   26.44    0.76
 -10   2   2   25.99    0.77
 -10  -2  -2   26.07    0.75
  10  -2   2   26.19    0.76
  10   2  -2   26.17    0.77
  10  -2  -2   25.03    0.78
 -10  -2   2   24.88    0.76
 -10   2  -2   26.08    0.79
  10   2   2   25.29    0.80
  10  -3   2   50.69    1.31
  10  -3   2   48.80    1.25
 -10   3   2   50.77    1.32
  10   3  -2   51.70    1.33
 -10  -3  -2   49.73    1.29
  10  -3  -2   49.58    1.33
  10   3   2   50.33    1.36
 -10  -3   2   51.44    1.31
 -10   3  -2   51.08    1.34
 -10   0   3    4.73    0.23
  10   0   3    4.36    0.27
 -10   0   3    4.76    0.27
 -10   0  -3    4.46    0.21
  10   0   3    4.41    0.21
 -10   0  -3    4.44    0.27
  10   0  -3    4.38    0.22
  10   0  -3    4.25    0.28
 -10  -1  -3   73.41    1.60
 -10  -1  -3   74.57    1.67
  10  -1   3   72.76    1.68
 -10   1   3   75.58    1.69
  10  -1   3   75.15    1.61
  10   1  -3   72.93    1.63
  10   1  -3   72.45    1.72
 -10   1   3   72.82    1.62
  10   1   3   73.05    1.72
  10  -1  -3   74.38    1.53
 -10  -1   3   71.45    1.65
 -10  -1   3   75.03    1.53
  10  -1  -3   74.07    1.69
 -10   1  -3   74.05    1.70
 -10  -2  -3    3.35    0.24
  10  -2   3    3.19    0.25
 -10   2   3    3.23    0.24
 -10  -2  -3    3.44    0.24
 -10   2   3    3.10    0.25
  10  -2   3    3.36    0.24
  10   2  -3    3.25    0.24
  10   2  -3    3.68    0.26
  10   2   3    4.07    0.30
  10  -2  -3    2.81    0.25
 -10  -2   3    4.01    0.27
 -10   2  -3    3.04    0.25
 -10   3   3   53.19    1.33
  10  -3   3   51.02    1.29
  10   3  -3   49.07    1.31
 -10  -3  -3   49.30    1.24
  10  -3   3   51.59    1.32
 -10  -3  -3   49.80    1.29
 -10  -3   3   50.56    1.32
 -10   3  -3   49.43    1.33
  10  -3  -3   50.01    1.35
  10   3   3   49.63    1.37
  10   0  -4   78.54    1.68
 -10   0  -4   81.80    1.65
  10   0  -4   80.19    1.83
 -10   0   4   80.75    1.68
  10   0   4   81.20    1.84
 -10   0   4   80.29    1.80
 -10   0  -4   76.88    1.80
 -10   1   4    2.87    0.20
  10   1  -4    3.22    0.27
  10  -1   4    3.13    0.20
 -10  -1  -4    3.11    0.20
 -10   1   4    2.98    0.25
  10   1  -4    3.12    0.21
 -10  -1  -4    2.97    0.23
  10  -1   4    3.12    0.24
  10  -1  -4    3.38    0.26
  10   1   4    3.10    0.25
 -10   1  -4    4.06    0.27
 -10  -1   4    3.27    0.24
  10  -2   4   61.55    1.47
 -10   2   4   57.22    1.45
  10   2  -4   55.98    1.47
  10   2  -4   61.88    1.43
 -10   2   4   57.61    1.41
 -10  -2  -4   62.08    1.45
 -10  -2   4   58.40    1.46
  10  -2  -4   60.64    1.49
 -10   2  -4   60.73    1.49
  10   2   4   60.79    1.52
  10  -3   4    1.84    0.24
 -10  -3  -4    1.74    0.22
 -10  -3  -4    1.43    0.20
  10   3  -4    1.90    0.24
 -10   3   4    1.95    0.24
 -10   3  -4    1.74    0.25
 -10  -3   4    1.62    0.23
 -10   3  -4    1.88    0.23
  10  -3  -4    1.64    0.24
  10   3   4    1.80    0.27
 -10   0   5   22.24    0.72
  10   0  -5   21.80    0.58
  10   0   5   22.87    0.74
 -10   0   5   22.05    0.58
  10   0  -5   22.92    0.75
 -10   0  -5   22.17    0.72
  10   1  -5   30.23    0.80
 -10  -1  -5   31.15    0.90
  10  -1   5   31.32    0.91
 -10   1   5   30.84    0.91
  10   1  -5   31.70    0.95
 -10   1   5   31.56    0.81
  10   1   5   30.04    0.92
  10  -1  -5   31.05    0.91
 -10   1  -5   30.45    0.91
 -10  -1   5   31.26    0.90
  10   2  -5   17.63    0.68
  10  -2   5   18.89    0.66
  10   2  -5   17.98    0.61
 -10  -2  -5   18.68    0.64
 -10   2   5   19.17    0.62
 -10   2   5   17.91    0.66
  10   2   5   18.33    0.58
 -10   2  -5   18.34    0.67
  10  -2  -5   17.70    0.66
 -10  -2   5   16.93    0.63
  10   2   5   17.64    0.68
 -10   2  -5   18.01    0.59
  10   3  -5   22.22    0.75
  10  -3   5   21.84    0.76
 -10  -3  -5   20.92    0.73
 -10   3   5   23.00    0.76
 -10  -3   5   20.30    0.75
 -10   3  -5   20.79    0.72
  10   3   5   21.08    0.81
  10   3   5   21.58    0.71
  10  -3  -5   22.09    0.79
 -10   3  -5   23.23    0.80
  10   0   6   93.27    2.16
 -10   0   6   95.09    2.14
 -10   0  -6   95.06    2.14
  10   0  -6   93.56    2.17
  10  -1   6   10.44    0.49
 -10   1   6   10.79    0.48
 -10   1   6   10.51    0.40
  10   1  -6   11.63    0.53
  10   1  -6   11.27    0.41
 -10  -1  -6   10.11    0.47
 -10   1  -6   10.96    0.49
 -10  -1   6   11.05    0.48
  10   1   6   10.92    0.39
  10  -1  -6   10.45    0.49
 -10   1  -6   10.49    0.39
  10   1   6   11.67    0.52
 -10  -2  -6   78.06    1.81
 -10   2   6   76.47    1.74
  10  -2   6   76.98    1.83
 -10   2   6   74.96    1.84
  10   2  -6   77.18    1.74
  10   2  -6   72.75    1.87
 -10  -2   6   74.99    1.81
 -10   2  -6   76.92    1.72
  10   2   6   79.67    1.90
 -10   2  -6   76.31    1.84
  10   2   6   74.47    1.69
  10  -2  -6   71.22    1.82
  10   3  -6    8.55    0.44
  10  -3   6    9.33    0.48
 -10  -3  -6    8.41    0.44
 -10   3   6    8.23    0.43
  10   3  -6    8.16    0.47
 -10   3  -6    8.96    0.49
 -10  -3   6    8.58    0.46
 -10   3  -6    8.48    0.43
  10   3   6    8.97    0.43
  10  -3  -6    9.03    0.49
  10   3   6    8.45    0.50
  10   0  -7    7.64    0.43
 -10   0   7    7.74    0.42
 -10   0  -7    8.14    0.42
  10   0   7    7.56    0.43
  10  -1   7    0.09    0.10
  10   1  -7    0.12    0.12
 -10   1   7    0.25    0.09
 -10  -1  -7    0.19    0.12
  10   1  -7    0.07    0.08
 -10   1   7    0.09    0.10
 -10   1  -7    0.27    0.12
  10   1   7    0.22    0.12
  10   1   7    0.37    0.10
 -10  -1   7    0.08    0.10
  10  -1  -7    0.32    0.13
 -10   1  -7    0.26    0.09
 -10  -2  -7    5.59    0.36
 -10   2   7    5.82    0.32
  10  -2   7    5.26    0.36
  10   2  -7    5.92    0.33
 -10   2   7    5.55    0.38
  10   2  -7    5.94    0.41
 -10  -2   7    5.88    0.37
  10   2   7    5.34    0.39
 -10   2  -7    5.84    0.39
 -10   2  -7    5.90    0.32
  10   2   7    5.83    0.31
  10  -2  -7    5.79    0.38
 -10   3   7    0.08    0.10
 -10   3   7    0.20    0.14
  10  -3   7    0.21    0.14
 -10  -3  -7   -0.03    0.09
  10   3  -7    0.20    0.12
  10   3  -7    0.18    0.13
 -10   3  -7    0.26    0.12
  10   3   7    0.18    0.11
 -10  -3   7    0.18    0.13
  10  -3  -7    0.49    0.16
  10   3   7    0.08    0.14
 -10   3  -7    0.14    0.13
  10   0   8    6.45    0.41
  10   0  -8    6.51    0.41
 -10   0   8    6.61    0.40
 -10   0  -8    6.42    0.39
 -10   1   8   46.45    1.12
 -10   1   8   46.23    1.27
  10   1  -8   47.48    1.33
 -10  -1  -8   46.13    1.28
  10  -1   8   45.18    1.28
  10  -1  -8   44.65    1.28
  10   1   8   45.42    1.10
 -10  -1   8   47.56    1.28
  10   1   8   46.37    1.31
 -10   1  -8   46.80    1.28
 -10   2   8    6.15    0.34
 -10  -2  -8    5.97    0.39
 -10   2   8    6.27    0.41
  10   2  -8    6.75    0.35
  10   2  -8    6.51    0.45
  10  -2   8    6.14    0.40
 -10  -2   8    5.89    0.39
 -10   2  -8    5.91    0.41
  10   2   8    6.98    0.46
 -10   2  -8    6.04    0.34
  10   2   8    5.94    0.33
  10  -2  -8    6.46    0.41
 -10   0  -9   19.03    0.72
  10   0  -9   19.01    0.75
 -10   0   9   19.15    0.73
  10   0   9   20.36    0.77
  10  -1   9    0.77    0.18
 -10   1   9    0.75    0.18
  10   1  -9    0.84    0.20
 -10  -1  -9    0.99    0.19
  10  -1  -9    1.19    0.22
  10   1   9    0.95    0.21
 -10   1  -9    0.62    0.18
 -10  -1   9    1.05    0.21
 -10   2   9   16.64    0.59
 -10   2   9   16.34    0.70
  10  -2   9   14.95    0.67
  10   2  -9   16.14    0.58
  10   2  -9   16.05    0.73
 -10  -2  -9   15.37    0.66
 -10   2  -9   15.13    0.57
  10  -2  -9   16.68    0.69
 -10  -2   9   15.85    0.66
 -10   2  -9   17.17    0.72
  10   2   9   16.00    0.73
  10   2   9   15.63    0.57
 -10   0 -10    8.77    0.48
 -10   0  10    8.06    0.47
  10   0 -10    8.43    0.49
  10   0  10    9.03    0.51
 -10   1  10    2.20    0.30
  10   1 -10    1.97    0.29
  10  -1  10    1.79    0.27
 -10  -1 -10    2.14    0.28
  10   1  10    2.31    0.31
 -10   1 -10    1.70    0.27
  10  -1 -10    2.24    0.30
 -10  -1  10    1.79    0.26
  10   0  11   10.19    0.55
 -10   0 -11    9.15    0.51
  10   0 -11    9.61    0.54
 -10   0  11    8.84    0.50
 -11   0   0    0.09    0.07
 -11   0   0    0.06    0.07
  11   0   0    0.19    0.08
  11   0   0    0.11    0.08
 -11  -1   0    0.03    0.06
 -11   1   0   -0.07    0.06
  11  -1   0    0.07    0.08
  11   1   0    0.00    0.07
  11  -1   0    0.03    0.06
 -11  -1   0    0.02    0.07
 -11  -2   0    0.10    0.09
  11  -2   0   -0.03    0.07
  11   2   0    0.00    0.08
 -11   2   0    0.05    0.08
  11  -2   0    0.09    0.08
  11  -3   0   -0.03    0.08
  11   3   0   -0.08    0.08
 -11   3   0    0.01    0.09
 -11  -3   0    0.13    0.10
 -11   0   1    2.34    0.19
  11   0   1    2.20    0.19
  11   0   1    2.09    0.18
 -11   0   1    2.27    0.18
 -11   0  -1    2.19    0.17
  11   0  -1    2.26    0.20
 -11   0  -1    2.06    0.19
  11   0  -1    1.93    0.17
 -11  -1  -1    6.65    0.31
 -11  -1  -1    6.09    0.30
 -11   1   1    6.70    0.32
  11   1  -1    6.03    0.34
  11  -1   1    6.65    0.31
 -11   1   1    6.63    0.32
  11   1  -1    6.61    0.32
  11  -1   1    6.20    0.31
 -11   1  -1    5.90    0.31
  11  -1  -1    6.46    0.29
  11  -1  -1    6.47    0.33
 -11  -1   1    6.53    0.32
  11   1   1    6.30    0.33
 -11  -1   1    6.84    0.29
 -11   2   1    1.47    0.20
  11  -2   1    1.14    0.17
  11   2  -1    0.80    0.15
 -11  -2  -1    1.56    0.18
  11  -2   1    1.38    0.18
 -11  -2  -1    1.46    0.19
  11  -2  -1    1.07    0.18
 -11   2  -1    1.04    0.18
  11   2   1    1.20    0.19
 -11  -2   1    0.92    0.16
  11   3  -1    5.35    0.36
 -11  -3  -1    6.95    0.38
  11  -3   1    5.69    0.36
 -11   3   1    5.69    0.36
  11   3   1    5.62    0.38
 -11  -3   1    6.36    0.38
  11  -3  -1    6.18    0.38
 -11   3  -1    5.90    0.37
  11   0  -2   68.56    1.51
  11   0   2   69.79    1.50
 -11   0   2   68.23    1.51
 -11   0  -2   69.37    1.48
 -11   0  -2   68.55    1.57
  11   0  -2   67.66    1.59
  11   0   2   66.59    1.58
 -11   0   2   69.83    1.57
 -11   1   2   69.20    1.59
  11   1  -2   69.73    1.57
 -11   1   2   67.55    1.55
 -11  -1  -2   69.51    1.58
 -11  -1  -2   68.84    1.53
  11   1  -2   67.90    1.63
  11  -1   2   66.86    1.59
  11  -1   2   71.05    1.55
  11  -1  -2   74.65    1.51
 -11  -1   2   66.84    1.58
  11  -1  -2   65.10    1.59
 -11  -1   2   69.97    1.48
 -11   1  -2   66.24    1.59
  11   1   2   68.18    1.61
  11  -2   2   53.50    1.31
  11  -2   2   55.37    1.32
  11   2  -2   52.50    1.33
 -11  -2  -2   53.70    1.28
 -11  -2  -2   54.42    1.30
 -11   2   2   53.72    1.33
  11   2   2   52.46    1.37
 -11  -2   2   51.98    1.32
  11  -2  -2   52.58    1.35
 -11   2  -2   52.28    1.35
  11   3  -2   41.80    1.19
 -11   3   2   42.10    1.18
  11  -3   2   43.26    1.18
 -11  -3  -2   42.03    1.16
  11  -3   2   43.06    1.14
 -11   3  -2   43.72    1.22
  11   3   2   44.37    1.25
 -11  -3   2   42.18    1.18
  11  -3  -2   42.95    1.20
 -11   0  -3    0.53    0.13
 -11   0   3    0.39    0.09
  11   0  -3    0.81    0.15
  11   0   3    0.66    0.14
  11   0  -3    0.46    0.10
 -11   0  -3    0.53    0.10
 -11   0   3    0.66    0.14
 -11   1   3    0.61    0.14
 -11  -1  -3    0.57    0.13
 -11   1   3    0.69    0.13
  11   1  -3    0.68    0.15
  11  -1   3    0.78    0.15
 -11  -1  -3    0.54    0.11
  11  -1   3    0.60    0.12
  11   1  -3    0.46    0.11
 -11  -1   3    0.58    0.13
  11  -1  -3    0.68    0.15
  11   1   3    0.34    0.12
 -11   1  -3    0.23    0.10
 -11  -2  -3    0.43    0.12
 -11  -2  -3    0.47    0.12
  11  -2   3    0.20    0.10
  11  -2   3    0.40    0.13
  11   2  -3    0.16    0.09
 -11   2   3    0.24    0.10
  11   2   3    0.21    0.12
 -11  -2   3    0.35    0.12
  11  -2  -3    0.29    0.12
 -11   2  -3    0.21    0.11
 -11   3   3    0.70    0.16
 -11  -3  -3    0.79    0.15
  11  -3   3    0.76    0.17
 -11  -3  -3    0.41    0.14
  11   3  -3    0.64    0.16
  11  -3   3    0.53    0.15
  11   3   3    0.64    0.17
 -11  -3   3    0.76    0.17
 -11   3  -3    0.59    0.17
  11  -3  -3    0.46    0.15
 -11   0  -4   91.14    2.07
 -11   0   4   94.64    1.95
  11   0  -4   94.74    2.12
  11   0  -4   92.28    1.95
 -11   0   4   93.39    2.08
  11   0   4   93.11    2.10
  11   1  -4   24.17    0.69
 -11   1   4   22.98    0.68
  11  -1   4   24.76    0.78
  11  -1   4   23.84    0.67
 -11  -1  -4   24.46    0.67
 -11   1   4   24.98    0.78
  11   1  -4   24.82    0.81
 -11  -1  -4   24.04    0.74
  11   1   4   23.22    0.77
 -11   1  -4   23.34    0.76
  11  -1  -4   23.57    0.77
 -11  -1   4   23.89    0.75
 -11  -2  -4   78.00    1.76
  11   2  -4   72.24    1.85
  11  -2   4   76.69    1.82
 -11   2   4   77.40    1.78
 -11  -2  -4   78.11    1.81
  11  -2   4   79.36    1.78
  11   2  -4   78.74    1.79
  11  -2  -4   78.41    1.86
 -11   2  -4   75.38    1.84
  11   2   4   80.09    1.90
 -11  -2   4   78.41    1.83
  11  -3   4   14.47    0.59
  11   3  -4   14.99    0.60
 -11   3   4   14.84    0.60
  11  -3   4   15.38    0.60
 -11  -3  -4   14.52    0.57
 -11  -3  -4   15.11    0.59
  11  -3  -4   15.57    0.65
  11   3   4   15.54    0.67
 -11  -3   4   15.48    0.62
 -11   3  -4   13.93    0.62
 -11   0   5   15.38    0.46
 -11   0   5   15.95    0.59
  11   0   5   14.42    0.58
  11   0  -5   15.53    0.61
 -11   0  -5   15.86    0.59
  11   1  -5   18.98    0.71
  11   1  -5   18.69    0.59
 -11  -1  -5   19.27    0.67
 -11   1   5   19.38    0.59
  11  -1   5   19.63    0.58
 -11   1   5   19.89    0.68
  11  -1   5   19.35    0.68
 -11  -1  -5   18.45    0.56
 -11   1  -5   17.77    0.66
  11   1   5   19.19    0.70
 -11  -1   5   18.66    0.66
  11  -1  -5   18.73    0.68
 -11  -2  -5   11.17    0.49
  11   2  -5   10.81    0.54
 -11  -2  -5   11.24    0.45
  11   2  -5   11.28    0.47
 -11   2   5   10.39    0.51
  11  -2   5   11.81    0.52
 -11   2   5   10.90    0.46
  11   2   5   12.30    0.56
 -11   2  -5   11.61    0.53
 -11  -2   5   11.34    0.50
  11  -2  -5   11.62    0.52
  11   3  -5   16.57    0.64
  11  -3   5   15.78    0.64
 -11   3   5   15.50    0.62
 -11  -3  -5   15.92    0.62
 -11  -3  -5   15.41    0.60
 -11  -3   5   16.29    0.66
  11   3   5   16.50    0.71
 -11   3  -5   16.69    0.68
  11  -3  -5   16.41    0.68
  11   0   6   44.99    1.24
  11   0  -6   45.89    1.26
 -11   0   6   45.38    1.22
 -11   0  -6   44.40    1.22
 -11   1   6    0.05    0.08
  11   1  -6    0.07    0.12
 -11   1   6    0.34    0.13
  11  -1   6    0.15    0.11
  11   1  -6    0.12    0.08
 -11  -1  -6    0.14    0.11
  11   1   6    0.14    0.12
 -11  -1   6    0.05    0.10
 -11   1  -6    0.23    0.12
  11  -1  -6    0.22    0.12
  11   2  -6   32.53    1.07
 -11   2   6   33.47    1.04
  11   2  -6   33.16    0.94
  11  -2   6   34.33    1.03
 -11   2   6   33.88    0.94
 -11  -2  -6   33.87    1.00
  11   2   6   33.09    1.07
 -11  -2   6   33.39    1.01
  11   2   6   33.72    0.91
 -11   2  -6   33.35    1.03
 -11   2  -6   34.61    0.93
  11  -2  -6   33.97    1.04
 -11  -3  -6    0.55    0.16
  11   3  -6    0.22    0.12
 -11   3   6    0.15    0.11
  11  -3   6    0.21    0.13
 -11   3  -6    0.16    0.12
 -11  -3   6    0.16    0.12
  11   3   6    0.08    0.10
  11  -3  -6    0.30    0.14
  11   3   6    0.21    0.15
 -11   3  -6    0.20    0.11
  11   0  -7   26.03    0.89
  11   0   7   27.02    0.90
 -11   0   7   27.28    0.88
 -11   0  -7   26.17    0.87
  11   1  -7   30.73    0.82
  11   1  -7   31.39    1.01
 -11   1   7   31.32    0.83
 -11  -1  -7   30.38    0.95
  11  -1   7   29.87    0.96
 -11   1   7   31.30    0.96
  11  -1  -7   29.62    0.95
  11   1   7   30.76    0.80
 -11   1  -7   31.84    0.98
  11   1   7   30.64    0.99
 -11  -1   7   29.81    0.94
  11   2  -7   19.15    0.65
 -11   2   7   19.46    0.65
 -11  -2  -7   19.39    0.72
  11  -2   7   19.84    0.74
 -11   2   7   18.89    0.74
  11   2  -7   17.77    0.76
  11  -2  -7   19.65    0.75
 -11   2  -7   18.31    0.73
  11   2   7   18.86    0.62
  11   2   7   18.81    0.77
 -11  -2   7   18.40    0.71
 -11   2  -7   18.85    0.63
  11   0   8   21.17    0.80
 -11   0  -8   20.06    0.76
 -11   0   8   22.09    0.79
  11   0  -8   21.43    0.80
 -11   1   8   11.69    0.55
  11  -1   8   11.79    0.56
  11   1  -8   11.54    0.58
 -11  -1  -8   11.72    0.54
  11   1   8   11.86    0.58
  11  -1  -8   10.75    0.54
 -11  -1   8   10.74    0.53
 -11   1  -8   11.84    0.56
  11  -2   8   15.81    0.68
 -11   2   8   16.71    0.70
 -11  -2  -8   16.45    0.67
 -11   2   8   15.65    0.58
  11   2  -8   15.33    0.72
  11   2  -8   16.13    0.58
  11  -2  -8   16.19    0.69
  11   2   8   15.99    0.57
 -11   2  -8   14.83    0.67
 -11   2  -8   16.46    0.58
 -11  -2   8   16.84    0.68
  11   2   8   17.12    0.74
  11   0   9    9.70    0.53
  11   0  -9    9.71    0.53
 -11   0   9    9.58    0.51
 -11   0  -9    8.61    0.49
  11   1  -9    5.14    0.40
 -11   1   9    4.47    0.36
 -11  -1  -9    4.67    0.36
  11  -1   9    4.52    0.36
 -11   1  -9    5.57    0.40
  11   1   9    5.36    0.40
 -11  -1   9    4.78    0.37
  11  -1  -9    4.49    0.37
 -11   0 -10   40.64    1.22
 -11   0  10   38.86    1.20
  11   0  10   40.62    1.25
  11   0 -10   38.94    1.22
  11  -1  10    0.24    0.15
 -11  -1 -10    0.26    0.13
 -11   1  10    0.18    0.13
  11   1 -10    0.38    0.17
  11   1  10    0.15    0.14
  11  -1 -10    0.25    0.15
 -11  -1  10    0.35    0.15
 -11   1 -10    0.28    0.16
 -12   0   0   81.86    1.83
 -12   0   0   84.28    1.81
  12   0   0   84.85    1.85
  12   0   0   82.55    1.85
 -12  -1   0   31.77    0.83
  12  -1   0   31.07    0.87
  12  -1   0   31.39    0.84
  12   1   0   31.16    0.88
 -12  -1   0   30.30    0.84
 -12   1   0   31.65    0.88
  12   2   0   66.40    1.64
  12  -2   0   67.44    1.63
 -12   2   0   67.11    1.63
 -12  -2   0   69.82    1.61
 -12  -3   0   20.71    0.73
  12  -3   0   21.08    0.76
 -12   3   0   19.65    0.73
  12   3   0   19.86    0.76
 -12   0   1    3.42    0.24
 -12   0  -1    3.38    0.22
 -12   0  -1    3.34    0.24
  12   0   1    3.26    0.23
  12   0  -1    3.60    0.23
  12   0   1    3.28    0.24
 -12   0   1    2.93    0.21
  12   0  -1    3.44    0.25
 -12  -1  -1   47.92    1.18
 -12   1   1   47.49    1.21
  12  -1   1   49.69    1.21
  12  -1   1   50.27    1.21
  12   1  -1   47.19    1.21
 -12  -1  -1   50.02    1.19
 -12  -1   1   49.52    1.21
 -12  -1   1   52.48    1.17
 -12   1  -1   47.40    1.22
  12  -1  -1   48.63    1.23
  12   1   1   48.22    1.24
  12  -1  -1   50.28    1.17
 -12  -2  -1    2.22    0.23
  12   2  -1    2.26    0.25
 -12   2   1    2.07    0.24
  12  -2   1    2.32    0.25
 -12  -2  -1    2.75    0.27
  12  -2   1    2.62    0.23
 -12  -2   1    2.60    0.26
  12   2   1    2.03    0.24
 -12   2  -1    2.28    0.26
  12  -2  -1    1.92    0.24
  12  -3   1   32.70    0.99
  12   3  -1   32.00    0.99
 -12  -3  -1   30.45    0.95
 -12   3   1   30.78    0.97
 -12  -3   1   30.94    0.96
 -12   3  -1   31.16    0.99
  12   3   1   31.34    1.01
  12  -3  -1   30.95    0.98
 -12   0   2   24.62    0.69
  12   0  -2   25.69    0.77
  12   0  -2   24.22    0.69
 -12   0  -2   23.69    0.74
  12   0   2   24.09    0.75
 -12   0   2   24.89    0.74
 -12  -1  -2    0.81    0.14
  12  -1   2    0.78    0.14
  12  -1   2    0.89    0.16
 -12  -1  -2    0.73    0.14
 -12   1   2    0.94    0.15
  12   1  -2    0.82    0.15
  12   1  -2    1.06    0.19
 -12   1   2    1.11    0.17
 -12   1  -2    0.51    0.13
 -12  -1   2    0.72    0.14
  12   1   2    0.90    0.16
  12  -1  -2    0.79    0.16
  12  -1  -2    0.89    0.14
 -12   2   2   20.46    0.70
 -12  -2  -2   20.95    0.68
  12  -2   2   21.39    0.70
  12  -2   2   23.74    0.72
 -12  -2  -2   21.59    0.67
  12   2  -2   21.29    0.71
  12  -2  -2   20.39    0.72
 -12  -2   2   20.61    0.71
 -12   2  -2   19.67    0.71
  12  -3   2    0.79    0.18
 -12  -3  -2    0.92    0.18
 -12   3   2    0.87    0.18
  12   3  -2    0.80    0.18
  12  -3  -2    0.88    0.20
 -12  -3   2    0.76    0.17
  12   3   2    0.75    0.19
 -12   3  -2    0.66    0.17
 -12   0   3    0.92    0.16
  12   0   3    0.19    0.10
 -12   0   3    0.34    0.09
  12   0  -3    0.45    0.13
 -12   0  -3    0.27    0.11
  12   0  -3    0.27    0.09
 -12  -1  -3   75.05    1.73
  12  -1   3   72.90    1.66
  12   1  -3   75.82    1.79
 -12   1   3   74.25    1.68
  12  -1   3   75.16    1.75
  12   1  -3   72.17    1.68
 -12  -1  -3   74.41    1.65
 -12   1   3   76.13    1.74
  12   1   3   73.67    1.77
 -12  -1   3   72.32    1.71
 -12   1  -3   72.59    1.74
  12  -1  -3   71.84    1.73
  12   2  -3    0.22    0.10
  12  -2   3    0.11    0.09
 -12   2   3    0.03    0.08
 -12  -2  -3    0.30    0.12
 -12  -2  -3    0.06    0.09
  12  -2   3    0.10    0.10
 -12   2  -3    0.17    0.11
  12   2   3    0.19    0.11
  12  -2  -3    0.06    0.10
 -12  -2   3    0.03    0.09
 -12   3   3   55.33    1.46
 -12  -3  -3   55.50    1.43
  12   3  -3   56.50    1.48
  12  -3   3   55.18    1.42
  12  -3   3   54.02    1.44
  12  -3  -3   55.96    1.51
  12   3   3   57.98    1.55
 -12   3  -3   55.67    1.49
 -12  -3   3   55.26    1.47
  12   0  -4    2.54    0.18
  12   0  -4    2.74    0.29
  12   0   4    2.75    0.28
 -12   0  -4    2.22    0.25
 -12   0   4    2.48    0.18
 -12   0   4    3.01    0.25
 -12   1   4    2.72    0.28
  12   1  -4    3.39    0.34
  12  -1   4    2.27    0.27
  12   1  -4    2.70    0.22
 -12  -1  -4    2.25    0.21
 -12  -1  -4    2.33    0.26
 -12   1   4    2.56    0.21
  12  -1   4    2.93    0.21
  12   1   4    2.53    0.29
  12  -1  -4    2.13    0.25
 -12   1  -4    2.24    0.25
 -12  -1   4    2.22    0.25
  12  -2   4    2.69    0.24
 -12   2   4    2.07    0.24
 -12  -2  -4    2.43    0.27
  12   2  -4    2.38    0.25
 -12  -2  -4    2.28    0.24
  12  -2   4    3.16    0.31
 -12  -2   4    2.40    0.27
  12  -2  -4    2.31    0.27
  12   2   4    1.78    0.25
 -12   2  -4    2.70    0.30
 -12  -3  -4    2.27    0.26
  12  -3   4    2.03    0.26
 -12  -3  -4    2.03    0.25
  12  -3   4    1.96    0.26
  12   3  -4    1.68    0.24
 -12   3   4    1.54    0.24
 -12  -3   4    1.81    0.26
 -12   3  -4    1.83    0.27
  12  -3  -4    1.91    0.27
  12   3   4    1.43    0.25
  12   0   5   39.76    1.12
 -12   0   5   40.44    1.11
 -12   0  -5   38.01    1.09
  12   0  -5   39.06    1.13
 -12   1   5   23.55    0.70
  12   1  -5   23.15    0.70
  12   1  -5   24.39    0.84
 -12   1   5   25.42    0.81
  12  -1   5   25.63    0.83
 -12  -1  -5   24.85    0.70
 -12  -1  -5   22.74    0.77
  12   1   5   24.10    0.82
 -12   1  -5   24.37    0.81
 -12  -1   5   23.92    0.79
  12  -1  -5   24.00    0.81
  12  -2   5   31.25    0.96
 -12  -2  -5   30.47    0.87
  12  -2   5   29.28    0.87
 -12  -2  -5   29.85    0.92
  12   2  -5   29.36    0.88
 -12   2   5   31.31    0.89
  12   2  -5   26.12    0.95
 -12  -2   5   30.00    0.94
  12   2   5   30.37    0.99
 -12   2  -5   30.09    0.96
  12  -2  -5   31.03    0.97
 -12   0   6   54.29    1.41
  12   0   6   53.71    1.42
  12   0  -6   54.42    1.45
 -12   0  -6   51.89    1.39
 -12  -1  -6    1.24    0.21
 -12   1   6    1.65    0.24
  12   1  -6    1.51    0.26
  12   1  -6    2.02    0.21
  12  -1   6    1.83    0.26
 -12   1   6    1.74    0.20
  12  -1  -6    1.68    0.24
 -12   1  -6    1.82    0.25
 -12  -1   6    1.80    0.25
  12   1   6    1.16    0.21
 -12   2   6   45.73    1.31
  12  -2   6   45.49    1.29
  12  -2   6   46.36    1.19
 -12  -2  -6   46.02    1.18
 -12   2   6   46.28    1.20
  12   2  -6   44.14    1.35
  12   2  -6   46.26    1.20
 -12  -2  -6   45.75    1.27
  12  -2  -6   45.48    1.31
 -12   2  -6   47.34    1.31
  12   2   6   44.50    1.33
 -12  -2   6   46.10    1.29
  12   0   7    1.15    0.22
  12   0  -7    1.34    0.24
 -12   0  -7    1.05    0.20
 -12   0   7    1.10    0.21
 -12   1   7    7.26    0.35
 -12   1   7    8.36    0.46
 -12  -1  -7    8.14    0.44
  12  -1   7    7.25    0.44
  12   1  -7    7.72    0.47
 -12   1  -7    8.10    0.46
  12   1   7    7.56    0.46
  12  -1  -7    6.59    0.42
 -12  -1   7    7.81    0.44
 -12   2   7    0.77    0.20
  12   2  -7    0.76    0.21
 -12   2   7    1.15    0.18
  12   2  -7    0.67    0.16
  12  -2   7    0.76    0.18
 -12  -2  -7    1.01    0.20
  12  -2  -7    0.61    0.18
  12   2   7    0.79    0.20
 -12  -2   7    1.04    0.21
 -12   2  -7    0.90    0.21
 -12   0   8   46.94    1.34
 -12   0  -8   47.47    1.35
  12   0  -8   49.72    1.40
  12   0   8   46.77    1.36
 -12   1   8    0.44    0.16
  12  -1   8    0.23    0.15
 -12  -1  -8    0.40    0.15
  12   1  -8    0.62    0.19
  12   1   8    0.40    0.17
  12  -1  -8    0.13    0.13
 -12   1  -8    0.64    0.18
 -12  -1   8    0.47    0.16
  12   0  -9    0.87    0.21
  12   0   9    0.90    0.21
 -12   0  -9    0.63    0.18
 -12   0   9    0.64    0.17
  12   1  -9  101.52    2.45
  12  -1   9   98.90    2.42
 -12  -1  -9   98.04    2.38
 -12   1   9  102.64    2.39
 -12   1  -9   98.28    2.40
 -12  -1   9   98.05    2.39
  12  -1  -9   98.82    2.41
  12   1   9  103.43    2.44
 -13   0   0    0.08    0.08
 -13   0   0    0.04    0.08
  13   0   0    0.01    0.08
  13   0   0    0.10    0.09
  13   1   0    0.00    0.08
 -13  -1   0   -0.01    0.07
 -13  -1   0    0.05    0.08
  13  -1   0   -0.04    0.07
  13  -1   0    0.13    0.09
 -13   1   0    0.17    0.10
 -13   2   0    0.17    0.11
  13   2   0    0.07    0.09
 -13  -2   0    0.09    0.10
  13  -2   0   -0.02    0.09
  13   3   0    0.01    0.10
 -13  -3   0    0.09    0.12
 -13   3   0   -0.02    0.09
  13  -3   0    0.08    0.12
 -13   0   1    1.95    0.22
  13   0   1    2.35    0.25
 -13   0   1    2.03    0.21
 -13   0  -1    2.20    0.23
  13   0  -1    2.14    0.22
  13   0  -1    2.11    0.24
 -13  -1  -1   95.30    2.07
 -13  -1  -1   96.11    2.06
 -13   1   1   91.77    2.08
  13  -1   1   95.89    2.08
  13  -1   1   94.32    2.08
  13   1  -1   91.75    2.09
  13   1   1   90.37    2.11
 -13  -1   1   95.93    2.02
  13  -1  -1   96.97    2.04
  13  -1  -1   93.46    2.11
 -13   1  -1   92.77    2.10
 -13  -1   1   92.08    2.09
 -13  -2  -1    1.38    0.21
 -13   2   1    1.44    0.22
  13   2  -1    1.51    0.22
  13  -2   1    1.57    0.22
  13  -2   1    1.52    0.20
  13  -2  -1    1.44    0.23
  13   2   1    1.35    0.22
 -13   2  -1    1.42    0.22
 -13  -2   1    1.24    0.20
  13   3  -1   67.99    1.74
 -13   3   1   67.17    1.72
 -13  -3  -1   66.68    1.69
  13  -3   1   67.14    1.71
  13  -3  -1   67.14    1.73
 -13   3  -1   67.62    1.73
 -13  -3   1   67.57    1.70
  13   3   1   66.43    1.76
 -13   0  -2   59.39    1.47
  13   0   2   59.13    1.48
 -13   0   2   62.80    1.42
 -13   0   2   61.95    1.47
  13   0  -2   62.05    1.51
  13   0  -2   60.29    1.41
  13  -1   2    4.63    0.31
 -13  -1  -2    5.61    0.30
  13  -1   2    5.38    0.31
 -13   1   2    4.72    0.29
 -13  -1  -2    5.92    0.32
  13   1  -2    5.76    0.32
  13  -1  -2    5.72    0.34
  13   1   2    4.81    0.33
 -13  -1   2    5.73    0.33
 -13   1  -2    5.42    0.33
 -13  -2  -2   53.26    1.31
  13   2  -2   52.87    1.36
 -13  -2  -2   52.09    1.31
  13  -2   2   53.99    1.34
  13  -2   2   52.48    1.33
 -13   2   2   51.82    1.34
  13   2   2   48.60    1.37
  13  -2  -2   51.32    1.38
 -13   2  -2   48.69    1.35
 -13  -2   2   51.54    1.35
  13   3  -2    4.93    0.36
 -13  -3  -2    4.47    0.34
 -13   3   2    4.51    0.35
  13  -3   2    4.13    0.33
 -13  -3   2    4.80    0.36
  13  -3  -2    4.17    0.35
  13   3   2    4.89    0.38
 -13   3  -2    3.89    0.34
 -13   0   3    7.61    0.34
  13   0  -3    7.16    0.40
  13   0   3    7.09    0.39
 -13   0   3    7.53    0.39
 -13   0  -3    6.96    0.38
  13   0  -3    8.09    0.35
  13  -1   3    4.92    0.32
  13  -1   3    5.34    0.29
 -13  -1  -3    4.90    0.31
  13   1  -3    4.55    0.29
 -13   1   3    4.19    0.28
  13   1  -3    4.65    0.34
 -13   1   3    5.20    0.35
 -13  -1  -3    4.34    0.27
  13   1   3    5.07    0.34
 -13   1  -3    4.90    0.32
  13  -1  -3    5.30    0.34
 -13  -1   3    4.66    0.31
  13  -2   3    5.44    0.34
 -13   2   3    4.99    0.33
 -13  -2  -3    5.83    0.34
  13  -2   3    5.60    0.35
 -13  -2  -3    5.57    0.33
  13   2  -3    4.71    0.33
  13   2   3    5.09    0.37
 -13  -2   3    5.69    0.36
  13  -2  -3    5.68    0.38
 -13   2  -3    5.36    0.36
  13   0   4   14.73    0.59
 -13   0  -4   13.88    0.56
  13   0  -4   14.28    0.59
 -13   0   4   15.08    0.58
  13   1  -4   36.52    1.10
 -13   1   4   33.91    0.95
 -13   1   4   37.00    1.05
  13   1  -4   36.26    0.97
 -13  -1  -4   37.09    0.95
  13  -1   4   34.40    1.03
 -13  -1  -4   35.72    1.03
  13   1   4   35.65    1.07
 -13   1  -4   34.85    1.04
 -13  -1   4   36.49    1.04
  13  -1  -4   35.92    1.06
  13   2  -4   12.90    0.54
 -13   2   4   13.21    0.54
  13  -2   4   13.49    0.57
  13  -2   4   13.24    0.53
 -13  -2  -4   12.63    0.52
 -13  -2  -4   13.64    0.55
 -13  -2   4   12.53    0.56
  13  -2  -4   13.40    0.59
 -13   2  -4   13.08    0.58
  13   2   4   13.59    0.62
 -13   0   5    0.62    0.16
 -13   0  -5    0.57    0.15
  13   0  -5    0.48    0.15
  13   0   5    0.71    0.17
 -13   1   5   46.39    1.26
 -13  -1  -5   43.93    1.24
  13  -1   5   46.69    1.28
  13   1  -5   45.58    1.15
 -13   1   5   46.28    1.15
  13   1  -5   48.27    1.33
 -13   1  -5   44.30    1.26
  13   1   5   46.25    1.30
 -13  -1   5   44.78    1.25
  13  -1  -5   43.61    1.26
  13  -2   5    0.47    0.14
 -13  -2  -5    0.37    0.13
 -13   2   5    0.53    0.15
  13  -2   5    0.62    0.17
 -13  -2  -5    0.49    0.15
  13   2  -5    0.59    0.15
  13  -2  -5    0.45    0.16
 -13  -2   5    0.71    0.18
 -13   2  -5    0.46    0.16
  13   2   5    0.67    0.18
  13   0   6    1.62    0.24
 -13   0  -6    1.40    0.22
 -13   0   6    1.75    0.25
  13   0  -6    1.91    0.28
 -13   1   6    0.52    0.17
 -13   1   6    0.59    0.13
 -13  -1  -6    0.71    0.17
  13  -1   6    0.70    0.18
  13   1  -6    0.59    0.19
  13   1   6    0.91    0.20
 -13   1  -6    0.72    0.18
 -13  -1   6    0.50    0.15
  13  -1  -6    0.81    0.19
 -13  -2  -6    1.36    0.22
 -13  -2  -6    1.56    0.22
  13   2  -6    1.64    0.23
  13  -2   6    1.42    0.24
 -13   2   6    1.64    0.23
  13  -2   6    1.71    0.22
  13   2  -6    1.27    0.26
 -13  -2   6    1.39    0.24
 -13   2  -6    1.37    0.24
  13  -2  -6    1.38    0.25
  13   2   6    1.59    0.26
  13   0  -7    1.49    0.26
 -13   0   7    1.25    0.22
 -13   0  -7    1.83    0.27
  13   0   7    1.37    0.24
  13   1  -7   26.03    0.95
 -13   1   7   27.77    0.92
 -13  -1  -7   26.88    0.90
  13  -1   7   26.28    0.92
  13   1   7   26.01    0.93
 -13  -1   7   25.33    0.89
  13  -1  -7   26.49    0.92
 -13   1  -7   26.02    0.91
 -13   0  -8   52.07    1.45
  13   0  -8   51.07    1.47
 -13   0   8   51.40    1.44
  13   0   8   51.92    1.46
  13   1  -8   17.57    0.76
  13  -1   8   17.57    0.74
 -13  -1  -8   17.32    0.71
 -13   1   8   17.54    0.72
  13  -1  -8   16.51    0.72
 -13  -1   8   17.21    0.72
 -13   1  -8   16.75    0.73
  13   1   8   18.40    0.76
 -14   0   0   30.77    0.87
  14   0   0   30.34    0.88
  14  -1   0    4.40    0.28
 -14  -1   0    4.18    0.27
 -14   1   0    4.31    0.30
 -14  -1   0    4.29    0.29
  14   1   0    4.40    0.31
  14  -1   0    4.33    0.31
  14  -2   0   27.86    0.89
  14   2   0   27.39    0.90
 -14  -2   0   27.07    0.86
 -14   2   0   27.79    0.88
  14   0   1    7.12    0.38
 -14   0   1    8.08    0.37
  14   0  -1    7.89    0.38
 -14   0   1    7.78    0.38
 -14   0  -1    7.54    0.38
  14   0  -1    7.71    0.40
 -14  -1  -1    1.10    0.18
 -14   1   1    0.86    0.17
  14   1  -1    0.93    0.17
  14  -1   1    1.10    0.18
 -14  -1  -1    0.63    0.14
  14  -1   1    0.75    0.16
  14  -1  -1    1.15    0.19
 -14  -1   1    0.87    0.17
 -14   1  -1    0.75    0.16
  14   1   1    0.62    0.16
 -14  -2  -1    6.26    0.37
  14   2  -1    5.80    0.37
 -14   2   1    5.72    0.37
  14  -2   1    6.21    0.38
  14   2   1    5.85    0.38
 -14  -2   1    6.29    0.38
  14  -2  -1    6.50    0.39
 -14   2  -1    6.35    0.39
  14   0   2   54.97    1.42
  14   0  -2   56.29    1.36
  14   0  -2   59.01    1.45
 -14   0   2   56.57    1.41
 -14   0  -2   56.48    1.43
 -14   0   2   58.09    1.36
  14  -1   2    6.29    0.36
  14   1  -2    6.44    0.36
 -14   1   2    6.70    0.36
 -14  -1  -2    6.56    0.34
  14  -1   2    6.63    0.35
 -14  -1  -2    6.87    0.37
 -14   1  -2    7.12    0.39
  14   1   2    6.62    0.38
 -14  -1   2    6.46    0.37
  14  -1  -2    6.46    0.38
  14   2  -2   45.62    1.25
 -14   2   2   46.31    1.24
  14  -2   2   46.02    1.21
 -14  -2  -2   44.94    1.20
  14  -2   2   45.69    1.23
  14   2   2   43.59    1.27
 -14   2  -2   44.21    1.26
  14  -2  -2   44.17    1.27
 -14  -2   2   46.89    1.26
  14   0  -3    6.98    0.34
 -14   0   3    7.21    0.39
  14   0  -3    6.59    0.39
 -14   0  -3    7.27    0.40
  14   0   3    6.57    0.38
 -14   0   3    6.06    0.32
  14   1  -3    4.95    0.31
 -14   1   3    4.26    0.29
 -14  -1  -3    4.78    0.30
 -14  -1  -3    4.72    0.32
  14  -1   3    4.88    0.33
  14  -1  -3    4.40    0.33
 -14  -1   3    4.97    0.33
 -14   1  -3    4.52    0.32
  14   1   3    4.33    0.32
 -14   2   3    6.35    0.38
  14   2  -3    5.81    0.37
 -14  -2  -3    5.61    0.36
  14  -2   3    6.26    0.39
 -14  -2  -3    6.62    0.38
  14  -2   3    6.73    0.38
 -14  -2   3    6.09    0.38
 -14   2  -3    6.65    0.41
  14   2   3    5.65    0.40
  14  -2  -3    6.11    0.41
 -14   0   4    4.91    0.34
 -14   0  -4    4.63    0.33
  14   0  -4    4.88    0.35
  14   0   4    4.49    0.33
 -14   1   4   19.16    0.64
  14   1  -4   19.22    0.64
 -14  -1  -4   18.19    0.68
  14  -1   4   18.46    0.69
  14   1  -4   20.52    0.77
  14   1   4   17.88    0.70
  14  -1  -4   18.26    0.70
 -14  -1   4   17.57    0.68
 -14   1  -4   17.71    0.69
  14  -2   4    3.96    0.32
 -14  -2  -4    3.30    0.28
 -14   2   4    3.93    0.30
 -14  -2  -4    3.89    0.31
  14  -2   4    3.86    0.30
  14   2  -4    3.43    0.29
 -14  -2   4    4.18    0.34
  14   2   4    3.65    0.39
 -14   2  -4    3.50    0.32
  14  -2  -4    3.69    0.33
 -14   0  -5   11.26    0.52
 -14   0   5   10.72    0.52
  14   0  -5   10.21    0.53
  14   0   5    9.85    0.51
 -14   1   5   21.49    0.69
  14   1  -5   21.73    0.70
 -14   1   5   22.87    0.80
 -14  -1  -5   21.36    0.77
  14   1  -5   22.50    0.84
  14  -1   5   21.67    0.79
 -14  -1   5   22.79    0.79
  14  -1  -5   21.23    0.79
  14   1   5   21.62    0.81
 -14   1  -5   22.30    0.80
  14   0   6   57.20    1.58
  14   0  -6   63.56    1.65
 -14   0   6   60.47    1.59
 -14   0  -6   59.97    1.58
 -14  -1  -6    8.79    0.49
 -14   1   6    9.67    0.51
  14   1  -6    9.25    0.53
  14  -1   6    9.60    0.51
 -14   1  -6    8.66    0.49
 -14  -1   6    8.84    0.48
  14  -1  -6    9.13    0.51
  14   1   6    9.12    0.52
 -14   0   7    0.20    0.13
  14   0   7    0.17    0.13
 -14   0  -7    0.03    0.10
  14   0  -7    0.01    0.12
  15   0   0   -0.02    0.09
 -15   0   0    0.01    0.08
  15  -1   0    0.21    0.11
 -15   1   0   -0.05    0.07
 -15  -1   0    0.06    0.10
  15   1   0    0.07    0.10
  15  -1   0    0.03    0.10
  15  -2   0   -0.01    0.10
 -15   2   0    0.05    0.11
  15   2   0   -0.01    0.10
 -15  -2   0    0.09    0.11
  15   0  -1   10.80    0.47
 -15   0   1   10.95    0.46
  15   0   1   10.26    0.47
 -15   0  -1   11.13    0.48
 -15  -1  -1   31.07    0.90
  15   1  -1   29.19    0.90
  15  -1   1   30.78    0.92
  15  -1   1   30.39    0.90
 -15  -1  -1   31.20    0.90
 -15   1   1   31.36    0.92
 -15   1  -1   29.21    0.92
  15  -1  -1   30.31    0.93
  15   1   1   29.41    0.93
 -15  -1   1   28.95    0.90
 -15  -2  -1    8.43    0.44
  15   2  -1    8.56    0.47
  15  -2   1   10.18    0.50
 -15   2   1    9.39    0.49
 -15   2  -1    9.13    0.49
 -15  -2   1    9.98    0.49
  15  -2  -1    9.21    0.49
  15   2   1    8.77    0.49
  15   0  -2   60.51    1.49
  15   0   2   55.59    1.46
  15   0  -2   56.13    1.38
 -15   0  -2   54.38    1.44
 -15   0   2   57.94    1.45
 -15   0   2   57.69    1.38
 -15   1   2   12.05    0.50
  15  -1   2   12.15    0.52
 -15  -1  -2   12.16    0.52
  15   1  -2   11.11    0.50
 -15  -1   2   11.26    0.52
  15   1   2   11.19    0.53
  15  -1  -2   11.98    0.54
 -15   1  -2   12.03    0.53
  15   0  -3    0.18    0.12
 -15   0   3    0.23    0.12
 -15   0  -3    0.13    0.10
  15   0   3    0.18    0.11
  15   1  -3    0.13    0.10
  15  -1   3    0.18    0.13
 -15  -1  -3    0.16    0.12
 -15   1   3   -0.02    0.09
 -15   1  -3    0.03    0.10
  15  -1  -3    0.13    0.12
 -15  -1   3   -0.10    0.09
  15   1   3    0.10    0.10
 -15   0   4   27.59    0.90
  15   0  -4   29.81    0.95
 -15   0  -4   26.35    0.89
  15   0   4   27.47    0.91
  15  -1   4   11.90    0.55
 -15  -1  -4   12.70    0.55
 -15   1   4   12.50    0.51
  15   1  -4   11.91    0.51
  15  -1  -4   12.64    0.58
  15   1   4   12.07    0.57
 -15  -1   4   12.22    0.56
 -15   1  -4   11.21    0.54
  15   0   5   30.92    1.01
  15   0  -5   32.75    1.05
 -15   0  -5   30.49    1.00
 -15   0   5   31.79    1.01
 -15  -1  -5   57.62    1.50
  15  -1   5   56.58    1.52
 -15   1   5   57.36    1.49
  15   1   5   58.46    1.56
 -15   1  -5   55.16    1.52
  15  -1  -5   55.84    1.53
 -15  -1   5   54.48    1.50
  16   0   0   14.52    0.58
 -16   0   0   15.08    0.58
 -16   1   0   20.53    0.74
  16   1   0   21.99    0.77
 -16  -1   0   21.08    0.73
 -16   0  -1   37.97    1.09
 -16   0   1   39.50    1.08
  16   0  -1   39.84    1.09
  16   0   1   39.17    1.11
  16  -1   1   15.52    0.60
 -16  -1  -1   16.02    0.60
  16   1  -1   15.13    0.61
 -16   1   1   15.12    0.61
  16  -1  -1   15.66    0.64
 -16  -1   1   15.86    0.62
 -16   1  -1   14.51    0.61
  16   1   1   14.68    0.62
 -16   0  -2    0.50    0.15
  16   0   2    1.12    0.20
 -16   1   2   25.64    0.84
  16   1  -2   26.47    0.85
 -16  -1  -2   27.15    0.86
  16  -1   2   26.16    0.86
 -16  -1   2   26.40    0.87
  16   1   2   26.32    0.89
 -16   1  -2   26.26    0.87
  16  -1  -2   26.53    0.89
  16   0   3   22.20    0.80
 -16   0  -3   22.15    0.79
   0   0   0    0.00    0.00
;
_shelx_hkl_checksum              20858
loop_
_space_group_symop_operation_xyz
'x, y, z'
'-x+1/2, -y, z+1/2'
'-x, y+1/2, -z'
'x+1/2, -y+1/2, -z+1/2'
'-x, -y, -z'
'x-1/2, y, -z-1/2'
'x, -y-1/2, z'
'-x-1/2, y-1/2, z-1/2'
loop_
_atom_site_label
_atom_site_type_symbol
_atom_site_fract_x
_atom_site_fract_y
_atom_site_fract_z
_atom_site_U_iso_or_equiv
_atom_site_adp_type
_atom_site_occupancy
_atom_site_site_symmetry_order
_atom_site_calc_flag
_atom_site_refinement_flags_posn
_atom_site_refinement_flags_adp
_atom_site_refinement_flags_occupancy
Th1 Th 0.29102(2) 0.2500 0.07640(2) 0.00325(7) Uani 1 2 d S T P
Cu1 Cu 0.00241(5) 0.2500 0.59368(5) 0.00591(13) Uani 1 2 d S T P
Cu2 Cu 0.31358(5) 0.2500 0.36409(6) 0.00625(13) Uani 1 2 d S T P
Cu3 Cu 0.32380(5) 0.2500 0.78259(5) 0.00595(13) Uani 1 2 d S T P
Cu4 Cu 0.56037(5) 0.2500 0.54245(6) 0.00526(13) Uani 1 2 d S T P
Cu5A Cu 0.0459(4) 0.2500 0.2000(3) 0.0133(15) Uani 0.68(5) 2 d S T P
Cu5B Cu 0.026(2) 0.2500 0.2114(16) 0.063(4) Uani 0.32(5) 2 d S T P
P1 P 0.11301(10) 0.2500 0.40299(12) 0.0047(2) Uani 1 2 d S T P
P2 P 0.13261(10) 0.2500 0.75671(12) 0.0045(2) Uani 1 2 d S T P
P3 P 0.37808(10) 0.2500 0.57349(11) 0.0044(2) Uani 1 2 d S T P
loop_
_atom_site_aniso_label
_atom_site_aniso_U_11
_atom_site_aniso_U_22
_atom_site_aniso_U_33
_atom_site_aniso_U_23
_atom_site_aniso_U_13
_atom_site_aniso_U_12
Th1 0.00359(10) 0.00324(11) 0.00293(10) 0.000 0.00009(6) 0.000
Cu1 0.0043(3) 0.0064(3) 0.0070(3) 0.000 -0.0002(2) 0.000
Cu2 0.0099(3) 0.0049(3) 0.0039(3) 0.000 -0.0002(2) 0.000
Cu3 0.0056(3) 0.0080(3) 0.0043(3) 0.000 -0.0003(2) 0.000
Cu4 0.0045(3) 0.0055(3) 0.0058(3) 0.000 -0.0003(2) 0.000
Cu5A 0.0208(14) 0.013(2) 0.0061(11) 0.000 -0.0058(8) 0.000
Cu5B 0.048(5) 0.112(11) 0.029(3) 0.000 -0.021(3) 0.000
P1 0.0054(6) 0.0045(6) 0.0043(5) 0.000 0.0000(5) 0.000
P2 0.0048(5) 0.0049(6) 0.0039(5) 0.000 0.0003(4) 0.000
P3 0.0042(5) 0.0050(6) 0.0040(6) 0.000 -0.0004(4) 0.000
loop_
_atom_type_symbol
_atom_type_description
_atom_type_scat_dispersion_real
_atom_type_scat_dispersion_imag
_atom_type_scat_source
P P 0.1023 0.0942 'International Tables Vol C Tables 4.2.6.8 and 6.1.1.4'
Cu Cu 0.3201 1.2651 'International Tables Vol C Tables 4.2.6.8 and 6.1.1.4'
Th Th -7.2400 8.8979 'International Tables Vol C Tables 4.2.6.8 and 6.1.1.4'
loop_
_geom_angle_atom_site_label_1
_geom_angle_atom_site_label_2
_geom_angle_atom_site_label_3
_geom_angle
_geom_angle_site_symmetry_1
_geom_angle_site_symmetry_3
P3 Th1 P3 84.02(3) 2_554 2_564
P3 Th1 P2 134.34(3) 2_554 2_564
P3 Th1 P2 79.07(3) 2_564 2_564
P3 Th1 P2 79.07(3) 2_554 2_554
P3 Th1 P2 134.34(3) 2_564 2_554
P2 Th1 P2 83.20(3) 2_564 2_554
P3 Th1 P1 82.04(3) 2_554 2_554
P3 Th1 P1 137.47(3) 2_564 2_554
P2 Th1 P1 136.21(3) 2_564 2_554
P2 Th1 P1 81.57(3) 2_554 2_554
P3 Th1 P1 137.47(3) 2_554 2_564
P3 Th1 P1 82.04(3) 2_564 2_564
P2 Th1 P1 81.57(3) 2_564 2_564
P2 Th1 P1 136.21(3) 2_554 2_564
P1 Th1 P1 81.69(3) 2_554 2_564
P3 Th1 Cu2 94.53(2) 2_554 .
P3 Th1 Cu2 94.53(2) 2_564 .
P2 Th1 Cu2 45.787(19) 2_564 .
P2 Th1 Cu2 45.787(19) 2_554 .
P1 Th1 Cu2 126.44(2) 2_554 .
P1 Th1 Cu2 126.44(2) 2_564 .
P3 Th1 Cu4 46.79(2) 2_554 6_556
P3 Th1 Cu4 46.79(2) 2_564 6_556
P2 Th1 Cu4 125.03(2) 2_564 6_556
P2 Th1 Cu4 125.03(2) 2_554 6_556
P1 Th1 Cu4 97.03(3) 2_554 6_556
P1 Th1 Cu4 97.03(3) 2_564 6_556
Cu2 Th1 Cu4 118.961(17) . 6_556
P3 Th1 Cu3 94.92(2) 2_554 1_554
P3 Th1 Cu3 94.92(2) 2_564 1_554
P2 Th1 Cu3 128.37(2) 2_564 1_554
P2 Th1 Cu3 128.37(2) 2_554 1_554
P1 Th1 Cu3 46.96(2) 2_554 1_554
P1 Th1 Cu3 46.96(2) 2_564 1_554
Cu2 Th1 Cu3 167.280(18) . 1_554
Cu4 Th1 Cu3 73.758(16) 6_556 1_554
P3 Th1 Cu1 127.35(2) 2_554 6_656
P3 Th1 Cu1 127.35(2) 2_564 6_656
P2 Th1 Cu1 95.97(3) 2_564 6_656
P2 Th1 Cu1 95.97(3) 2_554 6_656
P1 Th1 Cu1 45.69(2) 2_554 6_656
P1 Th1 Cu1 45.69(2) 2_564 6_656
Cu2 Th1 Cu1 119.170(17) . 6_656
Cu4 Th1 Cu1 121.869(16) 6_556 6_656
Cu3 Th1 Cu1 48.110(16) 1_554 6_656
P3 Th1 Cu1 173.80(2) 2_554 2_564
P3 Th1 Cu1 101.601(18) 2_564 2_564
P2 Th1 Cu1 45.64(3) 2_564 2_564
P2 Th1 Cu1 95.02(2) 2_554 2_564
P1 Th1 Cu1 95.32(2) 2_554 2_564
P1 Th1 Cu1 46.98(3) 2_564 2_564
Cu2 Th1 Cu1 82.491(14) . 2_564
Cu4 Th1 Cu1 139.357(9) 6_556 2_564
Cu3 Th1 Cu1 87.274(14) 1_554 2_564
Cu1 Th1 Cu1 50.920(14) 6_656 2_564
P3 Th1 Cu1 101.601(18) 2_554 2_554
P3 Th1 Cu1 173.80(2) 2_564 2_554
P2 Th1 Cu1 95.02(2) 2_564 2_554
P2 Th1 Cu1 45.64(3) 2_554 2_554
P1 Th1 Cu1 46.98(3) 2_554 2_554
P1 Th1 Cu1 95.32(2) 2_564 2_554
Cu2 Th1 Cu1 82.491(14) . 2_554
Cu4 Th1 Cu1 139.357(9) 6_556 2_554
Cu3 Th1 Cu1 87.274(14) 1_554 2_554
Cu1 Th1 Cu1 50.920(14) 6_656 2_554
Cu1 Th1 Cu1 72.668(13) 2_564 2_554
P3 Th1 Cu2 45.38(3) 2_554 2_554
P3 Th1 Cu2 94.94(2) 2_564 2_554
P2 Th1 Cu2 173.82(2) 2_564 2_554
P2 Th1 Cu2 102.241(17) 2_554 2_554
P1 Th1 Cu2 48.52(3) 2_554 2_554
P1 Th1 Cu2 96.21(2) 2_564 2_554
Cu2 Th1 Cu2 137.196(9) . 2_554
Cu4 Th1 Cu2 49.338(12) 6_556 2_554
Cu3 Th1 Cu2 50.126(12) 1_554 2_554
Cu1 Th1 Cu2 86.453(14) 6_656 2_554
Cu1 Th1 Cu2 135.571(16) 2_564 2_554
Cu1 Th1 Cu2 90.921(12) 2_554 2_554
P3 Th1 Cu2 94.94(2) 2_554 2_564
P3 Th1 Cu2 45.38(3) 2_564 2_564
P2 Th1 Cu2 102.241(18) 2_564 2_564
P2 Th1 Cu2 173.82(2) 2_554 2_564
P1 Th1 Cu2 96.21(2) 2_554 2_564
P1 Th1 Cu2 48.52(3) 2_564 2_564
Cu2 Th1 Cu2 137.196(9) . 2_564
Cu4 Th1 Cu2 49.338(12) 6_556 2_564
Cu3 Th1 Cu2 50.126(12) 1_554 2_564
Cu1 Th1 Cu2 86.453(14) 6_656 2_564
Cu1 Th1 Cu2 90.921(13) 2_564 2_564
Cu1 Th1 Cu2 135.571(16) 2_554 2_564
Cu2 Th1 Cu2 72.182(13) 2_554 2_564
P3 Th1 Cu3 94.10(2) 2_554 2_564
P3 Th1 Cu3 44.38(2) 2_564 2_564
P2 Th1 Cu3 45.88(3) 2_564 2_564
P2 Th1 Cu3 94.80(2) 2_554 2_564
P1 Th1 Cu3 175.124(17) 2_554 2_564
P1 Th1 Cu3 103.183(17) 2_564 2_564
Cu2 Th1 Cu3 50.652(12) . 2_564
Cu4 Th1 Cu3 82.353(14) 6_556 2_564
Cu3 Th1 Cu3 136.821(9) 1_554 2_564
Cu1 Th1 Cu3 138.437(10) 6_656 2_564
Cu1 Th1 Cu3 88.221(13) 2_564 2_564
Cu1 Th1 Cu3 131.682(15) 2_554 2_564
Cu2 Th1 Cu3 129.854(16) 2_554 2_564
Cu2 Th1 Cu3 87.066(13) 2_564 2_564
P3 Th1 Cu3 44.38(2) 2_554 2_554
P3 Th1 Cu3 94.10(2) 2_564 2_554
P2 Th1 Cu3 94.80(2) 2_564 2_554
P2 Th1 Cu3 45.88(3) 2_554 2_554
P1 Th1 Cu3 103.183(17) 2_554 2_554
P1 Th1 Cu3 175.124(17) 2_564 2_554
Cu2 Th1 Cu3 50.652(12) . 2_554
Cu4 Th1 Cu3 82.353(14) 6_556 2_554
Cu3 Th1 Cu3 136.821(9) 1_554 2_554
Cu1 Th1 Cu3 138.437(10) 6_656 2_554
Cu1 Th1 Cu3 131.681(15) 2_564 2_554
Cu1 Th1 Cu3 88.221(13) 2_554 2_554
Cu2 Th1 Cu3 87.066(13) 2_554 2_554
Cu2 Th1 Cu3 129.854(16) 2_564 2_554
Cu3 Th1 Cu3 71.942(13) 2_564 2_554
P3 Th1 Cu5A 47.29(3) 2_554 .
P3 Th1 Cu5A 47.29(3) 2_564 .
P2 Th1 Cu5A 92.38(4) 2_564 .
P2 Th1 Cu5A 92.38(4) 2_554 .
P1 Th1 Cu5A 128.98(3) 2_554 .
P1 Th1 Cu5A 128.98(3) 2_564 .
Cu2 Th1 Cu5A 72.01(5) . .
Cu4 Th1 Cu5A 46.95(5) 6_556 .
Cu3 Th1 Cu5A 120.71(5) 1_554 .
Cu1 Th1 Cu5A 168.82(5) 6_656 .
Cu1 Th1 Cu5A 135.70(3) 2_564 .
Cu1 Th1 Cu5A 135.70(3) 2_554 .
Cu2 Th1 Cu5A 84.52(4) 2_554 .
Cu2 Th1 Cu5A 84.52(4) 2_564 .
Cu3 Th1 Cu5A 47.61(3) 2_564 .
Cu3 Th1 Cu5A 47.61(3) 2_554 .
P3 Th1 Cu5B 47.38(6) 2_554 .
P3 Th1 Cu5B 47.38(6) 2_564 .
P2 Th1 Cu5B 92.22(11) 2_564 .
P2 Th1 Cu5B 92.22(11) 2_554 .
P1 Th1 Cu5B 129.10(8) 2_554 .
P1 Th1 Cu5B 129.10(8) 2_564 .
Cu2 Th1 Cu5B 71.79(14) . .
Cu4 Th1 Cu5B 47.17(14) 6_556 .
Cu3 Th1 Cu5B 120.93(14) 1_554 .
Cu1 Th1 Cu5B 169.04(14) 6_656 .
Cu1 Th1 Cu5B 135.58(8) 2_564 .
Cu1 Th1 Cu5B 135.58(8) 2_554 .
Cu2 Th1 Cu5B 84.70(12) 2_554 .
Cu2 Th1 Cu5B 84.70(12) 2_564 .
Cu3 Th1 Cu5B 47.47(9) 2_564 .
Cu3 Th1 Cu5B 47.47(9) 2_554 .
Cu5A Th1 Cu5B 0.22(19) . .
P3 Th1 Cu5B 126.55(9) 2_554 6_656
P3 Th1 Cu5B 126.55(9) 2_564 6_656
P2 Th1 Cu5B 47.77(7) 2_564 6_656
P2 Th1 Cu5B 47.77(7) 2_554 6_656
P1 Th1 Cu5B 93.45(12) 2_554 6_656
P1 Th1 Cu5B 93.45(12) 2_564 6_656
Cu2 Th1 Cu5B 47.18(16) . 6_656
Cu4 Th1 Cu5B 166.14(16) 6_556 6_656
Cu3 Th1 Cu5B 120.11(16) 1_554 6_656
Cu1 Th1 Cu5B 71.99(16) 6_656 6_656
Cu1 Th1 Cu5B 47.79(10) 2_564 6_656
Cu1 Th1 Cu5B 47.79(10) 2_554 6_656
Cu2 Th1 Cu5B 138.34(8) 2_554 6_656
Cu2 Th1 Cu5B 138.34(7) 2_564 6_656
Cu3 Th1 Cu5B 86.44(13) 2_564 6_656
Cu3 Th1 Cu5B 86.44(13) 2_554 6_656
Cu5A Th1 Cu5B 119.2(2) . 6_656
Cu5B Th1 Cu5B 118.97(13) . 6_656
P3 Th1 Th1 47.991(17) 2_554 1_545
P3 Th1 Th1 132.009(17) 2_564 1_545
P2 Th1 Th1 131.598(17) 2_564 1_545
P2 Th1 Th1 48.402(17) 2_554 1_545
P1 Th1 Th1 49.154(16) 2_554 1_545
P1 Th1 Th1 130.846(16) 2_564 1_545
Cu2 Th1 Th1 90.0 . 1_545
Cu4 Th1 Th1 90.0 6_556 1_545
Cu3 Th1 Th1 90.0 1_554 1_545
Cu1 Th1 Th1 90.0 6_656 1_545
Cu1 Th1 Th1 126.334(7) 2_564 1_545
Cu1 Th1 Th1 53.666(7) 2_554 1_545
Cu2 Th1 Th1 53.909(6) 2_554 1_545
Cu2 Th1 Th1 126.091(7) 2_564 1_545
Cu3 Th1 Th1 125.971(6) 2_564 1_545
Cu3 Th1 Th1 54.029(6) 2_554 1_545
Cu5A Th1 Th1 90.0 . 1_545
Cu5B Th1 Th1 90.0 . 1_545
Cu5B Th1 Th1 90.000(1) 6_656 1_545
P3 Th1 Th1 132.009(17) 2_554 1_565
P3 Th1 Th1 47.991(17) 2_564 1_565
P2 Th1 Th1 48.402(17) 2_564 1_565
P2 Th1 Th1 131.598(17) 2_554 1_565
P1 Th1 Th1 130.846(16) 2_554 1_565
P1 Th1 Th1 49.154(16) 2_564 1_565
Cu2 Th1 Th1 90.0 . 1_565
Cu4 Th1 Th1 90.0 6_556 1_565
Cu3 Th1 Th1 90.0 1_554 1_565
Cu1 Th1 Th1 90.0 6_656 1_565
Cu1 Th1 Th1 53.666(7) 2_564 1_565
Cu1 Th1 Th1 126.334(7) 2_554 1_565
Cu2 Th1 Th1 126.091(7) 2_554 1_565
Cu2 Th1 Th1 53.909(7) 2_564 1_565
Cu3 Th1 Th1 54.029(6) 2_564 1_565
Cu3 Th1 Th1 125.971(6) 2_554 1_565
Cu5A Th1 Th1 90.0 . 1_565
Cu5B Th1 Th1 90.0 . 1_565
Cu5B Th1 Th1 90.000(1) 6_656 1_565
Th1 Th1 Th1 180.0 1_545 1_565
P3 Th1 P2 67.48(3) 2_554 1_554
P3 Th1 P2 67.48(3) 2_564 1_554
P2 Th1 P2 138.264(16) 2_564 1_554
P2 Th1 P2 138.264(16) 2_554 1_554
P1 Th1 P2 70.05(3) 2_554 1_554
P1 Th1 P2 70.05(3) 2_564 1_554
Cu2 Th1 P2 155.08(2) . 1_554
Cu4 Th1 P2 36.12(2) 6_556 1_554
Cu3 Th1 P2 37.64(2) 1_554 1_554
Cu1 Th1 P2 85.75(2) 6_656 1_554
Cu1 Th1 P2 116.967(17) 2_564 1_554
Cu1 Th1 P2 116.967(17) 2_554 1_554
Cu2 Th1 P2 36.091(6) 2_554 1_554
Cu2 Th1 P2 36.091(6) 2_564 1_554
Cu3 Th1 P2 111.286(18) 2_564 1_554
Cu3 Th1 P2 111.286(18) 2_554 1_554
Cu5A Th1 P2 83.07(5) . 1_554
Cu5B Th1 P2 83.29(15) . 1_554
Cu5B Th1 P2 157.75(16) 6_656 1_554
Th1 Th1 P2 90.0 1_545 1_554
Th1 Th1 P2 90.0 1_565 1_554
P3 Th1 Cu5A 126.98(3) 2_554 6_656
P3 Th1 Cu5A 126.98(3) 2_564 6_656
P2 Th1 Cu5A 48.12(3) 2_564 6_656
P2 Th1 Cu5A 48.12(3) 2_554 6_656
P1 Th1 Cu5A 92.85(4) 2_554 6_656
P1 Th1 Cu5A 92.85(4) 2_564 6_656
Cu2 Th1 Cu5A 47.96(5) . 6_656
Cu4 Th1 Cu5A 166.93(5) 6_556 6_656
Cu3 Th1 Cu5A 119.32(5) 1_554 6_656
Cu1 Th1 Cu5A 71.21(5) 6_656 6_656
Cu1 Th1 Cu5A 47.32(3) 2_564 6_656
Cu1 Th1 Cu5A 47.32(3) 2_554 6_656
Cu2 Th1 Cu5A 137.97(2) 2_554 6_656
Cu2 Th1 Cu5A 137.97(2) 2_564 6_656
Cu3 Th1 Cu5A 87.08(4) 2_564 6_656
Cu3 Th1 Cu5A 87.08(4) 2_554 6_656
Cu5A Th1 Cu5A 119.97(2) . 6_656
Cu5B Th1 Cu5A 119.75(18) . 6_656
Cu5B Th1 Cu5A 0.79(19) 6_656 6_656
Th1 Th1 Cu5A 90.0 1_545 6_656
Th1 Th1 Cu5A 90.0 1_565 6_656
P2 Th1 Cu5A 156.96(5) 1_554 6_656
P3 Th1 P1 137.941(17) 2_554 6_656
P3 Th1 P1 137.941(17) 2_564 6_656
P2 Th1 P1 68.35(3) 2_564 6_656
P2 Th1 P1 68.35(3) 2_554 6_656
P1 Th1 P1 67.86(3) 2_554 6_656
P1 Th1 P1 67.86(3) 2_564 6_656
Cu2 Th1 P1 81.62(2) . 6_656
Cu4 Th1 P1 159.42(2) 6_556 6_656
Cu3 Th1 P1 85.66(2) 1_554 6_656
Cu1 Th1 P1 37.55(2) 6_656 6_656
Cu1 Th1 P1 36.345(7) 2_564 6_656
Cu1 Th1 P1 36.345(7) 2_554 6_656
Cu2 Th1 P1 116.231(17) 2_554 6_656
Cu2 Th1 P1 116.231(17) 2_564 6_656
Cu3 Th1 P1 113.904(18) 2_564 6_656
Cu3 Th1 P1 113.904(17) 2_554 6_656
Cu5A Th1 P1 153.63(5) . 6_656
Cu5B Th1 P1 153.41(15) . 6_656
Cu5B Th1 P1 34.44(16) 6_656 6_656
Th1 Th1 P1 90.0 1_545 6_656
Th1 Th1 P1 90.0 1_565 6_656
P2 Th1 P1 123.30(3) 1_554 6_656
Cu5A Th1 P1 33.66(5) 6_656 6_656
P3 Th1 P1 66.97(3) 2_554 .
P3 Th1 P1 66.97(3) 2_564 .
P2 Th1 P1 67.37(3) 2_564 .
P2 Th1 P1 67.37(3) 2_554 .
P1 Th1 P1 139.153(16) 2_554 .
P1 Th1 P1 139.153(16) 2_564 .
Cu2 Th1 P1 37.87(2) . .
Cu4 Th1 P1 81.10(2) 6_556 .
Cu3 Th1 P1 154.85(2) 1_554 .
Cu1 Th1 P1 157.04(2) 6_656 .
Cu1 Th1 P1 112.629(17) 2_564 .
Cu1 Th1 P1 112.629(17) 2_554 .
Cu2 Th1 P1 111.797(18) 2_554 .
Cu2 Th1 P1 111.797(18) 2_564 .
Cu3 Th1 P1 35.975(6) 2_564 .
Cu3 Th1 P1 35.975(6) 2_554 .
Cu5A Th1 P1 34.14(5) . .
Cu5B Th1 P1 33.92(15) . .
Cu5B Th1 P1 85.04(16) 6_656 .
Th1 Th1 P1 90.0 1_545 .
Th1 Th1 P1 90.0 1_565 .
P2 Th1 P1 117.21(3) 1_554 .
Cu5A Th1 P1 85.83(5) 6_656 .
P1 Th1 P1 119.486(17) 6_656 .
P3 Th1 Cu4 18.920(18) 2_554 2_554
P3 Th1 Cu4 65.471(18) 2_564 2_554
P2 Th1 Cu4 128.19(3) 2_564 2_554
P2 Th1 Cu4 95.26(2) 2_554 2_554
P1 Th1 Cu4 94.01(2) 2_554 2_554
P1 Th1 Cu4 126.06(3) 2_564 2_554
Cu2 Th1 Cu4 99.139(13) . 2_554
Cu4 Th1 Cu4 29.774(11) 6_556 2_554
Cu3 Th1 Cu4 92.530(13) 1_554 2_554
Cu1 Th1 Cu4 135.404(12) 6_656 2_554
Cu1 Th1 Cu4 167.020(7) 2_564 2_554
Cu1 Th1 Cu4 120.298(7) 2_554 2_554
Cu2 Th1 Cu4 48.976(13) 2_554 2_554
Cu2 Th1 Cu4 79.098(11) 2_564 2_554
Cu3 Th1 Cu4 83.043(11) 2_564 2_554
Cu3 Th1 Cu4 54.054(12) 2_554 2_554
Cu5A Th1 Cu4 35.82(4) . 2_554
Cu5B Th1 Cu4 35.98(11) . 2_554
Cu5B Th1 Cu4 140.45(13) 6_656 2_554
Th1 Th1 Cu4 66.635(3) 1_545 2_554
Th1 Th1 Cu4 113.365(3) 1_565 2_554
P2 Th1 Cu4 58.328(18) 1_554 2_554
Cu5A Th1 Cu4 141.07(4) 6_656 2_554
P1 Th1 Cu4 156.584(3) 6_656 2_554
P1 Th1 Cu4 64.558(17) . 2_554
P3 Th1 Cu4 65.471(18) 2_554 2_564
P3 Th1 Cu4 18.920(18) 2_564 2_564
P2 Th1 Cu4 95.26(2) 2_564 2_564
P2 Th1 Cu4 128.19(3) 2_554 2_564
P1 Th1 Cu4 126.06(3) 2_554 2_564
P1 Th1 Cu4 94.01(2) 2_564 2_564
Cu2 Th1 Cu4 99.139(13) . 2_564
Cu4 Th1 Cu4 29.774(11) 6_556 2_564
Cu3 Th1 Cu4 92.530(13) 1_554 2_564
Cu1 Th1 Cu4 135.404(12) 6_656 2_564
Cu1 Th1 Cu4 120.298(7) 2_564 2_564
Cu1 Th1 Cu4 167.020(7) 2_554 2_564
Cu2 Th1 Cu4 79.098(11) 2_554 2_564
Cu2 Th1 Cu4 48.976(13) 2_564 2_564
Cu3 Th1 Cu4 54.054(12) 2_564 2_564
Cu3 Th1 Cu4 83.043(11) 2_554 2_564
Cu5A Th1 Cu4 35.82(4) . 2_564
Cu5B Th1 Cu4 35.98(11) . 2_564
Cu5B Th1 Cu4 140.45(13) 6_656 2_564
Th1 Th1 Cu4 113.365(3) 1_545 2_564
Th1 Th1 Cu4 66.635(3) 1_565 2_564
P2 Th1 Cu4 58.328(18) 1_554 2_564
Cu5A Th1 Cu4 141.07(4) 6_656 2_564
P1 Th1 Cu4 156.584(3) 6_656 2_564
P1 Th1 Cu4 64.558(17) . 2_564
Cu4 Th1 Cu4 46.730(6) 2_554 2_564
P3 Th1 Cu4 123.78(2) 2_554 5_666
P3 Th1 Cu4 91.77(2) 2_564 5_666
P2 Th1 Cu4 18.564(17) 2_564 5_666
P2 Th1 Cu4 64.719(17) 2_554 5_666
P1 Th1 Cu4 129.01(3) 2_554 5_666
P1 Th1 Cu4 96.68(2) 2_564 5_666
Cu2 Th1 Cu4 29.776(9) . 5_666
Cu4 Th1 Cu4 133.371(11) 6_556 5_666
Cu3 Th1 Cu4 141.226(11) 1_554 5_666
Cu1 Th1 Cu4 99.042(13) 6_656 5_666
Cu1 Th1 Cu4 53.991(12) 2_564 5_666
Cu1 Th1 Cu4 82.932(11) 2_554 5_666
Cu2 Th1 Cu4 166.178(8) 2_554 5_666
Cu2 Th1 Cu4 120.587(7) 2_564 5_666
Cu3 Th1 Cu4 51.128(13) 2_564 5_666
Cu3 Th1 Cu4 80.403(11) 2_554 5_666
Cu5A Th1 Cu4 91.23(5) . 5_666
Cu5B Th1 Cu4 91.03(13) . 5_666
Cu5B Th1 Cu4 35.58(12) 6_656 5_666
Th1 Th1 Cu4 113.098(3) 1_545 5_666
Th1 Th1 Cu4 66.902(3) 1_565 5_666
P2 Th1 Cu4 156.271(5) 1_554 5_666
Cu5A Th1 Cu4 36.16(3) 6_656 5_666
P1 Th1 Cu4 64.675(17) 6_656 5_666
P1 Th1 Cu4 60.112(17) . 5_666
Cu4 Th1 Cu4 124.664(9) 2_554 5_666
Cu4 Th1 Cu4 104.927(7) 2_564 5_666
P3 Th1 Cu4 91.77(2) 2_554 5_656
P3 Th1 Cu4 123.78(2) 2_564 5_656
P2 Th1 Cu4 64.719(17) 2_564 5_656
P2 Th1 Cu4 18.564(17) 2_554 5_656
P1 Th1 Cu4 96.68(2) 2_554 5_656
P1 Th1 Cu4 129.01(3) 2_564 5_656
Cu2 Th1 Cu4 29.776(9) . 5_656
Cu4 Th1 Cu4 133.371(11) 6_556 5_656
Cu3 Th1 Cu4 141.226(11) 1_554 5_656
Cu1 Th1 Cu4 99.042(13) 6_656 5_656
Cu1 Th1 Cu4 82.932(11) 2_564 5_656
Cu1 Th1 Cu4 53.991(12) 2_554 5_656
Cu2 Th1 Cu4 120.587(7) 2_554 5_656
Cu2 Th1 Cu4 166.178(8) 2_564 5_656
Cu3 Th1 Cu4 80.402(11) 2_564 5_656
Cu3 Th1 Cu4 51.128(13) 2_554 5_656
Cu5A Th1 Cu4 91.23(5) . 5_656
Cu5B Th1 Cu4 91.03(13) . 5_656
Cu5B Th1 Cu4 35.58(12) 6_656 5_656
Th1 Th1 Cu4 66.902(3) 1_545 5_656
Th1 Th1 Cu4 113.098(3) 1_565 5_656
P2 Th1 Cu4 156.271(5) 1_554 5_656
Cu5A Th1 Cu4 36.16(3) 6_656 5_656
P1 Th1 Cu4 64.675(17) 6_656 5_656
P1 Th1 Cu4 60.112(17) . 5_656
Cu4 Th1 Cu4 104.927(7) 2_554 5_656
Cu4 Th1 Cu4 124.664(9) 2_564 5_656
Cu4 Th1 Cu4 46.196(6) 5_666 5_656
P3 Th1 Cu5A 92.31(5) 2_554 2_554
P3 Th1 Cu5A 124.21(5) 2_564 2_554
P2 Th1 Cu5A 132.03(6) 2_564 2_554
P2 Th1 Cu5A 98.73(4) 2_554 2_554
P1 Th1 Cu5A 18.61(3) 2_554 2_554
P1 Th1 Cu5A 64.04(2) 2_564 2_554
Cu2 Th1 Cu5A 141.18(5) . 2_554
Cu4 Th1 Cu5A 93.00(6) 6_556 2_554
Cu3 Th1 Cu5A 29.77(4) 1_554 2_554
Cu1 Th1 Cu5A 36.06(5) 6_656 2_554
Cu1 Th1 Cu5A 86.71(5) 2_564 2_554
Cu1 Th1 Cu5A 58.70(5) 2_554 2_554
Cu2 Th1 Cu5A 50.58(6) 2_554 2_554
Cu2 Th1 Cu5A 79.88(4) 2_564 2_554
Cu3 Th1 Cu5A 165.91(3) 2_564 2_554
Cu3 Th1 Cu5A 120.791(17) 2_554 2_554
Cu5A Th1 Cu5A 135.04(7) . 2_554
Cu5B Th1 Cu5A 135.22(15) . 2_554
Cu5B Th1 Cu5A 99.76(14) 6_656 2_554
Th1 Th1 Cu5A 67.054(13) 1_545 2_554
Th1 Th1 Cu5A 112.946(13) 1_565 2_554
P2 Th1 Cu5A 60.02(6) 1_554 2_554
Cu5A Th1 Cu5A 99.03(6) 6_656 2_554
P1 Th1 Cu5A 68.15(6) 6_656 2_554
P1 Th1 Cu5A 156.41(2) . 2_554
Cu4 Th1 Cu5A 99.53(6) 2_554 2_554
Cu4 Th1 Cu5A 118.34(6) 2_564 2_554
Cu4 Th1 Cu5A 132.82(6) 5_666 2_554
Cu4 Th1 Cu5A 111.95(5) 5_656 2_554
P3 Th1 Cu5A 124.21(5) 2_554 2_564
P3 Th1 Cu5A 92.31(5) 2_564 2_564
P2 Th1 Cu5A 98.73(4) 2_564 2_564
P2 Th1 Cu5A 132.03(6) 2_554 2_564
P1 Th1 Cu5A 64.04(2) 2_554 2_564
P1 Th1 Cu5A 18.61(3) 2_564 2_564
Cu2 Th1 Cu5A 141.18(5) . 2_564
Cu4 Th1 Cu5A 93.00(6) 6_556 2_564
Cu3 Th1 Cu5A 29.77(4) 1_554 2_564
Cu1 Th1 Cu5A 36.06(5) 6_656 2_564
Cu1 Th1 Cu5A 58.70(6) 2_564 2_564
Cu1 Th1 Cu5A 86.71(5) 2_554 2_564
Cu2 Th1 Cu5A 79.88(4) 2_554 2_564
Cu2 Th1 Cu5A 50.58(6) 2_564 2_564
Cu3 Th1 Cu5A 120.791(17) 2_564 2_564
Cu3 Th1 Cu5A 165.91(3) 2_554 2_564
Cu5A Th1 Cu5A 135.04(7) . 2_564
Cu5B Th1 Cu5A 135.22(15) . 2_564
Cu5B Th1 Cu5A 99.76(14) 6_656 2_564
Th1 Th1 Cu5A 112.946(13) 1_545 2_564
Th1 Th1 Cu5A 67.054(13) 1_565 2_564
P2 Th1 Cu5A 60.02(6) 1_554 2_564
Cu5A Th1 Cu5A 99.03(6) 6_656 2_564
P1 Th1 Cu5A 68.15(6) 6_656 2_564
P1 Th1 Cu5A 156.41(2) . 2_564
Cu4 Th1 Cu5A 118.34(6) 2_554 2_564
Cu4 Th1 Cu5A 99.53(6) 2_564 2_564
Cu4 Th1 Cu5A 111.95(5) 5_666 2_564
Cu4 Th1 Cu5A 132.82(6) 5_656 2_564
Cu5A Th1 Cu5A 45.89(3) 2_554 2_564
P3 Th1 Cu5B 94.5(3) 2_554 2_554
P3 Th1 Cu5B 126.8(3) 2_564 2_554
P2 Th1 Cu5B 129.4(3) 2_564 2_554
P2 Th1 Cu5B 96.8(2) 2_554 2_554
P1 Th1 Cu5B 18.08(6) 2_554 2_554
P1 Th1 Cu5B 63.78(5) 2_564 2_554
Cu2 Th1 Cu5B 138.4(3) . 2_554
Cu4 Th1 Cu5B 96.2(4) 6_556 2_554
Cu3 Th1 Cu5B 32.0(3) 1_554 2_554
Cu1 Th1 Cu5B 33.5(3) 6_656 2_554
Cu1 Th1 Cu5B 84.3(3) 2_564 2_554
Cu1 Th1 Cu5B 55.9(3) 2_554 2_554
Cu2 Th1 Cu5B 53.4(3) 2_554 2_554
Cu2 Th1 Cu5B 82.1(3) 2_564 2_554
Cu3 Th1 Cu5B 166.71(7) 2_564 2_554
Cu3 Th1 Cu5B 121.08(5) 2_554 2_554
Cu5A Th1 Cu5B 138.0(4) . 2_554
Cu5B Th1 Cu5B 138.1(4) . 2_554
Cu5B Th1 Cu5B 96.5(3) 6_656 2_554
Th1 Th1 Cu5B 67.11(4) 1_545 2_554
Th1 Th1 Cu5B 112.89(4) 1_565 2_554
P2 Th1 Cu5B 63.2(4) 1_554 2_554
Cu5A Th1 Cu5B 95.8(4) 6_656 2_554
P1 Th1 Cu5B 65.0(4) 6_656 2_554
P1 Th1 Cu5B 157.02(6) . 2_554
Cu4 Th1 Cu5B 102.3(3) 2_554 2_554
Cu4 Th1 Cu5B 121.5(4) 2_564 2_554
Cu4 Th1 Cu5B 129.6(4) 5_666 2_554
Cu4 Th1 Cu5B 109.4(3) 5_656 2_554
Cu5A Th1 Cu5B 3.2(4) 2_554 2_554
Cu5A Th1 Cu5B 45.96(3) 2_564 2_554
P3 Th1 Cu5B 126.8(3) 2_554 2_564
P3 Th1 Cu5B 94.5(3) 2_564 2_564
P2 Th1 Cu5B 96.8(2) 2_564 2_564
P2 Th1 Cu5B 129.4(3) 2_554 2_564
P1 Th1 Cu5B 63.78(5) 2_554 2_564
P1 Th1 Cu5B 18.08(6) 2_564 2_564
Cu2 Th1 Cu5B 138.4(3) . 2_564
Cu4 Th1 Cu5B 96.2(4) 6_556 2_564
Cu3 Th1 Cu5B 32.0(3) 1_554 2_564
Cu1 Th1 Cu5B 33.5(3) 6_656 2_564
Cu1 Th1 Cu5B 55.9(3) 2_564 2_564
Cu1 Th1 Cu5B 84.3(3) 2_554 2_564
Cu2 Th1 Cu5B 82.1(3) 2_554 2_564
Cu2 Th1 Cu5B 53.4(3) 2_564 2_564
Cu3 Th1 Cu5B 121.08(5) 2_564 2_564
Cu3 Th1 Cu5B 166.71(7) 2_554 2_564
Cu5A Th1 Cu5B 138.0(4) . 2_564
Cu5B Th1 Cu5B 138.1(4) . 2_564
Cu5B Th1 Cu5B 96.5(3) 6_656 2_564
Th1 Th1 Cu5B 112.89(4) 1_545 2_564
Th1 Th1 Cu5B 67.11(4) 1_565 2_564
P2 Th1 Cu5B 63.2(4) 1_554 2_564
Cu5A Th1 Cu5B 95.8(4) 6_656 2_564
P1 Th1 Cu5B 65.0(4) 6_656 2_564
P1 Th1 Cu5B 157.02(6) . 2_564
Cu4 Th1 Cu5B 121.5(4) 2_554 2_564
Cu4 Th1 Cu5B 102.3(3) 2_564 2_564
Cu4 Th1 Cu5B 109.4(3) 5_666 2_564
Cu4 Th1 Cu5B 129.6(4) 5_656 2_564
Cu5A Th1 Cu5B 45.96(3) 2_554 2_564
Cu5A Th1 Cu5B 3.2(4) 2_564 2_564
Cu5B Th1 Cu5B 45.78(8) 2_554 2_564
P3 Th1 Cu2 124.76(2) 2_554 1_565
P3 Th1 Cu2 61.91(2) 2_564 1_565
P2 Th1 Cu2 17.32(2) 2_564 1_565
P2 Th1 Cu2 94.480(18) 2_554 1_565
P1 Th1 Cu2 151.88(2) 2_554 1_565
P1 Th1 Cu2 82.217(19) 2_564 1_565
Cu2 Th1 Cu2 51.060(6) . 1_565
Cu4 Th1 Cu2 107.718(10) 6_556 1_565
Cu3 Th1 Cu2 127.812(6) 1_554 1_565
Cu1 Th1 Cu2 107.838(10) 6_656 1_565
Cu1 Th1 Cu2 57.114(12) 2_564 1_565
Cu1 Th1 Cu2 112.254(12) 2_554 1_565
Cu2 Th1 Cu2 156.824(5) 2_554 1_565
Cu2 Th1 Cu2 90.168(5) 2_564 1_565
Cu3 Th1 Cu2 31.201(12) 2_564 1_565
Cu3 Th1 Cu2 93.347(10) 2_554 1_565
Cu5A Th1 Cu2 78.81(3) . 1_565
Cu5B Th1 Cu2 78.67(9) . 1_565
Cu5B Th1 Cu2 64.71(8) 6_656 1_565
Th1 Th1 Cu2 141.061(6) 1_545 1_565
Th1 Th1 Cu2 38.940(6) 1_565 1_565
P2 Th1 Cu2 124.748(9) 1_554 1_565
Cu5A Th1 Cu2 65.11(2) 6_656 1_565
P1 Th1 Cu2 84.745(13) 6_656 1_565
P1 Th1 Cu2 60.253(10) . 1_565
Cu4 Th1 Cu2 114.098(9) 2_554 1_565
Cu4 Th1 Cu2 77.957(9) 2_564 1_565
Cu4 Th1 Cu2 31.717(7) 5_666 1_565
Cu4 Th1 Cu2 76.091(7) 5_656 1_565
Cu5A Th1 Cu2 142.46(4) 2_554 1_565
Cu5A Th1 Cu2 100.74(2) 2_564 1_565
Cu5B Th1 Cu2 140.6(2) 2_554 1_565
Cu5B Th1 Cu2 99.65(15) 2_564 1_565
P3 Th1 Cu2 61.91(2) 2_554 1_545
P3 Th1 Cu2 124.76(2) 2_564 1_545
P2 Th1 Cu2 94.480(19) 2_564 1_545
P2 Th1 Cu2 17.32(2) 2_554 1_545
P1 Th1 Cu2 82.217(19) 2_554 1_545
P1 Th1 Cu2 151.88(2) 2_564 1_545
Cu2 Th1 Cu2 51.060(6) . 1_545
Cu4 Th1 Cu2 107.718(10) 6_556 1_545
Cu3 Th1 Cu2 127.812(6) 1_554 1_545
Cu1 Th1 Cu2 107.838(10) 6_656 1_545
Cu1 Th1 Cu2 112.254(12) 2_564 1_545
Cu1 Th1 Cu2 57.114(12) 2_554 1_545
Cu2 Th1 Cu2 90.168(5) 2_554 1_545
Cu2 Th1 Cu2 156.824(5) 2_564 1_545
Cu3 Th1 Cu2 93.347(10) 2_564 1_545
Cu3 Th1 Cu2 31.201(12) 2_554 1_545
Cu5A Th1 Cu2 78.81(3) . 1_545
Cu5B Th1 Cu2 78.67(9) . 1_545
Cu5B Th1 Cu2 64.71(8) 6_656 1_545
Th1 Th1 Cu2 38.940(6) 1_545 1_545
Th1 Th1 Cu2 141.061(6) 1_565 1_545
P2 Th1 Cu2 124.748(9) 1_554 1_545
Cu5A Th1 Cu2 65.11(2) 6_656 1_545
P1 Th1 Cu2 84.745(13) 6_656 1_545
P1 Th1 Cu2 60.253(10) . 1_545
Cu4 Th1 Cu2 77.957(9) 2_554 1_545
Cu4 Th1 Cu2 114.098(9) 2_564 1_545
Cu4 Th1 Cu2 76.091(7) 5_666 1_545
Cu4 Th1 Cu2 31.717(7) 5_656 1_545
Cu5A Th1 Cu2 100.74(2) 2_554 1_545
Cu5A Th1 Cu2 142.46(4) 2_564 1_545
Cu5B Th1 Cu2 99.65(15) 2_554 1_545
Cu5B Th1 Cu2 140.6(2) 2_564 1_545
Cu2 Th1 Cu2 102.121(11) 1_565 1_545
P3 Th1 Cu4 17.81(2) 2_554 6_546
P3 Th1 Cu4 94.557(19) 2_564 6_546
P2 Th1 Cu4 151.33(2) 2_564 6_546
P2 Th1 Cu4 81.613(19) 2_554 6_546
P1 Th1 Cu4 64.78(2) 2_554 6_546
P1 Th1 Cu4 125.59(2) 2_564 6_546
Cu2 Th1 Cu4 107.973(10) . 6_546
Cu4 Th1 Cu4 50.413(6) 6_556 6_546
Cu3 Th1 Cu4 79.733(10) 1_554 6_546
Cu1 Th1 Cu4 109.661(9) 6_656 6_546
Cu1 Th1 Cu4 160.075(11) 2_564 6_546
Cu1 Th1 Cu4 91.543(9) 2_554 6_546
Cu2 Th1 Cu4 29.634(12) 2_554 6_546
Cu2 Th1 Cu4 92.220(10) 2_564 6_546
Cu3 Th1 Cu4 111.584(11) 2_564 6_546
Cu3 Th1 Cu4 57.489(11) 2_554 6_546
Cu5A Th1 Cu4 64.22(3) . 6_546
Cu5B Th1 Cu4 64.33(8) . 6_546
Cu5B Th1 Cu4 128.22(3) 6_656 6_546
Th1 Th1 Cu4 39.587(6) 1_545 6_546
Th1 Th1 Cu4 140.413(6) 1_565 6_546
P2 Th1 Cu4 59.017(10) 1_554 6_546
Cu5A Th1 Cu4 128.369(10) 6_656 6_546
P1 Th1 Cu4 126.625(8) 6_656 6_546
P1 Th1 Cu4 84.339(13) . 6_546
Cu4 Th1 Cu4 30.822(10) 2_554 6_546
Cu4 Th1 Cu4 75.671(5) 2_564 6_546
Cu4 Th1 Cu4 137.727(11) 5_666 6_546
Cu4 Th1 Cu4 97.774(8) 5_656 6_546
Cu5A Th1 Cu4 74.51(4) 2_554 6_546
Cu5A Th1 Cu4 109.50(4) 2_564 6_546
Cu5B Th1 Cu4 76.7(3) 2_554 6_546
Cu5B Th1 Cu4 111.6(3) 2_564 6_546
Cu2 Th1 Cu4 142.501(11) 1_565 6_546
Cu2 Th1 Cu4 66.078(9) 1_545 6_546
P3 Th1 Cu4 94.557(19) 2_554 6_566
P3 Th1 Cu4 17.81(2) 2_564 6_566
P2 Th1 Cu4 81.613(19) 2_564 6_566
P2 Th1 Cu4 151.33(2) 2_554 6_566
P1 Th1 Cu4 125.59(2) 2_554 6_566
P1 Th1 Cu4 64.78(2) 2_564 6_566
Cu2 Th1 Cu4 107.973(10) . 6_566
Cu4 Th1 Cu4 50.413(6) 6_556 6_566
Cu3 Th1 Cu4 79.733(10) 1_554 6_566
Cu1 Th1 Cu4 109.661(9) 6_656 6_566
Cu1 Th1 Cu4 91.543(9) 2_564 6_566
Cu1 Th1 Cu4 160.075(11) 2_554 6_566
Cu2 Th1 Cu4 92.220(10) 2_554 6_566
Cu2 Th1 Cu4 29.634(12) 2_564 6_566
Cu3 Th1 Cu4 57.489(11) 2_564 6_566
Cu3 Th1 Cu4 111.584(11) 2_554 6_566
Cu5A Th1 Cu4 64.22(3) . 6_566
Cu5B Th1 Cu4 64.33(8) . 6_566
Cu5B Th1 Cu4 128.22(3) 6_656 6_566
Th1 Th1 Cu4 140.413(6) 1_545 6_566
Th1 Th1 Cu4 39.587(6) 1_565 6_566
P2 Th1 Cu4 59.017(10) 1_554 6_566
Cu5A Th1 Cu4 128.369(10) 6_656 6_566
P1 Th1 Cu4 126.625(8) 6_656 6_566
P1 Th1 Cu4 84.339(13) . 6_566
Cu4 Th1 Cu4 75.671(5) 2_554 6_566
Cu4 Th1 Cu4 30.822(10) 2_564 6_566
Cu4 Th1 Cu4 97.774(8) 5_666 6_566
Cu4 Th1 Cu4 137.727(11) 5_656 6_566
Cu5A Th1 Cu4 109.50(4) 2_554 6_566
Cu5A Th1 Cu4 74.51(4) 2_564 6_566
Cu5B Th1 Cu4 111.6(3) 2_554 6_566
Cu5B Th1 Cu4 76.7(3) 2_564 6_566
Cu2 Th1 Cu4 66.078(9) 1_565 6_566
Cu2 Th1 Cu4 142.501(11) 1_545 6_566
Cu4 Th1 Cu4 100.826(11) 6_546 6_566
P3 Th1 Cu3 62.57(2) 2_554 1_544
P3 Th1 Cu3 124.75(2) 2_564 1_544
P2 Th1 Cu3 155.13(2) 2_564 1_544
P2 Th1 Cu3 83.392(19) 2_554 1_544
P1 Th1 Cu3 20.10(2) 2_554 1_544
P1 Th1 Cu3 93.903(18) 2_564 1_544
Cu2 Th1 Cu3 128.494(6) . 1_544
Cu4 Th1 Cu3 79.719(10) 6_556 1_544
Cu3 Th1 Cu3 50.350(6) 1_554 1_544
Cu1 Th1 Cu3 64.782(9) 6_656 1_544
Cu1 Th1 Cu3 115.204(12) 2_564 1_544
Cu1 Th1 Cu3 60.887(11) 2_554 1_544
Cu2 Th1 Cu3 30.385(12) 2_554 1_544
Cu2 Th1 Cu3 92.549(9) 2_564 1_544
Cu3 Th1 Cu3 156.573(5) 2_564 1_544
Cu3 Th1 Cu3 90.748(5) 2_554 1_544
Cu5A Th1 Cu3 109.02(3) . 1_544
Cu5B Th1 Cu3 109.15(8) . 1_544
Cu5B Th1 Cu3 108.67(9) 6_656 1_544
Th1 Th1 Cu3 39.650(5) 1_545 1_544
Th1 Th1 Cu3 140.350(6) 1_565 1_544
P2 Th1 Cu3 59.651(10) 1_554 1_544
Cu5A Th1 Cu3 108.21(3) 6_656 1_544
P1 Th1 Cu3 87.233(14) 6_656 1_544
P1 Th1 Cu3 125.284(9) . 1_544
Cu4 Th1 Cu3 73.908(9) 2_554 1_544
Cu4 Th1 Cu3 109.483(9) 2_564 1_544
Cu4 Th1 Cu3 143.086(8) 5_666 1_544
Cu4 Th1 Cu3 101.269(7) 5_656 1_544
Cu5A Th1 Cu3 31.34(3) 2_554 1_544
Cu5A Th1 Cu3 75.302(19) 2_564 1_544
Cu5B Th1 Cu3 32.80(19) 2_554 1_544
Cu5B Th1 Cu3 76.02(10) 2_564 1_544
Cu2 Th1 Cu3 171.923(11) 1_565 1_544
Cu2 Th1 Cu3 78.014(8) 1_545 1_544
Cu4 Th1 Cu3 45.000(9) 6_546 1_544
Cu4 Th1 Cu3 118.662(9) 6_566 1_544
P3 Th1 Cu3 124.75(2) 2_554 1_564
P3 Th1 Cu3 62.57(2) 2_564 1_564
P2 Th1 Cu3 83.392(19) 2_564 1_564
P2 Th1 Cu3 155.13(2) 2_554 1_564
P1 Th1 Cu3 93.903(18) 2_554 1_564
P1 Th1 Cu3 20.10(2) 2_564 1_564
Cu2 Th1 Cu3 128.494(6) . 1_564
Cu4 Th1 Cu3 79.719(10) 6_556 1_564
Cu3 Th1 Cu3 50.350(6) 1_554 1_564
Cu1 Th1 Cu3 64.782(9) 6_656 1_564
Cu1 Th1 Cu3 60.887(11) 2_564 1_564
Cu1 Th1 Cu3 115.204(12) 2_554 1_564
Cu2 Th1 Cu3 92.549(9) 2_554 1_564
Cu2 Th1 Cu3 30.385(12) 2_564 1_564
Cu3 Th1 Cu3 90.748(5) 2_564 1_564
Cu3 Th1 Cu3 156.573(5) 2_554 1_564
Cu5A Th1 Cu3 109.02(3) . 1_564
Cu5B Th1 Cu3 109.15(8) . 1_564
Cu5B Th1 Cu3 108.67(9) 6_656 1_564
Th1 Th1 Cu3 140.350(6) 1_545 1_564
Th1 Th1 Cu3 39.650(6) 1_565 1_564
P2 Th1 Cu3 59.651(10) 1_554 1_564
Cu5A Th1 Cu3 108.21(3) 6_656 1_564
P1 Th1 Cu3 87.233(14) 6_656 1_564
P1 Th1 Cu3 125.284(8) . 1_564
Cu4 Th1 Cu3 109.483(9) 2_554 1_564
Cu4 Th1 Cu3 73.908(9) 2_564 1_564
Cu4 Th1 Cu3 101.269(7) 5_666 1_564
Cu4 Th1 Cu3 143.086(8) 5_656 1_564
Cu5A Th1 Cu3 75.302(19) 2_554 1_564
Cu5A Th1 Cu3 31.34(3) 2_564 1_564
Cu5B Th1 Cu3 76.02(10) 2_554 1_564
Cu5B Th1 Cu3 32.80(19) 2_564 1_564
Cu2 Th1 Cu3 78.014(8) 1_565 1_564
Cu2 Th1 Cu3 171.923(11) 1_545 1_564
Cu4 Th1 Cu3 118.662(9) 6_546 1_564
Cu4 Th1 Cu3 45.000(9) 6_566 1_564
Cu3 Th1 Cu3 100.700(11) 1_544 1_564
P3 Th1 Cu1 154.51(2) 2_554 6_666
P3 Th1 Cu1 83.018(19) 2_564 6_666
P2 Th1 Cu1 63.83(2) 2_564 6_666
P2 Th1 Cu1 125.10(2) 2_554 6_666
P1 Th1 Cu1 92.908(18) 2_554 6_666
P1 Th1 Cu1 18.16(2) 2_564 6_666
Cu2 Th1 Cu1 108.287(10) . 6_666
Cu4 Th1 Cu1 109.871(10) 6_556 6_666
Cu3 Th1 Cu1 64.542(9) 1_554 6_666
Cu1 Th1 Cu1 49.926(5) 6_656 6_666
Cu1 Th1 Cu1 30.771(16) 2_564 6_666
Cu1 Th1 Cu1 92.725(6) 2_554 6_666
Cu2 Th1 Cu1 114.263(12) 2_554 6_666
Cu2 Th1 Cu1 60.621(12) 2_564 6_666
Cu3 Th1 Cu1 91.847(9) 2_564 6_666
Cu3 Th1 Cu1 158.616(11) 2_554 6_666
Cu5A Th1 Cu1 129.166(10) . 6_666
Cu5B Th1 Cu1 129.20(2) . 6_666
Cu5B Th1 Cu1 78.52(10) 6_656 6_666
Th1 Th1 Cu1 139.926(6) 1_545 6_666
Th1 Th1 Cu1 40.074(6) 1_565 6_666
P2 Th1 Cu1 87.267(14) 1_554 6_666
Cu5A Th1 Cu1 78.03(3) 6_656 6_666
P1 Th1 Cu1 59.309(10) 6_656 6_666
P1 Th1 Cu1 126.353(8) . 6_666
Cu4 Th1 Cu1 139.631(9) 2_554 6_666
Cu4 Th1 Cu1 98.914(7) 2_564 6_666
Cu4 Th1 Cu1 78.520(9) 5_666 6_666
Cu4 Th1 Cu1 113.664(9) 5_656 6_666
Cu5A Th1 Cu1 77.17(3) 2_554 6_666
Cu5A Th1 Cu1 35.04(3) 2_564 6_666
Cu5B Th1 Cu1 76.15(12) 2_554 6_666
Cu5B Th1 Cu1 33.42(19) 2_564 6_666
Cu2 Th1 Cu1 66.548(9) 1_565 6_666
Cu2 Th1 Cu1 142.410(10) 1_545 6_666
Cu4 Th1 Cu1 143.738(10) 6_546 6_666
Cu4 Th1 Cu1 68.092(9) 6_566 6_666
Cu3 Th1 Cu1 108.354(9) 1_544 6_666
Cu3 Th1 Cu1 30.292(10) 1_564 6_666
P2 Cu1 P1 113.71(4) . 5_556
P2 Cu1 P1 113.71(4) . 5_566
P1 Cu1 P1 105.68(5) 5_556 5_566
P2 Cu1 P1 102.61(5) . .
P1 Cu1 P1 110.62(3) 5_556 .
P1 Cu1 P1 110.62(3) 5_566 .
P2 Cu1 Cu3 102.60(4) . 6_557
P1 Cu1 Cu3 58.16(3) 5_556 6_557
P1 Cu1 Cu3 58.16(3) 5_566 6_557
P1 Cu1 Cu3 154.80(4) . 6_557
P2 Cu1 Cu1 122.87(3) . 5_556
P1 Cu1 Cu1 56.46(3) 5_556 5_556
P1 Cu1 Cu1 123.20(4) 5_566 5_556
P1 Cu1 Cu1 54.15(3) . 5_556
Cu3 Cu1 Cu1 110.42(3) 6_557 5_556
P2 Cu1 Cu1 122.87(3) . 5_566
P1 Cu1 Cu1 123.20(4) 5_556 5_566
P1 Cu1 Cu1 56.46(3) 5_566 5_566
P1 Cu1 Cu1 54.15(3) . 5_566
Cu3 Cu1 Cu1 110.42(3) 6_557 5_566
Cu1 Cu1 Cu1 87.29(3) 5_556 5_566
P2 Cu1 Cu5B 63.4(4) . 5_566
P1 Cu1 Cu5B 116.6(6) 5_556 5_566
P1 Cu1 Cu5B 51.6(3) 5_566 5_566
P1 Cu1 Cu5B 132.4(5) . 5_566
Cu3 Cu1 Cu5B 61.3(6) 6_557 5_566
Cu1 Cu1 Cu5B 171.5(6) 5_556 5_566
Cu1 Cu1 Cu5B 93.6(2) 5_566 5_566
P2 Cu1 Cu5B 63.4(4) . 5_556
P1 Cu1 Cu5B 51.6(3) 5_556 5_556
P1 Cu1 Cu5B 116.6(6) 5_566 5_556
P1 Cu1 Cu5B 132.4(5) . 5_556
Cu3 Cu1 Cu5B 61.3(6) 6_557 5_556
Cu1 Cu1 Cu5B 93.6(2) 5_556 5_556
Cu1 Cu1 Cu5B 171.5(6) 5_566 5_556
Cu5B Cu1 Cu5B 84.2(6) 5_566 5_556
P2 Cu1 Cu5A 66.37(8) . 5_566
P1 Cu1 Cu5A 112.17(9) 5_556 5_566
P1 Cu1 Cu5A 49.86(6) 5_566 5_566
P1 Cu1 Cu5A 136.56(8) . 5_566
Cu3 Cu1 Cu5A 56.55(9) 6_557 5_566
Cu1 Cu1 Cu5A 166.74(10) 5_556 5_566
Cu1 Cu1 Cu5A 95.06(4) 5_566 5_566
Cu5B Cu1 Cu5A 4.8(6) 5_566 5_566
Cu5B Cu1 Cu5A 82.2(3) 5_556 5_566
P2 Cu1 Cu5A 66.37(8) . 5_556
P1 Cu1 Cu5A 49.86(6) 5_556 5_556
P1 Cu1 Cu5A 112.17(9) 5_566 5_556
P1 Cu1 Cu5A 136.56(8) . 5_556
Cu3 Cu1 Cu5A 56.55(9) 6_557 5_556
Cu1 Cu1 Cu5A 95.06(4) 5_556 5_556
Cu1 Cu1 Cu5A 166.74(10) 5_566 5_556
Cu5B Cu1 Cu5A 82.2(3) 5_566 5_556
Cu5B Cu1 Cu5A 4.8(6) 5_556 5_556
Cu5A Cu1 Cu5A 79.76(10) 5_566 5_556
P2 Cu1 Th1 167.58(4) . 6_556
P1 Cu1 Th1 60.68(3) 5_556 6_556
P1 Cu1 Th1 60.68(3) 5_566 6_556
P1 Cu1 Th1 89.82(3) . 6_556
Cu3 Cu1 Th1 64.980(19) 6_557 6_556
Cu1 Cu1 Th1 64.72(2) 5_556 6_556
Cu1 Cu1 Th1 64.72(2) 5_566 6_556
Cu5B Cu1 Th1 108.1(5) 5_566 6_556
Cu5B Cu1 Th1 108.1(5) 5_556 6_556
Cu5A Cu1 Th1 104.52(8) 5_566 6_556
Cu5A Cu1 Th1 104.52(8) 5_556 6_556
P2 Cu1 Th1 59.49(2) . 2_565
P1 Cu1 Th1 163.39(3) 5_556 2_565
P1 Cu1 Th1 90.80(2) 5_566 2_565
P1 Cu1 Th1 60.03(2) . 2_565
Cu3 Cu1 Th1 136.146(15) 6_557 2_565
Cu1 Cu1 Th1 112.65(3) 5_556 2_565
Cu1 Cu1 Th1 64.355(18) 5_566 2_565
Cu5B Cu1 Th1 75.2(6) 5_566 2_565
Cu5B Cu1 Th1 122.7(4) 5_556 2_565
Cu5A Cu1 Th1 79.97(9) 5_566 2_565
Cu5A Cu1 Th1 125.85(8) 5_556 2_565
Th1 Cu1 Th1 129.079(14) 6_556 2_565
P2 Cu1 Th1 59.49(2) . 2
P1 Cu1 Th1 90.80(2) 5_556 2
P1 Cu1 Th1 163.39(3) 5_566 2
P1 Cu1 Th1 60.03(2) . 2
Cu3 Cu1 Th1 136.146(15) 6_557 2
Cu1 Cu1 Th1 64.355(18) 5_556 2
Cu1 Cu1 Th1 112.65(3) 5_566 2
Cu5B Cu1 Th1 122.7(4) 5_566 2
Cu5B Cu1 Th1 75.2(6) 5_556 2
Cu5A Cu1 Th1 125.85(8) 5_566 2
Cu5A Cu1 Th1 79.97(9) 5_556 2
Th1 Cu1 Th1 129.079(14) 6_556 2
Th1 Cu1 Th1 72.667(14) 2_565 2
P2 Cu1 Cu1 90.0 . 1_565
P1 Cu1 Cu1 142.84(3) 5_556 1_565
P1 Cu1 Cu1 37.16(3) 5_566 1_565
P1 Cu1 Cu1 90.0 . 1_565
Cu3 Cu1 Cu1 90.0 6_557 1_565
Cu1 Cu1 Cu1 133.644(17) 5_556 1_565
Cu1 Cu1 Cu1 46.355(17) 5_566 1_565
Cu5B Cu1 Cu1 47.9(3) 5_566 1_565
Cu5B Cu1 Cu1 132.1(3) 5_556 1_565
Cu5A Cu1 Cu1 50.12(5) 5_566 1_565
Cu5A Cu1 Cu1 129.88(5) 5_556 1_565
Th1 Cu1 Cu1 90.0 6_556 1_565
Th1 Cu1 Cu1 53.666(7) 2_565 1_565
Th1 Cu1 Cu1 126.333(7) 2 1_565
P2 Cu1 Cu1 90.0 . 1_545
P1 Cu1 Cu1 37.16(3) 5_556 1_545
P1 Cu1 Cu1 142.84(3) 5_566 1_545
P1 Cu1 Cu1 90.0 . 1_545
Cu3 Cu1 Cu1 90.0 6_557 1_545
Cu1 Cu1 Cu1 46.355(17) 5_556 1_545
Cu1 Cu1 Cu1 133.644(17) 5_566 1_545
Cu5B Cu1 Cu1 132.1(3) 5_566 1_545
Cu5B Cu1 Cu1 47.9(3) 5_556 1_545
Cu5A Cu1 Cu1 129.88(5) 5_566 1_545
Cu5A Cu1 Cu1 50.12(5) 5_556 1_545
Th1 Cu1 Cu1 90.0 6_556 1_545
Th1 Cu1 Cu1 126.333(7) 2_565 1_545
Th1 Cu1 Cu1 53.666(7) 2 1_545
Cu1 Cu1 Cu1 180.0 1_565 1_545
P2 Cu1 P3 66.82(4) . 6_557
P1 Cu1 P3 75.16(3) 5_556 6_557
P1 Cu1 P3 75.16(3) 5_566 6_557
P1 Cu1 P3 169.43(4) . 6_557
Cu3 Cu1 P3 35.77(2) 6_557 6_557
Cu1 Cu1 P3 130.82(2) 5_556 6_557
Cu1 Cu1 P3 130.82(2) 5_566 6_557
Cu5B Cu1 P3 43.9(5) 5_566 6_557
Cu5B Cu1 P3 43.9(5) 5_556 6_557
Cu5A Cu1 P3 40.60(6) 5_566 6_557
Cu5A Cu1 P3 40.60(6) 5_556 6_557
Th1 Cu1 P3 100.75(2) 6_556 6_557
Th1 Cu1 P3 112.03(2) 2_565 6_557
Th1 Cu1 P3 112.03(2) 2 6_557
Cu1 Cu1 P3 90.0 1_565 6_557
Cu1 Cu1 P3 90.0 1_545 6_557
P2 Cu1 Cu4 32.56(3) . 6_557
P1 Cu1 Cu4 95.53(3) 5_556 6_557
P1 Cu1 Cu4 95.53(3) 5_566 6_557
P1 Cu1 Cu4 135.16(4) . 6_557
Cu3 Cu1 Cu4 70.04(2) 6_557 6_557
Cu1 Cu1 Cu4 135.643(18) 5_556 6_557
Cu1 Cu1 Cu4 135.643(18) 5_566 6_557
Cu5B Cu1 Cu4 45.92(14) 5_566 6_557
Cu5B Cu1 Cu4 45.92(14) 5_556 6_557
Cu5A Cu1 Cu4 46.37(5) 5_566 6_557
Cu5A Cu1 Cu4 46.37(5) 5_556 6_557
Th1 Cu1 Cu4 135.02(2) 6_556 6_557
Th1 Cu1 Cu4 84.758(14) 2_565 6_557
Th1 Cu1 Cu4 84.758(14) 2 6_557
Cu1 Cu1 Cu4 90.0 1_565 6_557
Cu1 Cu1 Cu4 90.0 1_545 6_557
P3 Cu1 Cu4 34.26(2) 6_557 6_557
P2 Cu1 Cu5B 132.7(4) . .
P1 Cu1 Cu5B 93.4(2) 5_556 .
P1 Cu1 Cu5B 93.4(2) 5_566 .
P1 Cu1 Cu5B 30.1(4) . .
Cu3 Cu1 Cu5B 124.7(4) 6_557 .
Cu1 Cu1 Cu5B 43.96(5) 5_556 .
Cu1 Cu1 Cu5B 43.96(5) 5_566 .
Cu5B Cu1 Cu5B 137.6(3) 5_566 .
Cu5B Cu1 Cu5B 137.6(3) 5_556 .
Cu5A Cu1 Cu5B 138.83(11) 5_566 .
Cu5A Cu1 Cu5B 138.83(11) 5_556 .
Th1 Cu1 Cu5B 59.7(4) 6_556 .
Th1 Cu1 Cu5B 83.4(3) 2_565 .
Th1 Cu1 Cu5B 83.4(3) 2 .
Cu1 Cu1 Cu5B 90.000(1) 1_565 .
Cu1 Cu1 Cu5B 90.0 1_545 .
P3 Cu1 Cu5B 160.5(4) 6_557 .
Cu4 Cu1 Cu5B 165.3(4) 6_557 .
P2 Cu1 Cu2 27.664(8) . 2_565
P1 Cu1 Cu2 133.65(4) 5_556 2_565
P1 Cu1 Cu2 87.64(3) 5_566 2_565
P1 Cu1 Cu2 105.18(3) . 2_565
Cu3 Cu1 Cu2 97.16(2) 6_557 2_565
Cu1 Cu1 Cu2 146.20(3) 5_556 2_565
Cu1 Cu1 Cu2 101.390(18) 5_566 2_565
Cu5B Cu1 Cu2 41.8(5) 5_566 2_565
Cu5B Cu1 Cu2 82.5(2) 5_556 2_565
Cu5A Cu1 Cu2 45.95(9) 5_566 2_565
Cu5A Cu1 Cu2 83.87(6) 5_556 2_565
Th1 Cu1 Cu2 148.194(12) 6_556 2_565
Th1 Cu1 Cu2 47.336(11) 2_565 2_565
Th1 Cu1 Cu2 82.308(15) 2 2_565
Cu1 Cu1 Cu2 62.680(5) 1_565 2_565
Cu1 Cu1 Cu2 117.319(5) 1_545 2_565
P3 Cu1 Cu2 65.60(2) 6_557 2_565
Cu4 Cu1 Cu2 38.345(10) 6_557 2_565
Cu5B Cu1 Cu2 130.7(3) . 2_565
P2 Cu1 Cu2 27.664(8) . 2
P1 Cu1 Cu2 87.64(3) 5_556 2
P1 Cu1 Cu2 133.65(4) 5_566 2
P1 Cu1 Cu2 105.18(3) . 2
Cu3 Cu1 Cu2 97.16(2) 6_557 2
Cu1 Cu1 Cu2 101.390(18) 5_556 2
Cu1 Cu1 Cu2 146.20(3) 5_566 2
Cu5B Cu1 Cu2 82.5(2) 5_566 2
Cu5B Cu1 Cu2 41.8(5) 5_556 2
Cu5A Cu1 Cu2 83.87(6) 5_566 2
Cu5A Cu1 Cu2 45.95(9) 5_556 2
Th1 Cu1 Cu2 148.194(12) 6_556 2
Th1 Cu1 Cu2 82.308(14) 2_565 2
Th1 Cu1 Cu2 47.336(11) 2 2
Cu1 Cu1 Cu2 117.319(5) 1_565 2
Cu1 Cu1 Cu2 62.680(6) 1_545 2
P3 Cu1 Cu2 65.60(2) 6_557 2
Cu4 Cu1 Cu2 38.345(10) 6_557 2
Cu5B Cu1 Cu2 130.7(3) . 2
Cu2 Cu1 Cu2 54.639(11) 2_565 2
P2 Cu1 Cu5A 129.47(7) . .
P1 Cu1 Cu5A 95.30(5) 5_556 .
P1 Cu1 Cu5A 95.30(5) 5_566 .
P1 Cu1 Cu5A 26.86(7) . .
Cu3 Cu1 Cu5A 127.93(7) 6_557 .
Cu1 Cu1 Cu5A 44.40(2) 5_556 .
Cu1 Cu1 Cu5A 44.40(2) 5_566 .
Cu5B Cu1 Cu5A 137.8(3) 5_566 .
Cu5B Cu1 Cu5A 137.8(3) 5_556 .
Cu5A Cu1 Cu5A 139.46(5) 5_566 .
Cu5A Cu1 Cu5A 139.46(5) 5_556 .
Th1 Cu1 Cu5A 62.95(7) 6_556 .
Th1 Cu1 Cu5A 80.79(5) 2_565 .
Th1 Cu1 Cu5A 80.79(5) 2 .
Cu1 Cu1 Cu5A 90.0 1_565 .
Cu1 Cu1 Cu5A 90.0 1_545 .
P3 Cu1 Cu5A 163.71(7) 6_557 .
Cu4 Cu1 Cu5A 162.03(7) 6_557 .
Cu5B Cu1 Cu5A 3.2(4) . .
Cu2 Cu1 Cu5A 128.11(6) 2_565 .
Cu2 Cu1 Cu5A 128.11(6) 2 .
P2 Cu1 Cu3 102.24(3) . 2_554
P1 Cu1 Cu3 87.96(3) 5_556 2_554
P1 Cu1 Cu3 130.91(4) 5_566 2_554
P1 Cu1 Cu3 25.686(5) . 2_554
Cu3 Cu1 Cu3 143.973(15) 6_557 2_554
Cu1 Cu1 Cu3 33.56(2) 5_556 2_554
Cu1 Cu1 Cu3 76.38(2) 5_566 2_554
Cu5B Cu1 Cu3 154.6(6) 5_566 2_554
Cu5B Cu1 Cu3 108.8(5) 5_556 2_554
Cu5A Cu1 Cu3 159.38(9) 5_566 2_554
Cu5A Cu1 Cu3 112.36(6) 5_556 2_554
Th1 Cu1 Cu3 88.940(15) 6_556 2_554
Th1 Cu1 Cu3 79.417(13) 2_565 2_554
Th1 Cu1 Cu3 45.818(10) 2 2_554
Cu1 Cu1 Cu3 115.667(5) 1_565 2_554
Cu1 Cu1 Cu3 64.332(5) 1_545 2_554
P3 Cu1 Cu3 152.717(10) 6_557 2_554
Cu4 Cu1 Cu3 130.548(16) 6_557 2_554
Cu5B Cu1 Cu3 38.0(3) . 2_554
Cu2 Cu1 Cu3 116.617(18) 2_565 2_554
Cu2 Cu1 Cu3 92.891(14) 2 2_554
Cu5A Cu1 Cu3 35.81(4) . 2_554
P2 Cu1 Cu3 102.24(3) . 2_564
P1 Cu1 Cu3 130.91(4) 5_556 2_564
P1 Cu1 Cu3 87.96(3) 5_566 2_564
P1 Cu1 Cu3 25.686(5) . 2_564
Cu3 Cu1 Cu3 143.973(15) 6_557 2_564
Cu1 Cu1 Cu3 76.38(2) 5_556 2_564
Cu1 Cu1 Cu3 33.56(2) 5_566 2_564
Cu5B Cu1 Cu3 108.8(5) 5_566 2_564
Cu5B Cu1 Cu3 154.6(6) 5_556 2_564
Cu5A Cu1 Cu3 112.36(7) 5_566 2_564
Cu5A Cu1 Cu3 159.38(9) 5_556 2_564
Th1 Cu1 Cu3 88.940(15) 6_556 2_564
Th1 Cu1 Cu3 45.818(10) 2_565 2_564
Th1 Cu1 Cu3 79.417(13) 2 2_564
Cu1 Cu1 Cu3 64.332(5) 1_565 2_564
Cu1 Cu1 Cu3 115.667(5) 1_545 2_564
P3 Cu1 Cu3 152.717(10) 6_557 2_564
Cu4 Cu1 Cu3 130.548(16) 6_557 2_564
Cu5B Cu1 Cu3 38.0(3) . 2_564
Cu2 Cu1 Cu3 92.891(14) 2_565 2_564
Cu2 Cu1 Cu3 116.617(18) 2 2_564
Cu5A Cu1 Cu3 35.81(5) . 2_564
Cu3 Cu1 Cu3 51.335(9) 2_554 2_564
P2 Cu1 Cu2 122.57(3) . 5_556
P1 Cu1 Cu2 27.51(3) 5_556 5_556
P1 Cu1 Cu2 78.56(3) 5_566 5_556
P1 Cu1 Cu2 126.06(3) . 5_556
Cu3 Cu1 Cu2 34.556(12) 6_557 5_556
Cu1 Cu1 Cu2 75.88(2) 5_556 5_556
Cu1 Cu1 Cu2 110.63(3) 5_566 5_556
Cu5B Cu1 Cu2 95.9(6) 5_566 5_556
Cu5B Cu1 Cu2 61.5(5) 5_556 5_556
Cu5A Cu1 Cu2 91.11(9) 5_566 5_556
Cu5A Cu1 Cu2 57.68(9) 5_556 5_556
Th1 Cu1 Cu2 47.044(10) 6_556 5_556
Th1 Cu1 Cu2 169.061(11) 2_565 5_556
Th1 Cu1 Cu2 118.033(5) 2 5_556
Cu1 Cu1 Cu2 115.592(5) 1_565 5_556
Cu1 Cu1 Cu2 64.409(5) 1_545 5_556
P3 Cu1 Cu2 63.05(2) 6_557 5_556
Cu4 Cu1 Cu2 93.691(16) 6_557 5_556
Cu5B Cu1 Cu2 99.6(4) . 5_556
Cu2 Cu1 Cu2 128.629(16) 2_565 5_556
Cu2 Cu1 Cu2 103.166(10) 2 5_556
Cu5A Cu1 Cu2 102.49(6) . 5_556
Cu3 Cu1 Cu2 109.432(12) 2_554 5_556
Cu3 Cu1 Cu2 134.982(18) 2_564 5_556
P2 Cu1 Cu2 122.57(3) . 5_566
P1 Cu1 Cu2 78.56(3) 5_556 5_566
P1 Cu1 Cu2 27.51(3) 5_566 5_566
P1 Cu1 Cu2 126.06(3) . 5_566
Cu3 Cu1 Cu2 34.556(12) 6_557 5_566
Cu1 Cu1 Cu2 110.63(3) 5_556 5_566
Cu1 Cu1 Cu2 75.88(2) 5_566 5_566
Cu5B Cu1 Cu2 61.5(5) 5_566 5_566
Cu5B Cu1 Cu2 95.9(6) 5_556 5_566
Cu5A Cu1 Cu2 57.68(9) 5_566 5_566
Cu5A Cu1 Cu2 91.11(9) 5_556 5_566
Th1 Cu1 Cu2 47.044(11) 6_556 5_566
Th1 Cu1 Cu2 118.033(5) 2_565 5_566
Th1 Cu1 Cu2 169.061(11) 2 5_566
Cu1 Cu1 Cu2 64.409(5) 1_565 5_566
Cu1 Cu1 Cu2 115.592(5) 1_545 5_566
P3 Cu1 Cu2 63.05(2) 6_557 5_566
Cu4 Cu1 Cu2 93.691(16) 6_557 5_566
Cu5B Cu1 Cu2 99.6(4) . 5_566
Cu2 Cu1 Cu2 103.166(10) 2_565 5_566
Cu2 Cu1 Cu2 128.629(16) 2 5_566
Cu5A Cu1 Cu2 102.49(6) . 5_566
Cu3 Cu1 Cu2 134.982(18) 2_554 5_566
Cu3 Cu1 Cu2 109.432(12) 2_564 5_566
Cu2 Cu1 Cu2 51.183(10) 5_556 5_566
P2 Cu1 P2 57.995(15) . 1_565
P1 Cu1 P2 152.74(4) 5_556 1_565
P1 Cu1 P2 62.44(3) 5_566 1_565
P1 Cu1 P2 96.64(3) . 1_565
Cu3 Cu1 P2 96.64(2) 6_557 1_565
Cu1 Cu1 P2 150.80(3) 5_556 1_565
Cu1 Cu1 P2 72.682(19) 5_566 1_565
Cu5B Cu1 P2 36.3(6) 5_566 1_565
Cu5B Cu1 P2 109.35(14) 5_556 1_565
Cu5A Cu1 P2 40.87(9) 5_566 1_565
Cu5A Cu1 P2 109.35(5) 5_556 1_565
Th1 Cu1 P2 121.170(15) 6_556 1_565
Th1 Cu1 P2 39.510(16) 2_565 1_565
Th1 Cu1 P2 103.49(2) 2 1_565
Cu1 Cu1 P2 32.004(15) 1_565 1_565
Cu1 Cu1 P2 147.995(15) 1_545 1_565
P3 Cu1 P2 77.96(2) 6_557 1_565
Cu4 Cu1 P2 63.468(16) 6_557 1_565
Cu5B Cu1 P2 111.06(17) . 1_565
Cu2 Cu1 P2 30.841(14) 2_565 1_565
Cu2 Cu1 P2 85.400(17) 2 1_565
Cu5A Cu1 P2 109.69(3) . 1_565
Cu3 Cu1 P2 118.66(2) 2_554 1_565
Cu3 Cu1 P2 75.227(17) 2_564 1_565
Cu2 Cu1 P2 130.66(2) 5_556 1_565
Cu2 Cu1 P2 85.356(16) 5_566 1_565
P2 Cu1 P2 57.995(15) . 1_545
P1 Cu1 P2 62.44(3) 5_556 1_545
P1 Cu1 P2 152.74(4) 5_566 1_545
P1 Cu1 P2 96.64(3) . 1_545
Cu3 Cu1 P2 96.64(2) 6_557 1_545
Cu1 Cu1 P2 72.682(19) 5_556 1_545
Cu1 Cu1 P2 150.80(3) 5_566 1_545
Cu5B Cu1 P2 109.35(13) 5_566 1_545
Cu5B Cu1 P2 36.3(6) 5_556 1_545
Cu5A Cu1 P2 109.35(5) 5_566 1_545
Cu5A Cu1 P2 40.87(9) 5_556 1_545
Th1 Cu1 P2 121.170(15) 6_556 1_545
Th1 Cu1 P2 103.49(2) 2_565 1_545
Th1 Cu1 P2 39.510(16) 2 1_545
Cu1 Cu1 P2 147.995(15) 1_565 1_545
Cu1 Cu1 P2 32.004(15) 1_545 1_545
P3 Cu1 P2 77.96(2) 6_557 1_545
Cu4 Cu1 P2 63.468(16) 6_557 1_545
Cu5B Cu1 P2 111.06(17) . 1_545
Cu2 Cu1 P2 85.400(17) 2_565 1_545
Cu2 Cu1 P2 30.841(14) 2 1_545
Cu5A Cu1 P2 109.69(3) . 1_545
Cu3 Cu1 P2 75.227(17) 2_554 1_545
Cu3 Cu1 P2 118.66(2) 2_564 1_545
Cu2 Cu1 P2 85.356(16) 5_556 1_545
Cu2 Cu1 P2 130.66(2) 5_566 1_545
P2 Cu1 P2 115.99(3) 1_565 1_545
P2 Cu1 Cu3 20.25(3) . .
P1 Cu1 Cu3 122.23(3) 5_556 .
P1 Cu1 Cu3 122.23(3) 5_566 .
P1 Cu1 Cu3 82.36(3) . .
Cu3 Cu1 Cu3 122.847(19) 6_557 .
Cu1 Cu1 Cu3 110.09(3) 5_556 .
Cu1 Cu1 Cu3 110.09(3) 5_566 .
Cu5B Cu1 Cu3 77.6(5) 5_566 .
Cu5B Cu1 Cu3 77.6(5) 5_556 .
Cu5A Cu1 Cu3 81.40(9) 5_566 .
Cu5A Cu1 Cu3 81.40(9) 5_556 .
Th1 Cu1 Cu3 172.17(2) 6_556 .
Th1 Cu1 Cu3 46.145(9) 2_565 .
Th1 Cu1 Cu3 46.145(9) 2 .
Cu1 Cu1 Cu3 90.0 1_565 .
Cu1 Cu1 Cu3 90.0 1_545 .
P3 Cu1 Cu3 87.07(2) 6_557 .
Cu4 Cu1 Cu3 52.809(13) 6_557 .
Cu5B Cu1 Cu3 112.4(4) . .
Cu2 Cu1 Cu3 36.232(10) 2_565 .
Cu2 Cu1 Cu3 36.232(10) 2 .
Cu5A Cu1 Cu3 109.22(7) . .
Cu3 Cu1 Cu3 84.008(11) 2_554 .
Cu3 Cu1 Cu3 84.008(11) 2_564 .
Cu2 Cu1 Cu3 139.074(15) 5_556 .
Cu2 Cu1 Cu3 139.074(15) 5_566 .
P2 Cu1 Cu3 60.183(15) 1_565 .
P2 Cu1 Cu3 60.184(15) 1_545 .
P2 Cu1 P2 149.134(18) . 5_556
P1 Cu1 P2 56.68(3) 5_556 5_556
P1 Cu1 P2 97.04(3) 5_566 5_556
P1 Cu1 P2 61.79(3) . 5_556
Cu3 Cu1 P2 95.63(2) 6_557 5_556
Cu1 Cu1 P2 26.27(2) 5_556 5_556
Cu1 Cu1 P2 71.65(2) 5_566 5_556
Cu5B Cu1 P2 147.1(4) 5_566 5_556
Cu5B Cu1 P2 105.94(15) 5_556 5_556
Cu5A Cu1 P2 143.68(8) 5_566 5_556
Cu5A Cu1 P2 105.37(5) 5_556 5_556
Th1 Cu1 P2 39.162(15) 6_556 5_556
Th1 Cu1 P2 120.18(2) 2_565 5_556
Th1 Cu1 P2 90.182(16) 2 5_556
Cu1 Cu1 P2 114.933(7) 1_565 5_556
Cu1 Cu1 P2 65.068(7) 1_545 5_556
P3 Cu1 P2 127.35(3) 6_557 5_556
Cu4 Cu1 P2 151.743(13) 6_557 5_556
Cu5B Cu1 P2 37.2(3) . 5_556
Cu2 Cu1 P2 166.97(2) 2_565 5_556
Cu2 Cu1 P2 125.966(10) 2 5_556
Cu5A Cu1 P2 39.52(5) . 5_556
Cu3 Cu1 P2 51.634(18) 2_554 5_556
Cu3 Cu1 P2 75.198(17) 2_564 5_556
Cu2 Cu1 P2 64.365(18) 5_556 5_556
Cu2 Cu1 P2 86.075(19) 5_566 5_556
P2 Cu1 P2 144.331(12) 1_565 5_556
P2 Cu1 P2 95.59(2) 1_545 5_556
Cu3 Cu1 P2 134.757(19) . 5_556
P2 Cu1 P2 149.134(18) . 5_566
P1 Cu1 P2 97.04(3) 5_556 5_566
P1 Cu1 P2 56.68(3) 5_566 5_566
P1 Cu1 P2 61.79(3) . 5_566
Cu3 Cu1 P2 95.63(2) 6_557 5_566
Cu1 Cu1 P2 71.65(2) 5_556 5_566
Cu1 Cu1 P2 26.27(2) 5_566 5_566
Cu5B Cu1 P2 105.94(15) 5_566 5_566
Cu5B Cu1 P2 147.1(4) 5_556 5_566
Cu5A Cu1 P2 105.37(5) 5_566 5_566
Cu5A Cu1 P2 143.68(8) 5_556 5_566
Th1 Cu1 P2 39.162(15) 6_556 5_566
Th1 Cu1 P2 90.182(16) 2_565 5_566
Th1 Cu1 P2 120.18(2) 2 5_566
Cu1 Cu1 P2 65.068(7) 1_565 5_566
Cu1 Cu1 P2 114.933(7) 1_545 5_566
P3 Cu1 P2 127.35(3) 6_557 5_566
Cu4 Cu1 P2 151.743(13) 6_557 5_566
Cu5B Cu1 P2 37.2(3) . 5_566
Cu2 Cu1 P2 125.966(10) 2_565 5_566
Cu2 Cu1 P2 166.97(2) 2 5_566
Cu5A Cu1 P2 39.52(5) . 5_566
Cu3 Cu1 P2 75.198(17) 2_554 5_566
Cu3 Cu1 P2 51.634(18) 2_564 5_566
Cu2 Cu1 P2 86.075(19) 5_556 5_566
Cu2 Cu1 P2 64.365(18) 5_566 5_566
P2 Cu1 P2 95.59(2) 1_565 5_566
P2 Cu1 P2 144.331(12) 1_545 5_566
Cu3 Cu1 P2 134.76(2) . 5_566
P2 Cu1 P2 49.865(15) 5_556 5_566
P2 Cu1 P1 96.80(3) . 1_545
P1 Cu1 P1 61.39(4) 5_556 1_545
P1 Cu1 P1 149.38(2) 5_566 1_545
P1 Cu1 P1 57.172(15) . 1_545
Cu3 Cu1 P1 119.375(17) 6_557 1_545
Cu1 Cu1 P1 26.18(2) 5_556 1_545
Cu1 Cu1 P1 105.22(3) 5_566 1_545
Cu5B Cu1 P1 158.34(18) 5_566 1_545
Cu5B Cu1 P1 78.6(4) 5_556 1_545
Cu5A Cu1 P1 158.81(5) 5_566 1_545
Cu5A Cu1 P1 81.65(6) 5_556 1_545
Th1 Cu1 P1 89.901(19) 6_556 1_545
Th1 Cu1 P1 103.12(2) 2_565 1_545
Th1 Cu1 P1 39.765(16) 2 1_545
Cu1 Cu1 P1 147.171(15) 1_565 1_545
Cu1 Cu1 P1 32.828(15) 1_545 1_545
P3 Cu1 P1 122.203(15) 6_557 1_545
Cu4 Cu1 P1 112.609(17) 6_557 1_545
Cu5B Cu1 P1 62.03(13) . 1_545
Cu2 Cu1 P1 121.84(2) 2_565 1_545
Cu2 Cu1 P1 75.894(17) 2 1_545
Cu5A Cu1 P1 61.08(2) . 1_545
Cu3 Cu1 P1 31.512(14) 2_554 1_545
Cu3 Cu1 P1 82.843(17) 2_564 1_545
Cu2 Cu1 P1 87.486(16) 5_556 1_545
Cu2 Cu1 P1 133.01(2) 5_566 1_545
P2 Cu1 P1 140.83(3) 1_565 1_545
P2 Cu1 P1 49.47(2) 1_545 1_545
Cu3 Cu1 P1 85.865(18) . 1_545
P2 Cu1 P1 52.37(2) 5_556 1_545
P2 Cu1 P1 95.62(2) 5_566 1_545
P2 Cu1 P1 96.80(3) . 1_565
P1 Cu1 P1 149.38(2) 5_556 1_565
P1 Cu1 P1 61.39(4) 5_566 1_565
P1 Cu1 P1 57.172(15) . 1_565
Cu3 Cu1 P1 119.375(17) 6_557 1_565
Cu1 Cu1 P1 105.22(3) 5_556 1_565
Cu1 Cu1 P1 26.18(2) 5_566 1_565
Cu5B Cu1 P1 78.6(4) 5_566 1_565
Cu5B Cu1 P1 158.34(18) 5_556 1_565
Cu5A Cu1 P1 81.65(6) 5_566 1_565
Cu5A Cu1 P1 158.81(5) 5_556 1_565
Th1 Cu1 P1 89.901(19) 6_556 1_565
Th1 Cu1 P1 39.765(16) 2_565 1_565
Th1 Cu1 P1 103.12(2) 2 1_565
Cu1 Cu1 P1 32.828(15) 1_565 1_565
Cu1 Cu1 P1 147.171(15) 1_545 1_565
P3 Cu1 P1 122.203(15) 6_557 1_565
Cu4 Cu1 P1 112.609(17) 6_557 1_565
Cu5B Cu1 P1 62.03(13) . 1_565
Cu2 Cu1 P1 75.894(17) 2_565 1_565
Cu2 Cu1 P1 121.84(2) 2 1_565
Cu5A Cu1 P1 61.08(2) . 1_565
Cu3 Cu1 P1 82.843(17) 2_554 1_565
Cu3 Cu1 P1 31.512(14) 2_564 1_565
Cu2 Cu1 P1 133.01(2) 5_556 1_565
Cu2 Cu1 P1 87.486(16) 5_566 1_565
P2 Cu1 P1 49.47(2) 1_565 1_565
P2 Cu1 P1 140.83(3) 1_545 1_565
Cu3 Cu1 P1 85.865(18) . 1_565
P2 Cu1 P1 95.62(2) 5_556 1_565
P2 Cu1 P1 52.38(2) 5_566 1_565
P1 Cu1 P1 114.34(3) 1_545 1_565
P2 Cu1 Cu2 79.01(3) . .
P1 Cu1 Cu2 121.28(3) 5_556 .
P1 Cu1 Cu2 121.28(3) 5_566 .
P1 Cu1 Cu2 23.60(3) . .
Cu3 Cu1 Cu2 178.40(3) 6_557 .
Cu1 Cu1 Cu2 68.50(2) 5_556 .
Cu1 Cu1 Cu2 68.50(2) 5_566 .
Cu5B Cu1 Cu2 119.7(6) 5_566 .
Cu5B Cu1 Cu2 119.7(6) 5_556 .
Cu5A Cu1 Cu2 124.46(9) 5_566 .
Cu5A Cu1 Cu2 124.46(9) 5_556 .
Th1 Cu1 Cu2 113.416(17) 6_556 .
Th1 Cu1 Cu2 44.702(9) 2_565 .
Th1 Cu1 Cu2 44.702(9) 2 .
Cu1 Cu1 Cu2 90.0 1_565 .
Cu1 Cu1 Cu2 90.0 1_545 .
P3 Cu1 Cu2 145.83(3) 6_557 .
Cu4 Cu1 Cu2 111.565(18) 6_557 .
Cu5B Cu1 Cu2 53.7(4) . .
Cu2 Cu1 Cu2 84.264(11) 2_565 .
Cu2 Cu1 Cu2 84.264(11) 2 .
Cu5A Cu1 Cu2 50.46(7) . .
Cu3 Cu1 Cu2 34.959(9) 2_554 .
Cu3 Cu1 Cu2 34.959(9) 2_564 .
Cu2 Cu1 Cu2 144.386(11) 5_556 .
Cu2 Cu1 Cu2 144.386(11) 5_566 .
P2 Cu1 Cu2 84.200(18) 1_565 .
P2 Cu1 Cu2 84.200(18) 1_545 .
Cu3 Cu1 Cu2 58.757(14) . .
P2 Cu1 Cu2 82.914(19) 5_556 .
P2 Cu1 Cu2 82.914(19) 5_566 .
P1 Cu1 Cu2 60.212(16) 1_545 .
P1 Cu1 Cu2 60.212(16) 1_565 .
P2 Cu1 Cu3 97.05(2) . 6_547
P1 Cu1 Cu3 17.12(3) 5_556 6_547
P1 Cu1 Cu3 111.21(3) 5_566 6_547
P1 Cu1 Cu3 120.611(13) . 6_547
Cu3 Cu1 Cu3 55.752(9) 6_557 6_547
Cu1 Cu1 Cu3 68.026(16) 5_556 6_547
Cu1 Cu1 Cu3 140.07(3) 5_566 6_547
Cu5B Cu1 Cu3 106.5(5) 5_566 6_547
Cu5B Cu1 Cu3 34.5(3) 5_556 6_547
Cu5A Cu1 Cu3 102.70(7) 5_566 6_547
Cu5A Cu1 Cu3 32.84(5) 5_556 6_547
Th1 Cu1 Cu3 76.230(12) 6_556 6_547
Th1 Cu1 Cu3 153.583(17) 2_565 6_547
Th1 Cu1 Cu3 85.186(7) 2 6_547
Cu1 Cu1 Cu3 145.753(9) 1_565 6_547
Cu1 Cu1 Cu3 34.249(9) 1_545 6_547
P3 Cu1 Cu3 62.833(12) 6_557 6_547
Cu4 Cu1 Cu3 78.923(12) 6_557 6_547
Cu5B Cu1 Cu3 108.7(2) . 6_547
Cu2 Cu1 Cu3 116.712(15) 2_565 6_547
Cu2 Cu1 Cu3 71.987(11) 2 6_547
Cu5A Cu1 Cu3 110.24(3) . 6_547
Cu3 Cu1 Cu3 95.572(11) 2_554 6_547
Cu3 Cu1 Cu3 144.409(11) 2_564 6_547
Cu2 Cu1 Cu3 34.861(9) 5_556 6_547
Cu2 Cu1 Cu3 83.890(13) 5_566 6_547
P2 Cu1 Cu3 140.00(2) 1_565 6_547
P2 Cu1 Cu3 50.511(16) 1_545 6_547
Cu3 Cu1 Cu3 107.773(10) . 6_547
P2 Cu1 Cu3 72.950(14) 5_556 6_547
P2 Cu1 Cu3 113.810(18) 5_566 6_547
P1 Cu1 Cu3 65.257(15) 1_545 6_547
P1 Cu1 Cu3 166.08(2) 1_565 6_547
Cu2 Cu1 Cu3 124.233(9) . 6_547
P2 Cu1 Cu3 97.05(2) . 6_567
P1 Cu1 Cu3 111.21(3) 5_556 6_567
P1 Cu1 Cu3 17.12(3) 5_566 6_567
P1 Cu1 Cu3 120.611(13) . 6_567
Cu3 Cu1 Cu3 55.752(9) 6_557 6_567
Cu1 Cu1 Cu3 140.07(3) 5_556 6_567
Cu1 Cu1 Cu3 68.026(16) 5_566 6_567
Cu5B Cu1 Cu3 34.5(3) 5_566 6_567
Cu5B Cu1 Cu3 106.5(5) 5_556 6_567
Cu5A Cu1 Cu3 32.84(5) 5_566 6_567
Cu5A Cu1 Cu3 102.70(7) 5_556 6_567
Th1 Cu1 Cu3 76.230(12) 6_556 6_567
Th1 Cu1 Cu3 85.186(7) 2_565 6_567
Th1 Cu1 Cu3 153.583(17) 2 6_567
Cu1 Cu1 Cu3 34.249(9) 1_565 6_567
Cu1 Cu1 Cu3 145.753(9) 1_545 6_567
P3 Cu1 Cu3 62.833(12) 6_557 6_567
Cu4 Cu1 Cu3 78.923(12) 6_557 6_567
Cu5B Cu1 Cu3 108.7(2) . 6_567
Cu2 Cu1 Cu3 71.987(11) 2_565 6_567
Cu2 Cu1 Cu3 116.712(15) 2 6_567
Cu5A Cu1 Cu3 110.24(3) . 6_567
Cu3 Cu1 Cu3 144.409(11) 2_554 6_567
Cu3 Cu1 Cu3 95.572(11) 2_564 6_567
Cu2 Cu1 Cu3 83.890(13) 5_556 6_567
Cu2 Cu1 Cu3 34.861(9) 5_566 6_567
P2 Cu1 Cu3 50.511(16) 1_565 6_567
P2 Cu1 Cu3 140.00(2) 1_545 6_567
Cu3 Cu1 Cu3 107.773(10) . 6_567
P2 Cu1 Cu3 113.810(18) 5_556 6_567
P2 Cu1 Cu3 72.950(14) 5_566 6_567
P1 Cu1 Cu3 166.08(2) 1_545 6_567
P1 Cu1 Cu3 65.257(15) 1_565 6_567
Cu2 Cu1 Cu3 124.233(9) . 6_567
Cu3 Cu1 Cu3 111.504(18) 6_547 6_567
P2 Cu1 P3 49.48(3) . .
P1 Cu1 P3 127.15(3) 5_556 .
P1 Cu1 P3 127.15(3) 5_566 .
P1 Cu1 P3 53.13(3) . .
Cu3 Cu1 P3 152.07(3) 6_557 .
Cu1 Cu1 P3 89.35(3) 5_556 .
Cu1 Cu1 P3 89.35(3) 5_566 .
Cu5B Cu1 P3 99.1(6) 5_566 .
Cu5B Cu1 P3 99.1(6) 5_556 .
Cu5A Cu1 P3 103.70(9) 5_566 .
Cu5A Cu1 P3 103.70(9) 5_556 .
Th1 Cu1 P3 142.95(2) 6_556 .
Th1 Cu1 P3 36.359(7) 2_565 .
Th1 Cu1 P3 36.359(7) 2 .
Cu1 Cu1 P3 90.0 1_565 .
Cu1 Cu1 P3 90.0 1_545 .
P3 Cu1 P3 116.30(2) 6_557 .
Cu4 Cu1 P3 82.03(2) 6_557 .
Cu5B Cu1 P3 83.2(4) . .
Cu2 Cu1 P3 58.525(16) 2_565 .
Cu2 Cu1 P3 58.525(16) 2 .
Cu5A Cu1 P3 79.99(7) . .
Cu3 Cu1 P3 58.117(16) 2_554 .
Cu3 Cu1 P3 58.117(16) 2_564 .
Cu2 Cu1 P3 154.136(6) 5_556 .
Cu2 Cu1 P3 154.136(6) 5_566 .
P2 Cu1 P3 69.857(18) 1_565 .
P2 Cu1 P3 69.857(18) 1_545 .
Cu3 Cu1 P3 29.224(16) . .
P2 Cu1 P3 109.60(2) 5_556 .
P2 Cu1 P3 109.60(2) 5_566 .
P1 Cu1 P3 71.019(18) 1_545 .
P1 Cu1 P3 71.019(18) 1_565 .
Cu2 Cu1 P3 29.533(16) . .
Cu3 Cu1 P3 119.817(11) 6_547 .
Cu3 Cu1 P3 119.817(11) 6_567 .
P2 Cu1 P2 114.13(3) . 6_557
P1 Cu1 P2 54.85(3) 5_556 6_557
P1 Cu1 P2 54.85(3) 5_566 6_557
P1 Cu1 P2 143.26(4) . 6_557
Cu3 Cu1 P2 11.53(2) 6_557 6_557
Cu1 Cu1 P2 102.42(3) 5_556 6_557
Cu1 Cu1 P2 102.42(3) 5_566 6_557
Cu5B Cu1 P2 69.1(6) 5_566 6_557
Cu5B Cu1 P2 69.1(6) 5_556 6_557
Cu5A Cu1 P2 64.32(9) 5_566 6_557
Cu5A Cu1 P2 64.32(9) 5_556 6_557
Th1 Cu1 P2 53.448(17) 6_556 6_557
Th1 Cu1 P2 141.109(10) 2_565 6_557
Th1 Cu1 P2 141.109(10) 2 6_557
Cu1 Cu1 P2 90.0 1_565 6_557
Cu1 Cu1 P2 90.0 1_545 6_557
P3 Cu1 P2 47.31(2) 6_557 6_557
Cu4 Cu1 P2 81.57(2) 6_557 6_557
Cu5B Cu1 P2 113.2(4) . 6_557
Cu2 Cu1 P2 107.336(19) 2_565 6_557
Cu2 Cu1 P2 107.336(19) 2 6_557
Cu5A Cu1 P2 116.40(7) . 6_557
Cu3 Cu1 P2 135.469(17) 2_554 6_557
Cu3 Cu1 P2 135.469(17) 2_564 6_557
Cu2 Cu1 P2 28.304(8) 5_556 6_557
Cu2 Cu1 P2 28.304(8) 5_566 6_557
P2 Cu1 P2 102.512(15) 1_565 6_557
P2 Cu1 P2 102.512(15) 1_545 6_557
Cu3 Cu1 P2 134.38(2) . 6_557
P2 Cu1 P2 85.180(15) 5_556 6_557
P2 Cu1 P2 85.180(15) 5_566 6_557
P1 Cu1 P2 115.751(17) 1_545 6_557
P1 Cu1 P2 115.751(17) 1_565 6_557
Cu2 Cu1 P2 166.86(2) . 6_557
Cu3 Cu1 P2 56.536(9) 6_547 6_557
Cu3 Cu1 P2 56.536(9) 6_567 6_557
P3 Cu1 P2 163.60(2) . 6_557
P2 Cu1 Th1 128.954(9) . 6_546
P1 Cu1 Th1 22.32(3) 5_556 6_546
P1 Cu1 Th1 107.13(3) 5_566 6_546
P1 Cu1 Th1 89.88(2) . 6_546
Cu3 Cu1 Th1 74.200(13) 6_557 6_546
Cu1 Cu1 Th1 36.582(17) 5_556 6_546
Cu1 Cu1 Th1 104.67(2) 5_566 6_546
Cu5B Cu1 Th1 135.5(6) 5_566 6_546
Cu5B Cu1 Th1 71.72(18) 5_556 6_546
Cu5A Cu1 Th1 130.70(9) 5_566 6_546
Cu5A Cu1 Th1 70.78(5) 5_556 6_546
Th1 Cu1 Th1 49.926(6) 6_556 6_546
Th1 Cu1 Th1 149.228(16) 2_565 6_546
Th1 Cu1 Th1 87.275(5) 2 6_546
Cu1 Cu1 Th1 139.926(5) 1_565 6_546
Cu1 Cu1 Th1 40.075(5) 1_545 6_546
P3 Cu1 Th1 96.900(15) 6_557 6_546
Cu4 Cu1 Th1 117.089(10) 6_557 6_546
Cu5B Cu1 Th1 71.1(2) . 6_546
Cu2 Cu1 Th1 153.936(12) 2_565 6_546
Cu2 Cu1 Th1 101.298(6) 2 6_546
Cu5A Cu1 Th1 72.98(4) . 6_546
Cu3 Cu1 Th1 69.918(9) 2_554 6_546
Cu3 Cu1 Th1 108.635(13) 2_564 6_546
Cu2 Cu1 Th1 39.715(7) 5_556 6_546
Cu2 Cu1 Th1 83.791(11) 5_566 6_546
P2 Cu1 Th1 169.15(2) 1_565 6_546
P2 Cu1 Th1 71.597(14) 1_545 6_546
Cu3 Cu1 Th1 129.626(6) . 6_546
P2 Cu1 Th1 34.741(11) 5_556 6_546
P2 Cu1 Th1 79.829(12) 5_566 6_546
P1 Cu1 Th1 49.900(16) 1_545 6_546
P1 Cu1 Th1 129.93(2) 1_565 6_546
Cu2 Cu1 Th1 104.823(10) . 6_546
Cu3 Cu1 Th1 38.209(8) 6_547 6_546
Cu3 Cu1 Th1 118.640(15) 6_567 6_546
P3 Cu1 Th1 120.917(10) . 6_546
P2 Cu1 Th1 67.455(11) 6_557 6_546
P2 Cu1 Th1 128.954(9) . 6_566
P1 Cu1 Th1 107.13(3) 5_556 6_566
P1 Cu1 Th1 22.32(3) 5_566 6_566
P1 Cu1 Th1 89.88(2) . 6_566
Cu3 Cu1 Th1 74.200(13) 6_557 6_566
Cu1 Cu1 Th1 104.67(2) 5_556 6_566
Cu1 Cu1 Th1 36.582(17) 5_566 6_566
Cu5B Cu1 Th1 71.72(18) 5_566 6_566
Cu5B Cu1 Th1 135.5(6) 5_556 6_566
Cu5A Cu1 Th1 70.78(5) 5_566 6_566
Cu5A Cu1 Th1 130.70(9) 5_556 6_566
Th1 Cu1 Th1 49.926(6) 6_556 6_566
Th1 Cu1 Th1 87.275(6) 2_565 6_566
Th1 Cu1 Th1 149.228(16) 2 6_566
Cu1 Cu1 Th1 40.075(6) 1_565 6_566
Cu1 Cu1 Th1 139.926(5) 1_545 6_566
P3 Cu1 Th1 96.900(15) 6_557 6_566
Cu4 Cu1 Th1 117.089(10) 6_557 6_566
Cu5B Cu1 Th1 71.1(2) . 6_566
Cu2 Cu1 Th1 101.298(5) 2_565 6_566
Cu2 Cu1 Th1 153.936(12) 2 6_566
Cu5A Cu1 Th1 72.98(4) . 6_566
Cu3 Cu1 Th1 108.635(13) 2_554 6_566
Cu3 Cu1 Th1 69.918(9) 2_564 6_566
Cu2 Cu1 Th1 83.791(11) 5_556 6_566
Cu2 Cu1 Th1 39.715(7) 5_566 6_566
P2 Cu1 Th1 71.597(14) 1_565 6_566
P2 Cu1 Th1 169.15(2) 1_545 6_566
Cu3 Cu1 Th1 129.626(6) . 6_566
P2 Cu1 Th1 79.829(12) 5_556 6_566
P2 Cu1 Th1 34.741(11) 5_566 6_566
P1 Cu1 Th1 129.93(2) 1_545 6_566
P1 Cu1 Th1 49.900(16) 1_565 6_566
Cu2 Cu1 Th1 104.823(10) . 6_566
Cu3 Cu1 Th1 118.640(15) 6_547 6_566
Cu3 Cu1 Th1 38.209(8) 6_567 6_566
P3 Cu1 Th1 120.917(10) . 6_566
P2 Cu1 Th1 67.455(11) 6_557 6_566
Th1 Cu1 Th1 99.852(11) 6_546 6_566
P2 Cu2 P2 110.26(5) 2_554 2_564
P2 Cu2 P3 111.40(4) 2_554 .
P2 Cu2 P3 111.40(4) 2_564 .
P2 Cu2 P1 111.49(4) 2_554 .
P2 Cu2 P1 111.49(4) 2_564 .
P3 Cu2 P1 100.49(5) . .
P2 Cu2 Cu4 126.80(4) 2_554 5_666
P2 Cu2 Cu4 54.99(3) 2_564 5_666
P3 Cu2 Cu4 56.47(2) . 5_666
P1 Cu2 Cu4 121.51(2) . 5_666
P2 Cu2 Cu4 54.99(3) 2_554 5_656
P2 Cu2 Cu4 126.80(4) 2_564 5_656
P3 Cu2 Cu4 56.47(2) . 5_656
P1 Cu2 Cu4 121.51(2) . 5_656
Cu4 Cu2 Cu4 91.22(3) 5_666 5_656
P2 Cu2 Cu3 56.55(3) 2_554 2_554
P2 Cu2 Cu3 127.08(4) 2_564 2_554
P3 Cu2 Cu3 121.15(3) . 2_554
P1 Cu2 Cu3 55.00(2) . 2_554
Cu4 Cu2 Cu3 176.04(3) 5_666 2_554
Cu4 Cu2 Cu3 89.560(13) 5_656 2_554
P2 Cu2 Cu3 127.08(4) 2_554 2_564
P2 Cu2 Cu3 56.55(3) 2_564 2_564
P3 Cu2 Cu3 121.15(3) . 2_564
P1 Cu2 Cu3 55.00(2) . 2_564
Cu4 Cu2 Cu3 89.560(13) 5_666 2_564
Cu4 Cu2 Cu3 176.04(3) 5_656 2_564
Cu3 Cu2 Cu3 89.40(3) 2_554 2_564
P2 Cu2 Cu5B 65.2(2) 2_554 6_656
P2 Cu2 Cu5B 65.2(2) 2_564 6_656
P3 Cu2 Cu5B 87.0(5) . 6_656
P1 Cu2 Cu5B 172.5(5) . 6_656
Cu4 Cu2 Cu5B 62.8(3) 5_666 6_656
Cu4 Cu2 Cu5B 62.8(3) 5_656 6_656
Cu3 Cu2 Cu5B 120.9(3) 2_554 6_656
Cu3 Cu2 Cu5B 120.9(3) 2_564 6_656
P2 Cu2 Cu5A 66.74(4) 2_554 6_656
P2 Cu2 Cu5A 66.74(4) 2_564 6_656
P3 Cu2 Cu5A 83.35(8) . 6_656
P1 Cu2 Cu5A 176.15(8) . 6_656
Cu4 Cu2 Cu5A 60.65(5) 5_666 6_656
Cu4 Cu2 Cu5A 60.65(5) 5_656 6_656
Cu3 Cu2 Cu5A 122.97(4) 2_554 6_656
Cu3 Cu2 Cu5A 122.97(4) 2_564 6_656
Cu5B Cu2 Cu5A 3.6(5) 6_656 6_656
P2 Cu2 Th1 62.35(3) 2_554 .
P2 Cu2 Th1 62.35(3) 2_564 .
P3 Cu2 Th1 165.38(4) . .
P1 Cu2 Th1 94.13(3) . .
Cu4 Cu2 Th1 115.23(2) 5_666 .
Cu4 Cu2 Th1 115.23(2) 5_656 .
Cu3 Cu2 Th1 67.824(18) 2_554 .
Cu3 Cu2 Th1 67.824(18) 2_564 .
Cu5B Cu2 Th1 78.4(5) 6_656 .
Cu5A Cu2 Th1 82.03(8) 6_656 .
P2 Cu2 Th1 160.96(3) 2_554 2_565
P2 Cu2 Th1 88.78(3) 2_564 2_565
P3 Cu2 Th1 58.65(2) . 2_565
P1 Cu2 Th1 59.13(2) . 2_565
Cu4 Cu2 Th1 63.700(15) 5_666 2_565
Cu4 Cu2 Th1 113.51(2) 5_656 2_565
Cu3 Cu2 Th1 112.46(2) 2_554 2_565
Cu3 Cu2 Th1 63.473(15) 2_564 2_565
Cu5B Cu2 Th1 126.1(3) 6_656 2_565
Cu5A Cu2 Th1 123.63(5) 6_656 2_565
Th1 Cu2 Th1 131.265(14) . 2_565
P2 Cu2 Th1 88.78(3) 2_554 2
P2 Cu2 Th1 160.96(3) 2_564 2
P3 Cu2 Th1 58.65(2) . 2
P1 Cu2 Th1 59.13(2) . 2
Cu4 Cu2 Th1 113.51(2) 5_666 2
Cu4 Cu2 Th1 63.700(15) 5_656 2
Cu3 Cu2 Th1 63.473(15) 2_554 2
Cu3 Cu2 Th1 112.46(2) 2_564 2
Cu5B Cu2 Th1 126.1(3) 6_656 2
Cu5A Cu2 Th1 123.63(5) 6_656 2
Th1 Cu2 Th1 131.265(14) . 2
Th1 Cu2 Th1 72.182(13) 2_565 2
P2 Cu2 Cu4 90.66(4) 2_554 .
P2 Cu2 Cu4 90.66(4) 2_564 .
P3 Cu2 Cu4 38.50(3) . .
P1 Cu2 Cu4 138.99(4) . .
Cu4 Cu2 Cu4 45.615(13) 5_666 .
Cu4 Cu2 Cu4 45.615(13) 5_656 .
Cu3 Cu2 Cu4 135.098(13) 2_554 .
Cu3 Cu2 Cu4 135.098(13) 2_564 .
Cu5B Cu2 Cu4 48.5(5) 6_656 .
Cu5A Cu2 Cu4 44.85(8) 6_656 .
Th1 Cu2 Cu4 126.88(2) . .
Th1 Cu2 Cu4 88.718(15) 2_565 .
Th1 Cu2 Cu4 88.718(15) 2 .
P2 Cu2 Cu5A 91.65(5) 2_554 .
P2 Cu2 Cu5A 91.65(5) 2_564 .
P3 Cu2 Cu5A 137.45(8) . .
P1 Cu2 Cu5A 36.96(7) . .
Cu4 Cu2 Cu5A 134.200(15) 5_666 .
Cu4 Cu2 Cu5A 134.200(15) 5_656 .
Cu3 Cu2 Cu5A 44.703(13) 2_554 .
Cu3 Cu2 Cu5A 44.703(13) 2_564 .
Cu5B Cu2 Cu5A 135.6(5) 6_656 .
Cu5A Cu2 Cu5A 139.20(3) 6_656 .
Th1 Cu2 Cu5A 57.17(7) . .
Th1 Cu2 Cu5A 88.01(6) 2_565 .
Th1 Cu2 Cu5A 88.01(6) 2 .
Cu4 Cu2 Cu5A 175.95(7) . .
P2 Cu2 Cu2 145.13(3) 2_554 1_565
P2 Cu2 Cu2 34.87(3) 2_564 1_565
P3 Cu2 Cu2 90.0 . 1_565
P1 Cu2 Cu2 90.0 . 1_565
Cu4 Cu2 Cu2 44.388(13) 5_666 1_565
Cu4 Cu2 Cu2 135.612(13) 5_656 1_565
Cu3 Cu2 Cu2 134.698(13) 2_554 1_565
Cu3 Cu2 Cu2 45.302(13) 2_564 1_565
Cu5B Cu2 Cu2 90.0 6_656 1_565
Cu5A Cu2 Cu2 90.0 6_656 1_565
Th1 Cu2 Cu2 90.0 . 1_565
Th1 Cu2 Cu2 53.909(6) 2_565 1_565
Th1 Cu2 Cu2 126.091(7) 2 1_565
Cu4 Cu2 Cu2 90.0 . 1_565
Cu5A Cu2 Cu2 90.0 . 1_565
P2 Cu2 Cu2 34.87(3) 2_554 1_545
P2 Cu2 Cu2 145.13(3) 2_564 1_545
P3 Cu2 Cu2 90.0 . 1_545
P1 Cu2 Cu2 90.0 . 1_545
Cu4 Cu2 Cu2 135.612(13) 5_666 1_545
Cu4 Cu2 Cu2 44.388(13) 5_656 1_545
Cu3 Cu2 Cu2 45.302(13) 2_554 1_545
Cu3 Cu2 Cu2 134.698(13) 2_564 1_545
Cu5B Cu2 Cu2 90.000(1) 6_656 1_545
Cu5A Cu2 Cu2 90.0 6_656 1_545
Th1 Cu2 Cu2 90.0 . 1_545
Th1 Cu2 Cu2 126.091(7) 2_565 1_545
Th1 Cu2 Cu2 53.909(7) 2 1_545
Cu4 Cu2 Cu2 90.0 . 1_545
Cu5A Cu2 Cu2 90.0 . 1_545
Cu2 Cu2 Cu2 180.00(4) 1_565 1_545
P2 Cu2 Cu5B 93.5(2) 2_554 .
P2 Cu2 Cu5B 93.5(2) 2_564 .
P3 Cu2 Cu5B 134.2(4) . .
P1 Cu2 Cu5B 33.7(4) . .
Cu4 Cu2 Cu5B 133.85(6) 5_666 .
Cu4 Cu2 Cu5B 133.85(6) 5_656 .
Cu3 Cu2 Cu5B 44.75(2) 2_554 .
Cu3 Cu2 Cu5B 44.75(2) 2_564 .
Cu5B Cu2 Cu5B 138.81(12) 6_656 .
Cu5A Cu2 Cu5B 142.4(4) 6_656 .
Th1 Cu2 Cu5B 60.4(4) . .
Th1 Cu2 Cu5B 85.4(3) 2_565 .
Th1 Cu2 Cu5B 85.4(3) 2 .
Cu4 Cu2 Cu5B 172.7(4) . .
Cu5A Cu2 Cu5B 3.2(4) . .
Cu2 Cu2 Cu5B 90.0 1_565 .
Cu2 Cu2 Cu5B 90.000(1) 1_545 .
P2 Cu2 Cu1 28.43(3) 2_554 2_554
P2 Cu2 Cu1 82.75(3) 2_564 2_554
P3 Cu2 Cu1 117.67(3) . 2_554
P1 Cu2 Cu1 131.32(3) . 2_554
Cu4 Cu2 Cu1 105.03(2) 5_666 2_554
Cu4 Cu2 Cu1 66.637(17) 5_656 2_554
Cu3 Cu2 Cu1 78.832(18) 2_554 2_554
Cu3 Cu2 Cu1 116.87(2) 2_564 2_554
Cu5B Cu2 Cu1 43.0(4) 6_656 2_554
Cu5A Cu2 Cu1 45.68(6) 6_656 2_554
Th1 Cu2 Cu1 50.172(11) . 2_554
Th1 Cu2 Cu1 168.602(16) 2_565 2_554
Th1 Cu2 Cu1 116.076(5) 2 2_554
Cu4 Cu2 Cu1 83.793(17) . 2_554
Cu5A Cu2 Cu1 99.80(6) . 2_554
Cu2 Cu2 Cu1 117.320(6) 1_565 2_554
Cu2 Cu2 Cu1 62.680(6) 1_545 2_554
Cu5B Cu2 Cu1 102.6(3) . 2_554
P2 Cu2 Cu1 82.75(3) 2_554 2_564
P2 Cu2 Cu1 28.43(3) 2_564 2_564
P3 Cu2 Cu1 117.67(3) . 2_564
P1 Cu2 Cu1 131.32(3) . 2_564
Cu4 Cu2 Cu1 66.637(17) 5_666 2_564
Cu4 Cu2 Cu1 105.03(2) 5_656 2_564
Cu3 Cu2 Cu1 116.87(2) 2_554 2_564
Cu3 Cu2 Cu1 78.832(18) 2_564 2_564
Cu5B Cu2 Cu1 43.0(4) 6_656 2_564
Cu5A Cu2 Cu1 45.68(6) 6_656 2_564
Th1 Cu2 Cu1 50.172(11) . 2_564
Th1 Cu2 Cu1 116.076(5) 2_565 2_564
Th1 Cu2 Cu1 168.602(16) 2 2_564
Cu4 Cu2 Cu1 83.793(17) . 2_564
Cu5A Cu2 Cu1 99.80(6) . 2_564
Cu2 Cu2 Cu1 62.680(6) 1_565 2_564
Cu2 Cu2 Cu1 117.320(6) 1_545 2_564
Cu5B Cu2 Cu1 102.6(3) . 2_564
Cu1 Cu2 Cu1 54.639(11) 2_554 2_564
P2 Cu2 P3 100.23(4) 2_554 5_666
P2 Cu2 P3 57.27(3) 2_564 5_666
P3 Cu2 P3 63.58(4) . 5_666
P1 Cu2 P3 148.13(2) . 5_666
Cu4 Cu2 P3 26.634(17) 5_666 5_666
Cu4 Cu2 P3 74.435(19) 5_656 5_666
Cu3 Cu2 P3 156.77(2) 2_554 5_666
Cu3 Cu2 P3 107.652(14) 2_564 5_666
Cu5B Cu2 P3 36.5(3) 6_656 5_666
Cu5A Cu2 P3 34.15(5) 6_656 5_666
Th1 Cu2 P3 103.50(2) . 5_666
Th1 Cu2 P3 89.637(16) 2_565 5_666
Th1 Cu2 P3 120.62(2) 2 5_666
Cu4 Cu2 P3 33.425(14) . 5_666
Cu5A Cu2 P3 148.89(4) . 5_666
Cu2 Cu2 P3 64.044(8) 1_565 5_666
Cu2 Cu2 P3 115.956(8) 1_545 5_666
Cu5B Cu2 P3 150.49(18) . 5_666
Cu1 Cu2 P3 79.380(18) 2_554 5_666
Cu1 Cu2 P3 54.122(18) 2_564 5_666
P2 Cu2 P3 57.27(3) 2_554 5_656
P2 Cu2 P3 100.23(4) 2_564 5_656
P3 Cu2 P3 63.58(4) . 5_656
P1 Cu2 P3 148.13(2) . 5_656
Cu4 Cu2 P3 74.435(19) 5_666 5_656
Cu4 Cu2 P3 26.634(17) 5_656 5_656
Cu3 Cu2 P3 107.652(14) 2_554 5_656
Cu3 Cu2 P3 156.77(2) 2_564 5_656
Cu5B Cu2 P3 36.5(3) 6_656 5_656
Cu5A Cu2 P3 34.15(5) 6_656 5_656
Th1 Cu2 P3 103.50(2) . 5_656
Th1 Cu2 P3 120.62(2) 2_565 5_656
Th1 Cu2 P3 89.637(16) 2 5_656
Cu4 Cu2 P3 33.425(14) . 5_656
Cu5A Cu2 P3 148.89(4) . 5_656
Cu2 Cu2 P3 115.956(8) 1_565 5_656
Cu2 Cu2 P3 64.044(8) 1_545 5_656
Cu5B Cu2 P3 150.49(18) . 5_656
Cu1 Cu2 P3 54.122(18) 2_554 5_656
Cu1 Cu2 P3 79.380(18) 2_564 5_656
P3 Cu2 P3 51.913(16) 5_666 5_656
P2 Cu2 P3 56.65(3) 2_554 2_554
P2 Cu2 P3 99.67(4) 2_564 2_554
P3 Cu2 P3 148.86(2) . 2_554
P1 Cu2 P3 64.71(3) . 2_554
Cu4 Cu2 P3 154.66(2) 5_666 2_554
Cu4 Cu2 P3 106.175(14) 5_656 2_554
Cu3 Cu2 P3 27.761(18) 2_554 2_554
Cu3 Cu2 P3 74.365(19) 2_564 2_554
Cu5B Cu2 P3 108.7(4) 6_656 2_554
Cu5A Cu2 P3 111.91(7) 6_656 2_554
Th1 Cu2 P3 40.663(15) . 2_554
Th1 Cu2 P3 122.17(2) 2_565 2_554
Th1 Cu2 P3 90.980(16) 2 2_554
Cu4 Cu2 P3 147.305(17) . 2_554
Cu5A Cu2 P3 35.21(5) . 2_554
Cu2 Cu2 P3 115.942(8) 1_565 2_554
Cu2 Cu2 P3 64.059(8) 1_545 2_554
Cu5B Cu2 P3 37.4(3) . 2_554
Cu1 Cu2 P3 67.093(19) 2_554 2_554
Cu1 Cu2 P3 90.705(19) 2_564 2_554
P3 Cu2 P3 141.99(2) 5_666 2_554
P3 Cu2 P3 113.886(14) 5_656 2_554
P2 Cu2 P3 99.67(4) 2_554 2_564
P2 Cu2 P3 56.65(3) 2_564 2_564
P3 Cu2 P3 148.86(2) . 2_564
P1 Cu2 P3 64.71(3) . 2_564
Cu4 Cu2 P3 106.175(14) 5_666 2_564
Cu4 Cu2 P3 154.66(2) 5_656 2_564
Cu3 Cu2 P3 74.365(19) 2_554 2_564
Cu3 Cu2 P3 27.761(18) 2_564 2_564
Cu5B Cu2 P3 108.7(4) 6_656 2_564
Cu5A Cu2 P3 111.91(7) 6_656 2_564
Th1 Cu2 P3 40.663(15) . 2_564
Th1 Cu2 P3 90.980(16) 2_565 2_564
Th1 Cu2 P3 122.17(2) 2 2_564
Cu4 Cu2 P3 147.305(17) . 2_564
Cu5A Cu2 P3 35.21(5) . 2_564
Cu2 Cu2 P3 64.059(8) 1_565 2_564
Cu2 Cu2 P3 115.942(8) 1_545 2_564
Cu5B Cu2 P3 37.4(3) . 2_564
Cu1 Cu2 P3 90.705(19) 2_554 2_564
Cu1 Cu2 P3 67.093(19) 2_564 2_564
P3 Cu2 P3 113.886(14) 5_666 2_564
P3 Cu2 P3 141.99(2) 5_656 2_564
P3 Cu2 P3 51.883(15) 2_554 2_564
P2 Cu2 Cu1 87.46(3) 2_554 5_556
P2 Cu2 Cu1 131.64(4) 2_564 5_556
P3 Cu2 Cu1 102.05(3) . 5_556
P1 Cu2 Cu1 25.743(6) . 5_556
Cu4 Cu2 Cu1 143.18(2) 5_666 5_556
Cu4 Cu2 Cu1 100.554(15) 5_656 5_556
Cu3 Cu2 Cu1 32.905(16) 2_554 5_556
Cu3 Cu2 Cu1 76.590(18) 2_564 5_556
Cu5B Cu2 Cu1 152.53(18) 6_656 5_556
Cu5A Cu2 Cu1 153.595(19) 6_656 5_556
Th1 Cu2 Cu1 91.117(16) . 5_556
Th1 Cu2 Cu1 79.665(14) 2_565 5_556
Th1 Cu2 Cu1 46.504(10) 2 5_556
Cu4 Cu2 Cu1 135.197(17) . 5_556
Cu5A Cu2 Cu1 41.66(5) . 5_556
Cu2 Cu2 Cu1 115.591(5) 1_565 5_556
Cu2 Cu2 Cu1 64.409(5) 1_545 5_556
Cu5B Cu2 Cu1 39.3(3) . 5_556
Cu1 Cu2 Cu1 111.682(10) 2_554 5_556
Cu1 Cu2 Cu1 139.991(17) 2_564 5_556
P3 Cu2 Cu1 165.34(2) 5_666 5_556
P3 Cu2 Cu1 126.110(11) 5_656 5_556
P3 Cu2 Cu1 52.436(18) 2_554 5_556
P3 Cu2 Cu1 76.601(18) 2_564 5_556
P2 Cu2 Cu1 131.64(4) 2_554 5_566
P2 Cu2 Cu1 87.46(3) 2_564 5_566
P3 Cu2 Cu1 102.05(3) . 5_566
P1 Cu2 Cu1 25.743(6) . 5_566
Cu4 Cu2 Cu1 100.554(15) 5_666 5_566
Cu4 Cu2 Cu1 143.18(2) 5_656 5_566
Cu3 Cu2 Cu1 76.590(18) 2_554 5_566
Cu3 Cu2 Cu1 32.905(16) 2_564 5_566
Cu5B Cu2 Cu1 152.53(18) 6_656 5_566
Cu5A Cu2 Cu1 153.595(19) 6_656 5_566
Th1 Cu2 Cu1 91.117(16) . 5_566
Th1 Cu2 Cu1 46.504(10) 2_565 5_566
Th1 Cu2 Cu1 79.665(14) 2 5_566
Cu4 Cu2 Cu1 135.197(17) . 5_566
Cu5A Cu2 Cu1 41.66(5) . 5_566
Cu2 Cu2 Cu1 64.409(5) 1_565 5_566
Cu2 Cu2 Cu1 115.591(5) 1_545 5_566
Cu5B Cu2 Cu1 39.3(3) . 5_566
Cu1 Cu2 Cu1 139.991(17) 2_554 5_566
Cu1 Cu2 Cu1 111.682(10) 2_564 5_566
P3 Cu2 Cu1 126.110(11) 5_666 5_566
P3 Cu2 Cu1 165.34(2) 5_656 5_566
P3 Cu2 Cu1 76.601(18) 2_554 5_566
P3 Cu2 Cu1 52.436(18) 2_564 5_566
Cu1 Cu2 Cu1 51.183(10) 5_556 5_566
P2 Cu2 Cu5A 129.60(6) 2_554 2_565
P2 Cu2 Cu5A 86.00(4) 2_564 2_565
P3 Cu2 Cu5A 26.24(2) . 2_565
P1 Cu2 Cu5A 105.09(6) . 2_565
Cu4 Cu2 Cu5A 32.24(3) 5_666 2_565
Cu4 Cu2 Cu5A 76.72(4) 5_656 2_565
Cu3 Cu2 Cu5A 144.61(4) 2_554 2_565
Cu3 Cu2 Cu5A 102.06(4) 2_564 2_565
Cu5B Cu2 Cu5A 81.6(4) 6_656 2_565
Cu5A Cu2 Cu5A 78.36(7) 6_656 2_565
Th1 Cu2 Cu5A 147.46(3) . 2_565
Th1 Cu2 Cu5A 48.73(6) 2_565 2_565
Th1 Cu2 Cu5A 81.27(3) 2 2_565
Cu4 Cu2 Cu5A 40.24(5) . 2_565
Cu5A Cu2 Cu5A 136.68(4) . 2_565
Cu2 Cu2 Cu5A 64.47(2) 1_565 2_565
Cu2 Cu2 Cu5A 115.53(2) 1_545 2_565
Cu5B Cu2 Cu5A 134.1(3) . 2_565
Cu1 Cu2 Cu5A 122.65(6) 2_554 2_565
Cu1 Cu2 Cu5A 98.27(4) 2_564 2_565
P3 Cu2 Cu5A 48.33(5) 5_666 2_565
P3 Cu2 Cu5A 73.29(5) 5_656 2_565
P3 Cu2 Cu5A 169.56(6) 2_554 2_565
P3 Cu2 Cu5A 127.32(3) 2_564 2_565
Cu1 Cu2 Cu5A 117.38(5) 5_556 2_565
Cu1 Cu2 Cu5A 95.02(5) 5_566 2_565
P2 Cu2 Cu5A 86.00(4) 2_554 2
P2 Cu2 Cu5A 129.60(6) 2_564 2
P3 Cu2 Cu5A 26.24(2) . 2
P1 Cu2 Cu5A 105.09(6) . 2
Cu4 Cu2 Cu5A 76.72(4) 5_666 2
Cu4 Cu2 Cu5A 32.24(3) 5_656 2
Cu3 Cu2 Cu5A 102.06(4) 2_554 2
Cu3 Cu2 Cu5A 144.61(4) 2_564 2
Cu5B Cu2 Cu5A 81.6(4) 6_656 2
Cu5A Cu2 Cu5A 78.36(7) 6_656 2
Th1 Cu2 Cu5A 147.46(3) . 2
Th1 Cu2 Cu5A 81.27(3) 2_565 2
Th1 Cu2 Cu5A 48.73(6) 2 2
Cu4 Cu2 Cu5A 40.24(5) . 2
Cu5A Cu2 Cu5A 136.68(4) . 2
Cu2 Cu2 Cu5A 115.53(2) 1_565 2
Cu2 Cu2 Cu5A 64.47(2) 1_545 2
Cu5B Cu2 Cu5A 134.1(3) . 2
Cu1 Cu2 Cu5A 98.27(4) 2_554 2
Cu1 Cu2 Cu5A 122.65(6) 2_564 2
P3 Cu2 Cu5A 73.29(5) 5_666 2
P3 Cu2 Cu5A 48.33(5) 5_656 2
P3 Cu2 Cu5A 127.32(3) 2_554 2
P3 Cu2 Cu5A 169.56(6) 2_564 2
Cu1 Cu2 Cu5A 95.02(5) 5_556 2
Cu1 Cu2 Cu5A 117.38(5) 5_566 2
Cu5A Cu2 Cu5A 51.07(5) 2_565 2
P2 Cu2 Cu3 118.96(3) 2_554 .
P2 Cu2 Cu3 118.96(3) 2_564 .
P3 Cu2 Cu3 18.24(3) . .
P1 Cu2 Cu3 82.26(3) . .
Cu4 Cu2 Cu3 67.023(18) 5_666 .
Cu4 Cu2 Cu3 67.023(18) 5_656 .
Cu3 Cu2 Cu3 109.798(19) 2_554 .
Cu3 Cu2 Cu3 109.798(19) 2_564 .
Cu5B Cu2 Cu3 105.2(5) 6_656 .
Cu5A Cu2 Cu3 101.59(8) 6_656 .
Th1 Cu2 Cu3 176.38(2) . .
Th1 Cu2 Cu3 46.553(9) 2_565 .
Th1 Cu2 Cu3 46.553(9) 2 .
Cu4 Cu2 Cu3 56.735(15) . .
Cu5A Cu2 Cu3 119.22(7) . .
Cu2 Cu2 Cu3 90.0 1_565 .
Cu2 Cu2 Cu3 90.0 1_545 .
Cu5B Cu2 Cu3 116.0(4) . .
Cu1 Cu2 Cu3 132.691(15) 2_554 .
Cu1 Cu2 Cu3 132.691(16) 2_564 .
P3 Cu2 Cu3 79.738(19) 5_666 .
P3 Cu2 Cu3 79.738(19) 5_656 .
P3 Cu2 Cu3 136.600(19) 2_554 .
P3 Cu2 Cu3 136.600(19) 2_564 .
Cu1 Cu2 Cu3 85.622(14) 5_556 .
Cu1 Cu2 Cu3 85.622(14) 5_566 .
Cu5A Cu2 Cu3 34.81(3) 2_565 .
Cu5A Cu2 Cu3 34.81(3) 2 .
P2 Cu2 P3 152.79(4) 2_554 1_565
P2 Cu2 P3 59.76(3) 2_564 1_565
P3 Cu2 P3 58.087(14) . 1_565
P1 Cu2 P3 95.52(2) . 1_565
Cu4 Cu2 P3 26.02(2) 5_666 1_565
Cu4 Cu2 P3 108.34(2) 5_656 1_565
Cu3 Cu2 P3 150.52(3) 2_554 1_565
Cu3 Cu2 P3 71.117(18) 2_564 1_565
Cu5B Cu2 P3 88.4(3) 6_656 1_565
Cu5A Cu2 P3 86.49(4) 6_656 1_565
Th1 Cu2 P3 120.765(14) . 1_565
Th1 Cu2 P3 39.186(16) 2_565 1_565
Th1 Cu2 P3 103.001(19) 2 1_565
Cu4 Cu2 P3 65.562(17) . 1_565
Cu5A Cu2 P3 112.92(3) . 1_565
Cu2 Cu2 P3 31.912(14) 1_565 1_565
Cu2 Cu2 P3 148.087(14) 1_545 1_565
Cu5B Cu2 P3 111.63(16) . 1_565
Cu1 Cu2 P3 129.42(2) 2_554 1_565
Cu1 Cu2 P3 81.713(16) 2_564 1_565
P3 Cu2 P3 52.64(3) 5_666 1_565
P3 Cu2 P3 97.834(16) 5_656 1_565
P3 Cu2 P3 145.464(15) 2_554 1_565
P3 Cu2 P3 94.652(12) 2_564 1_565
Cu1 Cu2 P3 118.49(2) 5_556 1_565
Cu1 Cu2 P3 75.148(17) 5_566 1_565
Cu5A Cu2 P3 32.86(3) 2_565 1_565
Cu5A Cu2 P3 83.79(3) 2 1_565
Cu3 Cu2 P3 59.863(14) . 1_565
P2 Cu2 P3 59.76(3) 2_554 1_545
P2 Cu2 P3 152.79(4) 2_564 1_545
P3 Cu2 P3 58.087(14) . 1_545
P1 Cu2 P3 95.52(2) . 1_545
Cu4 Cu2 P3 108.34(2) 5_666 1_545
Cu4 Cu2 P3 26.02(2) 5_656 1_545
Cu3 Cu2 P3 71.117(18) 2_554 1_545
Cu3 Cu2 P3 150.52(3) 2_564 1_545
Cu5B Cu2 P3 88.4(3) 6_656 1_545
Cu5A Cu2 P3 86.49(4) 6_656 1_545
Th1 Cu2 P3 120.765(14) . 1_545
Th1 Cu2 P3 103.001(19) 2_565 1_545
Th1 Cu2 P3 39.186(16) 2 1_545
Cu4 Cu2 P3 65.562(17) . 1_545
Cu5A Cu2 P3 112.92(3) . 1_545
Cu2 Cu2 P3 148.087(14) 1_565 1_545
Cu2 Cu2 P3 31.912(14) 1_545 1_545
Cu5B Cu2 P3 111.63(16) . 1_545
Cu1 Cu2 P3 81.713(16) 2_554 1_545
Cu1 Cu2 P3 129.42(2) 2_564 1_545
P3 Cu2 P3 97.834(16) 5_666 1_545
P3 Cu2 P3 52.64(3) 5_656 1_545
P3 Cu2 P3 94.652(12) 2_554 1_545
P3 Cu2 P3 145.464(15) 2_564 1_545
Cu1 Cu2 P3 75.148(17) 5_556 1_545
Cu1 Cu2 P3 118.49(2) 5_566 1_545
Cu5A Cu2 P3 83.79(3) 2_565 1_545
Cu5A Cu2 P3 32.86(3) 2 1_545
Cu3 Cu2 P3 59.863(14) . 1_545
P3 Cu2 P3 116.17(3) 1_565 1_545
P2 Cu2 P1 61.37(3) 2_554 1_545
P2 Cu2 P1 152.35(4) 2_564 1_545
P3 Cu2 P1 95.80(3) . 1_545
P1 Cu2 P1 56.284(15) . 1_545
Cu4 Cu2 P1 152.19(3) 5_666 1_545
Cu4 Cu2 P1 72.281(17) 5_656 1_545
Cu3 Cu2 P1 25.383(19) 2_554 1_545
Cu3 Cu2 P1 105.47(2) 2_564 1_545
Cu5B Cu2 P1 123.39(5) 6_656 1_545
Cu5A Cu2 P1 123.630(15) 6_656 1_545
Th1 Cu2 P1 92.289(18) . 1_545
Th1 Cu2 P1 101.84(2) 2_565 1_545
Th1 Cu2 P1 39.211(16) 2 1_545
Cu4 Cu2 P1 114.763(17) . 1_545
Cu5A Cu2 P1 63.67(3) . 1_545
Cu2 Cu2 P1 146.284(15) 1_565 1_545
Cu2 Cu2 P1 33.716(15) 1_545 1_545
Cu5B Cu2 P1 62.51(14) . 1_545
Cu1 Cu2 P1 89.124(15) 2_554 1_545
Cu1 Cu2 P1 138.44(2) 2_564 1_545
P3 Cu2 P1 146.67(2) 5_666 1_545
P3 Cu2 P1 96.162(16) 5_656 1_545
P3 Cu2 P1 53.062(19) 2_554 1_545
P3 Cu2 P1 97.28(2) 2_564 1_545
Cu1 Cu2 P1 30.764(14) 5_556 1_545
Cu1 Cu2 P1 81.912(17) 5_566 1_545
Cu5A Cu2 P1 120.20(3) 2_565 1_545
Cu5A Cu2 P1 77.64(5) 2 1_545
Cu3 Cu2 P1 85.711(18) . 1_545
P3 Cu2 P1 139.42(3) 1_565 1_545
P3 Cu2 P1 49.26(2) 1_545 1_545
P2 Cu2 P1 152.35(4) 2_554 1_565
P2 Cu2 P1 61.37(3) 2_564 1_565
P3 Cu2 P1 95.80(3) . 1_565
P1 Cu2 P1 56.284(15) . 1_565
Cu4 Cu2 P1 72.281(17) 5_666 1_565
Cu4 Cu2 P1 152.19(3) 5_656 1_565
Cu3 Cu2 P1 105.47(2) 2_554 1_565
Cu3 Cu2 P1 25.383(19) 2_564 1_565
Cu5B Cu2 P1 123.39(5) 6_656 1_565
Cu5A Cu2 P1 123.630(15) 6_656 1_565
Th1 Cu2 P1 92.289(18) . 1_565
Th1 Cu2 P1 39.211(16) 2_565 1_565
Th1 Cu2 P1 101.84(2) 2 1_565
Cu4 Cu2 P1 114.763(17) . 1_565
Cu5A Cu2 P1 63.67(3) . 1_565
Cu2 Cu2 P1 33.716(15) 1_565 1_565
Cu2 Cu2 P1 146.284(15) 1_545 1_565
Cu5B Cu2 P1 62.51(14) . 1_565
Cu1 Cu2 P1 138.44(2) 2_554 1_565
Cu1 Cu2 P1 89.125(15) 2_564 1_565
P3 Cu2 P1 96.162(16) 5_666 1_565
P3 Cu2 P1 146.67(2) 5_656 1_565
P3 Cu2 P1 97.28(2) 2_554 1_565
P3 Cu2 P1 53.062(19) 2_564 1_565
Cu1 Cu2 P1 81.912(17) 5_556 1_565
Cu1 Cu2 P1 30.764(14) 5_566 1_565
Cu5A Cu2 P1 77.64(5) 2_565 1_565
Cu5A Cu2 P1 120.20(3) 2 1_565
Cu3 Cu2 P1 85.711(18) . 1_565
P3 Cu2 P1 49.26(2) 1_565 1_565
P3 Cu2 P1 139.42(3) 1_545 1_565
P1 Cu2 P1 112.57(3) 1_545 1_565
P2 Cu2 Cu1 120.51(3) 2_554 .
P2 Cu2 Cu1 120.51(3) 2_564 .
P3 Cu2 Cu1 77.72(3) . .
P1 Cu2 Cu1 22.77(3) . .
Cu4 Cu2 Cu1 107.570(19) 5_666 .
Cu4 Cu2 Cu1 107.570(19) 5_656 .
Cu3 Cu2 Cu1 68.505(19) 2_554 .
Cu3 Cu2 Cu1 68.505(19) 2_564 .
Cu5B Cu2 Cu1 164.7(5) 6_656 .
Cu5A Cu2 Cu1 161.08(8) 6_656 .
Th1 Cu2 Cu1 116.896(18) . .
Th1 Cu2 Cu1 44.376(9) 2_565 .
Th1 Cu2 Cu1 44.376(9) 2 .
Cu4 Cu2 Cu1 116.222(19) . .
Cu5A Cu2 Cu1 59.73(7) . .
Cu2 Cu2 Cu1 90.0 1_565 .
Cu2 Cu2 Cu1 90.0 1_545 .
Cu5B Cu2 Cu1 56.5(4) . .
Cu1 Cu2 Cu1 147.022(11) 2_554 .
Cu1 Cu2 Cu1 147.022(11) 2_564 .
P3 Cu2 Cu1 131.974(19) 5_666 .
P3 Cu2 Cu1 131.974(19) 5_656 .
P3 Cu2 Cu1 84.98(2) 2_554 .
P3 Cu2 Cu1 84.98(2) 2_564 .
Cu1 Cu2 Cu1 35.613(11) 5_556 .
Cu1 Cu2 Cu1 35.613(11) 5_566 .
Cu5A Cu2 Cu1 84.59(5) 2_565 .
Cu5A Cu2 Cu1 84.59(5) 2 .
Cu3 Cu2 Cu1 59.487(13) . .
P3 Cu2 Cu1 83.546(18) 1_565 .
P3 Cu2 Cu1 83.546(18) 1_545 .
P1 Cu2 Cu1 59.215(16) 1_545 .
P1 Cu2 Cu1 59.215(16) 1_565 .
P2 Cu2 Cu5B 127.4(3) 2_554 2_565
P2 Cu2 Cu5B 86.02(7) 2_564 2_565
P3 Cu2 Cu5B 25.73(8) . 2_565
P1 Cu2 Cu5B 107.3(3) . 2_565
Cu4 Cu2 Cu5B 31.73(9) 5_666 2_565
Cu4 Cu2 Cu5B 74.9(2) 5_656 2_565
Cu3 Cu2 Cu5B 145.31(11) 2_554 2_565
Cu3 Cu2 Cu5B 104.0(2) 2_564 2_565
Cu5B Cu2 Cu5B 79.4(3) 6_656 2_565
Cu5A Cu2 Cu5B 76.2(2) 6_656 2_565
Th1 Cu2 Cu5B 146.87(11) . 2_565
Th1 Cu2 Cu5B 51.1(3) 2_565 2_565
Th1 Cu2 Cu5B 81.84(10) 2 2_565
Cu4 Cu2 Cu5B 37.9(3) . 2_565
Cu5A Cu2 Cu5B 139.1(3) . 2_565
Cu2 Cu2 Cu5B 65.65(15) 1_565 2_565
Cu2 Cu2 Cu5B 114.35(15) 1_545 2_565
Cu5B Cu2 Cu5B 136.52(14) . 2_565
Cu1 Cu2 Cu5B 120.3(3) 2_554 2_565
Cu1 Cu2 Cu5B 97.25(14) 2_564 2_565
P3 Cu2 Cu5B 46.6(2) 5_666 2_565
P3 Cu2 Cu5B 70.9(3) 5_656 2_565
P3 Cu2 Cu5B 171.4(2) 2_554 2_565
P3 Cu2 Cu5B 128.91(19) 2_564 2_565
Cu1 Cu2 Cu5B 119.0(2) 5_556 2_565
Cu1 Cu2 Cu5B 97.4(3) 5_566 2_565
Cu5A Cu2 Cu5B 2.4(3) 2_565 2_565
Cu5A Cu2 Cu5B 49.93(15) 2 2_565
Cu3 Cu2 Cu5B 35.60(12) . 2_565
P3 Cu2 Cu5B 34.29(18) 1_565 2_565
P3 Cu2 Cu5B 82.75(13) 1_545 2_565
P1 Cu2 Cu5B 120.54(8) 1_545 2_565
P1 Cu2 Cu5B 79.8(2) 1_565 2_565
Cu1 Cu2 Cu5B 86.6(2) . 2_565
P2 Cu2 Cu5B 86.02(7) 2_554 2
P2 Cu2 Cu5B 127.4(3) 2_564 2
P3 Cu2 Cu5B 25.73(8) . 2
P1 Cu2 Cu5B 107.3(3) . 2
Cu4 Cu2 Cu5B 74.9(2) 5_666 2
Cu4 Cu2 Cu5B 31.73(9) 5_656 2
Cu3 Cu2 Cu5B 104.0(2) 2_554 2
Cu3 Cu2 Cu5B 145.31(11) 2_564 2
Cu5B Cu2 Cu5B 79.4(3) 6_656 2
Cu5A Cu2 Cu5B 76.2(2) 6_656 2
Th1 Cu2 Cu5B 146.87(11) . 2
Th1 Cu2 Cu5B 81.84(10) 2_565 2
Th1 Cu2 Cu5B 51.1(3) 2 2
Cu4 Cu2 Cu5B 37.9(3) . 2
Cu5A Cu2 Cu5B 139.1(3) . 2
Cu2 Cu2 Cu5B 114.35(15) 1_565 2
Cu2 Cu2 Cu5B 65.65(15) 1_545 2
Cu5B Cu2 Cu5B 136.52(14) . 2
Cu1 Cu2 Cu5B 97.25(14) 2_554 2
Cu1 Cu2 Cu5B 120.3(3) 2_564 2
P3 Cu2 Cu5B 70.9(3) 5_666 2
P3 Cu2 Cu5B 46.6(2) 5_656 2
P3 Cu2 Cu5B 128.91(19) 2_554 2
P3 Cu2 Cu5B 171.4(2) 2_564 2
Cu1 Cu2 Cu5B 97.4(3) 5_556 2
Cu1 Cu2 Cu5B 119.0(2) 5_566 2
Cu5A Cu2 Cu5B 49.93(15) 2_565 2
Cu5A Cu2 Cu5B 2.4(3) 2 2
Cu3 Cu2 Cu5B 35.60(12) . 2
P3 Cu2 Cu5B 82.75(13) 1_565 2
P3 Cu2 Cu5B 34.29(18) 1_545 2
P1 Cu2 Cu5B 79.8(2) 1_545 2
P1 Cu2 Cu5B 120.54(8) 1_565 2
Cu1 Cu2 Cu5B 86.6(2) . 2
Cu5B Cu2 Cu5B 48.7(3) 2_565 2
P2 Cu2 P1 58.07(3) 2_554 6_656
P2 Cu2 P1 58.07(3) 2_564 6_656
P3 Cu2 P1 107.36(4) . 6_656
P1 Cu2 P1 152.15(3) . 6_656
Cu4 Cu2 P1 75.83(2) 5_666 6_656
Cu4 Cu2 P1 75.83(2) 5_656 6_656
Cu3 Cu2 P1 108.12(2) 2_554 6_656
Cu3 Cu2 P1 108.12(2) 2_564 6_656
Cu5B Cu2 P1 20.4(5) 6_656 6_656
Cu5A Cu2 P1 24.00(8) 6_656 6_656
Th1 Cu2 P1 58.025(18) . 6_656
Th1 Cu2 P1 138.187(13) 2_565 6_656
Th1 Cu2 P1 138.187(13) 2 6_656
Cu4 Cu2 P1 68.86(2) . 6_656
Cu5A Cu2 P1 115.19(7) . 6_656
Cu2 Cu2 P1 90.0 1_565 6_656
Cu2 Cu2 P1 90.0 1_545 6_656
Cu5B Cu2 P1 118.4(4) . 6_656
Cu1 Cu2 P1 30.516(9) 2_554 6_656
Cu1 Cu2 P1 30.516(9) 2_564 6_656
P3 Cu2 P1 52.19(2) 5_666 6_656
P3 Cu2 P1 52.19(2) 5_656 6_656
P3 Cu2 P1 90.46(2) 2_554 6_656
P3 Cu2 P1 90.46(2) 2_564 6_656
Cu1 Cu2 P1 140.823(17) 5_556 6_656
Cu1 Cu2 P1 140.823(17) 5_566 6_656
Cu5A Cu2 P1 99.98(6) 2_565 6_656
Cu5A Cu2 P1 99.98(6) 2 6_656
Cu3 Cu2 P1 125.59(2) . 6_656
P3 Cu2 P1 99.07(2) 1_565 6_656
P3 Cu2 P1 99.07(2) 1_545 6_656
P1 Cu2 P1 119.392(12) 1_545 6_656
P1 Cu2 P1 119.392(12) 1_565 6_656
Cu1 Cu2 P1 174.92(2) . 6_656
Cu5B Cu2 P1 98.0(2) 2_565 6_656
Cu5B Cu2 P1 98.0(2) 2 6_656
P2 Cu2 Cu5B 114.55(13) 2_554 6_666
P2 Cu2 Cu5B 24.4(4) 2_564 6_666
P3 Cu2 Cu5B 88.2(3) . 6_666
P1 Cu2 Cu5B 125.7(3) . 6_666
Cu4 Cu2 Cu5B 32.1(3) 5_666 6_666
Cu4 Cu2 Cu5B 107.9(4) 5_656 6_666
Cu3 Cu2 Cu5B 150.6(3) 2_554 6_666
Cu3 Cu2 Cu5B 74.6(4) 2_564 6_666
Cu5B Cu2 Cu5B 53.9(2) 6_656 6_666
Cu5A Cu2 Cu5B 54.0(3) 6_656 6_666
Th1 Cu2 Cu5B 83.2(3) . 6_666
Th1 Cu2 Cu5B 82.61(10) 2_565 6_666
Th1 Cu2 Cu5B 145.4(2) 2 6_666
Cu4 Cu2 Cu5B 67.0(4) . 6_666
Cu5A Cu2 Cu5B 114.9(4) . 6_666
Cu2 Cu2 Cu5B 36.1(2) 1_565 6_666
Cu2 Cu2 Cu5B 143.9(2) 1_545 6_666
Cu5B Cu2 Cu5B 116.3(2) . 6_666
Cu1 Cu2 Cu5B 86.55(11) 2_554 6_666
Cu1 Cu2 Cu5B 36.69(15) 2_564 6_666
P3 Cu2 Cu5B 34.2(4) 5_666 6_666
P3 Cu2 Cu5B 83.1(3) 5_656 6_666
P3 Cu2 Cu5B 122.9(3) 2_554 6_666
P3 Cu2 Cu5B 80.5(4) 2_564 6_666
Cu1 Cu2 Cu5B 150.6(3) 5_556 6_666
Cu1 Cu2 Cu5B 100.0(3) 5_566 6_666
Cu5A Cu2 Cu5B 64.3(2) 2_565 6_666
Cu5A Cu2 Cu5B 105.2(3) 2 6_666
Cu3 Cu2 Cu5B 98.9(2) . 6_666
P3 Cu2 Cu5B 45.37(11) 1_565 6_666
P3 Cu2 Cu5B 132.0(4) 1_545 6_666
P1 Cu2 Cu5B 175.12(15) 1_545 6_666
P1 Cu2 Cu5B 69.6(3) 1_565 6_666
Cu1 Cu2 Cu5B 124.62(15) . 6_666
Cu5B Cu2 Cu5B 63.8(3) 2_565 6_666
Cu5B Cu2 Cu5B 103.01(13) 2 6_666
P1 Cu2 Cu5B 56.49(13) 6_656 6_666
P2 Cu2 Cu5B 24.4(4) 2_554 6_646
P2 Cu2 Cu5B 114.55(13) 2_564 6_646
P3 Cu2 Cu5B 88.2(3) . 6_646
P1 Cu2 Cu5B 125.7(3) . 6_646
Cu4 Cu2 Cu5B 107.9(4) 5_666 6_646
Cu4 Cu2 Cu5B 32.1(3) 5_656 6_646
Cu3 Cu2 Cu5B 74.6(4) 2_554 6_646
Cu3 Cu2 Cu5B 150.6(3) 2_564 6_646
Cu5B Cu2 Cu5B 53.9(2) 6_656 6_646
Cu5A Cu2 Cu5B 54.0(3) 6_656 6_646
Th1 Cu2 Cu5B 83.2(3) . 6_646
Th1 Cu2 Cu5B 145.4(2) 2_565 6_646
Th1 Cu2 Cu5B 82.61(10) 2 6_646
Cu4 Cu2 Cu5B 67.0(4) . 6_646
Cu5A Cu2 Cu5B 114.9(4) . 6_646
Cu2 Cu2 Cu5B 143.9(2) 1_565 6_646
Cu2 Cu2 Cu5B 36.1(2) 1_545 6_646
Cu5B Cu2 Cu5B 116.3(2) . 6_646
Cu1 Cu2 Cu5B 36.69(15) 2_554 6_646
Cu1 Cu2 Cu5B 86.55(11) 2_564 6_646
P3 Cu2 Cu5B 83.1(3) 5_666 6_646
P3 Cu2 Cu5B 34.2(4) 5_656 6_646
P3 Cu2 Cu5B 80.5(4) 2_554 6_646
P3 Cu2 Cu5B 122.9(3) 2_564 6_646
Cu1 Cu2 Cu5B 100.0(3) 5_556 6_646
Cu1 Cu2 Cu5B 150.6(3) 5_566 6_646
Cu5A Cu2 Cu5B 105.2(3) 2_565 6_646
Cu5A Cu2 Cu5B 64.3(2) 2 6_646
Cu3 Cu2 Cu5B 98.9(2) . 6_646
P3 Cu2 Cu5B 132.0(4) 1_565 6_646
P3 Cu2 Cu5B 45.37(11) 1_545 6_646
P1 Cu2 Cu5B 69.6(3) 1_545 6_646
P1 Cu2 Cu5B 175.12(15) 1_565 6_646
Cu1 Cu2 Cu5B 124.62(15) . 6_646
Cu5B Cu2 Cu5B 103.01(13) 2_565 6_646
Cu5B Cu2 Cu5B 63.8(3) 2 6_646
P1 Cu2 Cu5B 56.49(13) 6_656 6_646
Cu5B Cu2 Cu5B 107.8(5) 6_666 6_646
P2 Cu2 P2 124.84(3) 2_554 .
P2 Cu2 P2 124.84(3) 2_564 .
P3 Cu2 P2 48.29(4) . .
P1 Cu2 P2 52.20(3) . .
Cu4 Cu2 P2 87.30(2) 5_666 .
Cu4 Cu2 P2 87.30(2) 5_656 .
Cu3 Cu2 P2 88.87(2) 2_554 .
Cu3 Cu2 P2 88.87(2) 2_564 .
Cu5B Cu2 P2 135.3(5) 6_656 .
Cu5A Cu2 P2 131.64(8) 6_656 .
Th1 Cu2 P2 146.33(2) . .
Th1 Cu2 P2 36.123(7) 2_565 .
Th1 Cu2 P2 36.123(6) 2 .
Cu4 Cu2 P2 86.79(2) . .
Cu5A Cu2 P2 89.16(7) . .
Cu2 Cu2 P2 90.0 1_565 .
Cu2 Cu2 P2 90.0 1_545 .
Cu5B Cu2 P2 85.9(4) . .
Cu1 Cu2 P2 150.976(9) 2_554 .
Cu1 Cu2 P2 150.976(9) 2_564 .
P3 Cu2 P2 106.69(2) 5_666 .
P3 Cu2 P2 106.69(2) 5_656 .
P3 Cu2 P2 111.32(2) 2_554 .
P3 Cu2 P2 111.32(2) 2_564 .
Cu1 Cu2 P2 58.927(17) 5_556 .
Cu1 Cu2 P2 58.927(17) 5_566 .
Cu5A Cu2 P2 58.46(5) 2_565 .
Cu5A Cu2 P2 58.46(5) 2 .
Cu3 Cu2 P2 30.054(17) . .
P3 Cu2 P2 69.407(17) 1_565 .
P3 Cu2 P2 69.407(17) 1_545 .
P1 Cu2 P2 70.112(18) 1_545 .
P1 Cu2 P2 70.112(18) 1_565 .
Cu1 Cu2 P2 29.433(17) . .
Cu5B Cu2 P2 60.1(2) 2_565 .
Cu5B Cu2 P2 60.1(2) 2 .
P1 Cu2 P2 155.65(3) 6_656 .
Cu5B Cu2 P2 114.73(12) 6_666 .
Cu5B Cu2 P2 114.73(12) 6_646 .
P3 Cu3 P2 100.37(5) . .
P3 Cu3 P1 114.23(4) . 2_565
P2 Cu3 P1 112.57(4) . 2_565
P3 Cu3 P1 114.23(4) . 2
P2 Cu3 P1 112.57(4) . 2
P1 Cu3 P1 103.31(5) 2_565 2
P3 Cu3 Cu1 103.60(4) . 6_657
P2 Cu3 Cu1 156.03(4) . 6_657
P1 Cu3 Cu1 56.72(3) 2_565 6_657
P1 Cu3 Cu1 56.72(3) 2 6_657
P3 Cu3 Cu5A 60.29(7) . 2_565
P2 Cu3 Cu5A 124.85(10) . 2_565
P1 Cu3 Cu5A 54.06(7) 2_565 2_565
P1 Cu3 Cu5A 122.52(11) 2 2_565
Cu1 Cu3 Cu5A 68.90(11) 6_657 2_565
P3 Cu3 Cu5A 60.29(7) . 2
P2 Cu3 Cu5A 124.85(10) . 2
P1 Cu3 Cu5A 122.52(11) 2_565 2
P1 Cu3 Cu5A 54.06(7) 2 2
Cu1 Cu3 Cu5A 68.90(11) 6_657 2
Cu5A Cu3 Cu5A 91.61(13) 2_565 2
P3 Cu3 Cu2 119.45(3) . 2
P2 Cu3 Cu2 53.60(2) . 2
P1 Cu3 Cu2 126.06(4) 2_565 2
P1 Cu3 Cu2 59.03(3) 2 2
Cu1 Cu3 Cu2 112.54(2) 6_657 2
Cu5A Cu3 Cu2 178.45(10) 2_565 2
Cu5A Cu3 Cu2 89.49(6) 2 2
P3 Cu3 Cu2 119.45(3) . 2_565
P2 Cu3 Cu2 53.60(2) . 2_565
P1 Cu3 Cu2 59.03(3) 2_565 2_565
P1 Cu3 Cu2 126.06(4) 2 2_565
Cu1 Cu3 Cu2 112.54(2) 6_657 2_565
Cu5A Cu3 Cu2 89.49(6) 2_565 2_565
Cu5A Cu3 Cu2 178.45(10) 2 2_565
Cu2 Cu3 Cu2 89.40(3) 2 2_565
P3 Cu3 Cu5B 62.8(4) . 2_565
P2 Cu3 Cu5B 129.8(6) . 2_565
P1 Cu3 Cu5B 52.2(3) 2_565 2_565
P1 Cu3 Cu5B 117.5(6) 2 2_565
Cu1 Cu3 Cu5B 63.7(6) 6_657 2_565
Cu5A Cu3 Cu5B 5.2(6) 2_565 2_565
Cu5A Cu3 Cu5B 89.2(3) 2 2_565
Cu2 Cu3 Cu5B 176.2(6) 2 2_565
Cu2 Cu3 Cu5B 91.9(3) 2_565 2_565
P3 Cu3 Cu5B 62.8(3) . 2
P2 Cu3 Cu5B 129.8(6) . 2
P1 Cu3 Cu5B 117.5(6) 2_565 2
P1 Cu3 Cu5B 52.2(3) 2 2
Cu1 Cu3 Cu5B 63.7(6) 6_657 2
Cu5A Cu3 Cu5B 89.2(3) 2_565 2
Cu5A Cu3 Cu5B 5.2(6) 2 2
Cu2 Cu3 Cu5B 91.9(3) 2 2
Cu2 Cu3 Cu5B 176.2(6) 2_565 2
Cu5B Cu3 Cu5B 86.5(6) 2_565 2
P3 Cu3 Th1 170.51(4) . 1_556
P2 Cu3 Th1 89.12(3) . 1_556
P1 Cu3 Th1 61.22(3) 2_565 1_556
P1 Cu3 Th1 61.22(3) 2 1_556
Cu1 Cu3 Th1 66.910(19) 6_657 1_556
Cu5A Cu3 Th1 114.08(8) 2_565 1_556
Cu5A Cu3 Th1 114.08(8) 2 1_556
Cu2 Cu3 Th1 66.401(17) 2 1_556
Cu2 Cu3 Th1 66.401(17) 2_565 1_556
Cu5B Cu3 Th1 111.0(4) 2_565 1_556
Cu5B Cu3 Th1 111.0(4) 2 1_556
P3 Cu3 Th1 58.73(3) . 2
P2 Cu3 Th1 58.84(2) . 2
P1 Cu3 Th1 164.28(3) 2_565 2
P1 Cu3 Th1 92.36(2) 2 2
Cu1 Cu3 Th1 136.522(15) 6_657 2
Cu5A Cu3 Th1 117.93(8) 2_565 2
Cu5A Cu3 Th1 68.05(10) 2 2
Cu2 Cu3 Th1 61.526(15) 2 2
Cu2 Cu3 Th1 110.46(2) 2_565 2
Cu5B Cu3 Th1 121.1(4) 2_565 2
Cu5B Cu3 Th1 73.2(6) 2 2
Th1 Cu3 Th1 127.897(15) 1_556 2
P3 Cu3 Th1 58.73(3) . 2_565
P2 Cu3 Th1 58.84(2) . 2_565
P1 Cu3 Th1 92.36(2) 2_565 2_565
P1 Cu3 Th1 164.28(3) 2 2_565
Cu1 Cu3 Th1 136.522(15) 6_657 2_565
Cu5A Cu3 Th1 68.05(10) 2_565 2_565
Cu5A Cu3 Th1 117.93(8) 2 2_565
Cu2 Cu3 Th1 110.46(2) 2 2_565
Cu2 Cu3 Th1 61.526(15) 2_565 2_565
Cu5B Cu3 Th1 73.2(6) 2_565 2_565
Cu5B Cu3 Th1 121.1(4) 2 2_565
Th1 Cu3 Th1 127.897(15) 1_556 2_565
Th1 Cu3 Th1 71.942(13) 2 2_565
P3 Cu3 Cu4 136.45(4) . 6_557
P2 Cu3 Cu4 36.08(3) . 6_557
P1 Cu3 Cu4 91.32(3) 2_565 6_557
P1 Cu3 Cu4 91.32(3) 2 6_557
Cu1 Cu3 Cu4 119.95(2) 6_657 6_557
Cu5A Cu3 Cu4 134.19(6) 2_565 6_557
Cu5A Cu3 Cu4 134.19(6) 2 6_557
Cu2 Cu3 Cu4 44.762(13) 2 6_557
Cu2 Cu3 Cu4 44.762(13) 2_565 6_557
Cu5B Cu3 Cu4 136.2(2) 2_565 6_557
Cu5B Cu3 Cu4 136.2(2) 2 6_557
Th1 Cu3 Cu4 53.035(13) 1_556 6_557
Th1 Cu3 Cu4 87.037(15) 2 6_557
Th1 Cu3 Cu4 87.037(15) 2_565 6_557
P3 Cu3 Cu3 90.0 . 1_565
P2 Cu3 Cu3 90.0 . 1_565
P1 Cu3 Cu3 38.35(3) 2_565 1_565
P1 Cu3 Cu3 141.65(3) 2 1_565
Cu1 Cu3 Cu3 90.0 6_657 1_565
Cu5A Cu3 Cu3 44.20(6) 2_565 1_565
Cu5A Cu3 Cu3 135.80(6) 2 1_565
Cu2 Cu3 Cu3 134.699(13) 2 1_565
Cu2 Cu3 Cu3 45.302(13) 2_565 1_565
Cu5B Cu3 Cu3 46.8(3) 2_565 1_565
Cu5B Cu3 Cu3 133.2(3) 2 1_565
Th1 Cu3 Cu3 90.0 1_556 1_565
Th1 Cu3 Cu3 125.972(6) 2 1_565
Th1 Cu3 Cu3 54.029(6) 2_565 1_565
Cu4 Cu3 Cu3 90.0 6_557 1_565
P3 Cu3 Cu3 90.0 . 1_545
P2 Cu3 Cu3 90.0 . 1_545
P1 Cu3 Cu3 141.65(3) 2_565 1_545
P1 Cu3 Cu3 38.35(3) 2 1_545
Cu1 Cu3 Cu3 90.0 6_657 1_545
Cu5A Cu3 Cu3 135.80(6) 2_565 1_545
Cu5A Cu3 Cu3 44.20(6) 2 1_545
Cu2 Cu3 Cu3 45.302(13) 2 1_545
Cu2 Cu3 Cu3 134.699(13) 2_565 1_545
Cu5B Cu3 Cu3 133.2(3) 2_565 1_545
Cu5B Cu3 Cu3 46.8(3) 2 1_545
Th1 Cu3 Cu3 90.0 1_556 1_545
Th1 Cu3 Cu3 54.029(6) 2 1_545
Th1 Cu3 Cu3 125.972(6) 2_565 1_545
Cu4 Cu3 Cu3 90.0 6_557 1_545
Cu3 Cu3 Cu3 180.0 1_565 1_545
P3 Cu3 P2 66.87(4) . 6_657
P2 Cu3 P2 167.23(3) . 6_657
P1 Cu3 P2 74.54(3) 2_565 6_657
P1 Cu3 P2 74.54(3) 2 6_657
Cu1 Cu3 P2 36.74(2) 6_657 6_657
Cu5A Cu3 P2 49.79(9) 2_565 6_657
Cu5A Cu3 P2 49.79(9) 2 6_657
Cu2 Cu3 P2 131.701(17) 2 6_657
Cu2 Cu3 P2 131.701(17) 2_565 6_657
Cu5B Cu3 P2 45.5(5) 2_565 6_657
Cu5B Cu3 P2 45.5(5) 2 6_657
Th1 Cu3 P2 103.65(2) 1_556 6_657
Th1 Cu3 P2 111.54(2) 2 6_657
Th1 Cu3 P2 111.54(2) 2_565 6_657
Cu4 Cu3 P2 156.68(3) 6_557 6_657
Cu3 Cu3 P2 90.0 1_565 6_657
Cu3 Cu3 P2 90.0 1_545 6_657
P3 Cu3 Cu4 32.20(3) . .
P2 Cu3 Cu4 132.57(4) . .
P1 Cu3 Cu4 95.71(3) 2_565 .
P1 Cu3 Cu4 95.71(3) 2 .
Cu1 Cu3 Cu4 71.40(2) 6_657 .
Cu5A Cu3 Cu4 47.11(5) 2_565 .
Cu5A Cu3 Cu4 47.11(5) 2 .
Cu2 Cu3 Cu4 133.598(14) 2 .
Cu2 Cu3 Cu4 133.598(14) 2_565 .
Cu5B Cu3 Cu4 46.43(14) 2_565 .
Cu5B Cu3 Cu4 46.43(14) 2 .
Th1 Cu3 Cu4 138.31(2) 1_556 .
Th1 Cu3 Cu4 83.784(14) 2 .
Th1 Cu3 Cu4 83.784(14) 2_565 .
Cu4 Cu3 Cu4 168.65(2) 6_557 .
Cu3 Cu3 Cu4 90.0 1_565 .
Cu3 Cu3 Cu4 90.0 1_545 .
P2 Cu3 Cu4 34.67(2) 6_657 .
P3 Cu3 Cu4 27.467(8) . 5_656
P2 Cu3 Cu4 104.34(3) . 5_656
P1 Cu3 Cu4 132.65(4) 2_565 5_656
P1 Cu3 Cu4 88.15(3) 2 5_656
Cu1 Cu3 Cu4 97.00(2) 6_657 5_656
Cu5A Cu3 Cu4 80.84(5) 2_565 5_656
Cu5A Cu3 Cu4 36.10(8) 2 5_656
Cu2 Cu3 Cu4 99.430(15) 2 5_656
Cu2 Cu3 Cu4 143.17(2) 2_565 5_656
Cu5B Cu3 Cu4 81.56(18) 2_565 5_656
Cu5B Cu3 Cu4 39.9(5) 2 5_656
Th1 Cu3 Cu4 149.364(11) 1_556 5_656
Th1 Cu3 Cu4 47.873(10) 2 5_656
Th1 Cu3 Cu4 81.998(14) 2_565 5_656
Cu4 Cu3 Cu4 134.802(15) 6_557 5_656
Cu3 Cu3 Cu4 116.903(5) 1_565 5_656
Cu3 Cu3 Cu4 63.096(5) 1_545 5_656
P2 Cu3 Cu4 64.48(2) 6_657 5_656
Cu4 Cu3 Cu4 37.019(12) . 5_656
P3 Cu3 Cu4 27.467(8) . 5_666
P2 Cu3 Cu4 104.34(3) . 5_666
P1 Cu3 Cu4 88.15(3) 2_565 5_666
P1 Cu3 Cu4 132.65(4) 2 5_666
Cu1 Cu3 Cu4 97.00(2) 6_657 5_666
Cu5A Cu3 Cu4 36.10(8) 2_565 5_666
Cu5A Cu3 Cu4 80.84(5) 2 5_666
Cu2 Cu3 Cu4 143.17(2) 2 5_666
Cu2 Cu3 Cu4 99.430(15) 2_565 5_666
Cu5B Cu3 Cu4 39.9(5) 2_565 5_666
Cu5B Cu3 Cu4 81.56(18) 2 5_666
Th1 Cu3 Cu4 149.364(11) 1_556 5_666
Th1 Cu3 Cu4 81.998(14) 2 5_666
Th1 Cu3 Cu4 47.873(10) 2_565 5_666
Cu4 Cu3 Cu4 134.802(15) 6_557 5_666
Cu3 Cu3 Cu4 63.096(5) 1_565 5_666
Cu3 Cu3 Cu4 116.903(5) 1_545 5_666
P2 Cu3 Cu4 64.48(2) 6_657 5_666
Cu4 Cu3 Cu4 37.019(12) . 5_666
Cu4 Cu3 Cu4 53.807(11) 5_656 5_666
P3 Cu3 Cu1 125.24(3) . 2_565
P2 Cu3 Cu1 125.26(3) . 2_565
P1 Cu3 Cu1 26.02(2) 2_565 2_565
P1 Cu3 Cu1 77.34(3) 2 2_565
Cu1 Cu3 Cu1 36.027(15) 6_657 2_565
Cu5A Cu3 Cu1 68.65(9) 2_565 2_565
Cu5A Cu3 Cu1 104.89(11) 2 2_565
Cu2 Cu3 Cu1 112.12(2) 2 2_565
Cu2 Cu3 Cu1 76.534(18) 2_565 2_565
Cu5B Cu3 Cu1 64.9(5) 2_565 2_565
Cu5B Cu3 Cu1 99.7(6) 2 2_565
Th1 Cu3 Cu1 46.907(11) 1_556 2_565
Th1 Cu3 Cu1 169.696(10) 2 2_565
Th1 Cu3 Cu1 118.361(5) 2_565 2_565
Cu4 Cu3 Cu1 93.378(16) 6_557 2_565
Cu3 Cu3 Cu1 64.332(5) 1_565 2_565
Cu3 Cu3 Cu1 115.667(5) 1_545 2_565
P2 Cu3 Cu1 65.790(19) 6_657 2_565
Cu4 Cu3 Cu1 96.848(16) . 2_565
Cu4 Cu3 Cu1 130.243(18) 5_656 2_565
Cu4 Cu3 Cu1 104.717(13) 5_666 2_565
P3 Cu3 Cu1 125.24(3) . 2
P2 Cu3 Cu1 125.26(3) . 2
P1 Cu3 Cu1 77.34(3) 2_565 2
P1 Cu3 Cu1 26.02(2) 2 2
Cu1 Cu3 Cu1 36.027(15) 6_657 2
Cu5A Cu3 Cu1 104.89(11) 2_565 2
Cu5A Cu3 Cu1 68.65(9) 2 2
Cu2 Cu3 Cu1 76.534(18) 2 2
Cu2 Cu3 Cu1 112.12(2) 2_565 2
Cu5B Cu3 Cu1 99.7(6) 2_565 2
Cu5B Cu3 Cu1 64.9(5) 2 2
Th1 Cu3 Cu1 46.907(11) 1_556 2
Th1 Cu3 Cu1 118.361(5) 2 2
Th1 Cu3 Cu1 169.696(10) 2_565 2
Cu4 Cu3 Cu1 93.378(16) 6_557 2
Cu3 Cu3 Cu1 115.667(5) 1_565 2
Cu3 Cu3 Cu1 64.332(5) 1_545 2
P2 Cu3 Cu1 65.790(19) 6_657 2
Cu4 Cu3 Cu1 96.848(16) . 2
Cu4 Cu3 Cu1 104.717(13) 5_656 2
Cu4 Cu3 Cu1 130.243(18) 5_666 2
Cu1 Cu3 Cu1 51.335(10) 2_565 2
P3 Cu3 P3 146.69(2) . 2_565
P2 Cu3 P3 60.91(3) . 2_565
P1 Cu3 P3 58.56(3) 2_565 2_565
P1 Cu3 P3 98.81(3) 2 2_565
Cu1 Cu3 P3 97.77(2) 6_657 2_565
Cu5A Cu3 P3 105.85(5) 2_565 2_565
Cu5A Cu3 P3 152.86(6) 2 2_565
Cu2 Cu3 P3 73.527(18) 2 2_565
Cu2 Cu3 P3 27.291(17) 2_565 2_565
Cu5B Cu3 P3 106.34(14) 2_565 2_565
Cu5B Cu3 P3 150.5(4) 2 2_565
Th1 Cu3 P3 39.821(15) 1_556 2_565
Th1 Cu3 P3 118.32(2) 2 2_565
Th1 Cu3 P3 88.230(16) 2_565 2_565
Cu4 Cu3 P3 32.765(14) 6_557 2_565
Cu3 Cu3 P3 64.523(8) 1_565 2_565
Cu3 Cu3 P3 115.478(8) 1_545 2_565
P2 Cu3 P3 129.96(2) 6_657 2_565
Cu4 Cu3 P3 152.759(12) . 2_565
Cu4 Cu3 P3 165.17(2) 5_656 2_565
Cu4 Cu3 P3 125.268(10) 5_666 2_565
Cu1 Cu3 P3 64.396(19) 2_565 2_565
Cu1 Cu3 P3 86.589(19) 2 2_565
P3 Cu3 P3 146.69(2) . 2
P2 Cu3 P3 60.91(3) . 2
P1 Cu3 P3 98.81(3) 2_565 2
P1 Cu3 P3 58.56(3) 2 2
Cu1 Cu3 P3 97.77(2) 6_657 2
Cu5A Cu3 P3 152.86(6) 2_565 2
Cu5A Cu3 P3 105.85(5) 2 2
Cu2 Cu3 P3 27.291(17) 2 2
Cu2 Cu3 P3 73.527(19) 2_565 2
Cu5B Cu3 P3 150.5(4) 2_565 2
Cu5B Cu3 P3 106.34(14) 2 2
Th1 Cu3 P3 39.821(15) 1_556 2
Th1 Cu3 P3 88.230(16) 2 2
Th1 Cu3 P3 118.32(2) 2_565 2
Cu4 Cu3 P3 32.765(14) 6_557 2
Cu3 Cu3 P3 115.478(7) 1_565 2
Cu3 Cu3 P3 64.523(8) 1_545 2
P2 Cu3 P3 129.96(2) 6_657 2
Cu4 Cu3 P3 152.759(12) . 2
Cu4 Cu3 P3 125.268(10) 5_656 2
Cu4 Cu3 P3 165.17(2) 5_666 2
Cu1 Cu3 P3 86.589(19) 2_565 2
Cu1 Cu3 P3 64.396(19) 2 2
P3 Cu3 P3 50.955(15) 2_565 2
P3 Cu3 Cu2 18.59(3) . .
P2 Cu3 Cu2 81.78(3) . .
P1 Cu3 Cu2 122.50(3) 2_565 .
P1 Cu3 Cu2 122.50(3) 2 .
Cu1 Cu3 Cu2 122.19(2) 6_657 .
Cu5A Cu3 Cu2 71.73(8) 2_565 .
Cu5A Cu3 Cu2 71.73(8) 2 .
Cu2 Cu3 Cu2 107.600(19) 2 .
Cu2 Cu3 Cu2 107.600(19) 2_565 .
Cu5B Cu3 Cu2 75.3(5) 2_565 .
Cu5B Cu3 Cu2 75.3(5) 2 .
Th1 Cu3 Cu2 170.90(2) 1_556 .
Th1 Cu3 Cu2 46.380(9) 2 .
Th1 Cu3 Cu2 46.380(9) 2_565 .
Cu4 Cu3 Cu2 117.862(18) 6_557 .
Cu3 Cu3 Cu2 90.0 1_565 .
Cu3 Cu3 Cu2 90.0 1_545 .
P2 Cu3 Cu2 85.45(2) 6_657 .
Cu4 Cu3 Cu2 50.788(13) . .
Cu4 Cu3 Cu2 35.659(9) 5_656 .
Cu4 Cu3 Cu2 35.659(9) 5_666 .
Cu1 Cu3 Cu2 140.138(14) 2_565 .
Cu1 Cu3 Cu2 140.138(14) 2 .
P3 Cu3 Cu2 133.10(2) 2_565 .
P3 Cu3 Cu2 133.10(2) 2 .
P3 Cu3 P3 58.560(14) . 1_545
P2 Cu3 P3 95.39(3) . 1_545
P1 Cu3 P3 152.03(4) 2_565 1_545
P1 Cu3 P3 62.93(3) 2 1_545
Cu1 Cu3 P3 97.05(2) 6_657 1_545
Cu5A Cu3 P3 110.68(5) 2_565 1_545
Cu5A Cu3 P3 29.52(10) 2 1_545
Cu2 Cu3 P3 69.900(18) 2 1_545
Cu2 Cu3 P3 148.93(3) 2_565 1_545
Cu5B Cu3 P3 110.23(15) 2_565 1_545
Cu5B Cu3 P3 34.6(6) 2 1_545
Th1 Cu3 P3 120.962(14) 1_556 1_545
Th1 Cu3 P3 39.479(16) 2 1_545
Th1 Cu3 P3 103.322(19) 2_565 1_545
Cu4 Cu3 P3 112.213(18) 6_557 1_545
Cu3 Cu3 P3 148.560(14) 1_565 1_545
Cu3 Cu3 P3 31.440(14) 1_545 1_545
P2 Cu3 P3 78.17(2) 6_657 1_545
Cu4 Cu3 P3 63.808(16) . 1_545
Cu4 Cu3 P3 31.911(14) 5_656 1_545
Cu4 Cu3 P3 85.598(17) 5_666 1_545
Cu1 Cu3 P3 132.11(2) 2_565 1_545
Cu1 Cu3 P3 86.066(16) 2 1_545
P3 Cu3 P3 143.410(15) 2_565 1_545
P3 Cu3 P3 93.952(12) 2 1_545
Cu2 Cu3 P3 60.370(15) . 1_545
P3 Cu3 P3 58.560(14) . 1_565
P2 Cu3 P3 95.39(2) . 1_565
P1 Cu3 P3 62.93(3) 2_565 1_565
P1 Cu3 P3 152.03(4) 2 1_565
Cu1 Cu3 P3 97.05(2) 6_657 1_565
Cu5A Cu3 P3 29.52(10) 2_565 1_565
Cu5A Cu3 P3 110.68(5) 2 1_565
Cu2 Cu3 P3 148.93(3) 2 1_565
Cu2 Cu3 P3 69.900(18) 2_565 1_565
Cu5B Cu3 P3 34.6(6) 2_565 1_565
Cu5B Cu3 P3 110.23(15) 2 1_565
Th1 Cu3 P3 120.962(14) 1_556 1_565
Th1 Cu3 P3 103.322(19) 2 1_565
Th1 Cu3 P3 39.479(16) 2_565 1_565
Cu4 Cu3 P3 112.213(18) 6_557 1_565
Cu3 Cu3 P3 31.440(14) 1_565 1_565
Cu3 Cu3 P3 148.560(14) 1_545 1_565
P2 Cu3 P3 78.17(2) 6_657 1_565
Cu4 Cu3 P3 63.808(16) . 1_565
Cu4 Cu3 P3 85.598(17) 5_656 1_565
Cu4 Cu3 P3 31.911(14) 5_666 1_565
Cu1 Cu3 P3 86.066(16) 2_565 1_565
Cu1 Cu3 P3 132.11(2) 2 1_565
P3 Cu3 P3 93.952(12) 2_565 1_565
P3 Cu3 P3 143.410(14) 2 1_565
Cu2 Cu3 P3 60.370(15) . 1_565
P3 Cu3 P3 117.12(3) 1_545 1_565
P3 Cu3 Cu1 80.34(3) . .
P2 Cu3 Cu1 20.02(3) . .
P1 Cu3 Cu1 121.84(3) 2_565 .
P1 Cu3 Cu1 121.84(3) 2 .
Cu1 Cu3 Cu1 176.05(2) 6_657 .
Cu5A Cu3 Cu1 113.59(10) 2_565 .
Cu5A Cu3 Cu1 113.59(11) 2 .
Cu2 Cu3 Cu1 64.937(18) 2 .
Cu2 Cu3 Cu1 64.937(18) 2_565 .
Cu5B Cu3 Cu1 118.8(6) 2_565 .
Cu5B Cu3 Cu1 118.8(6) 2 .
Th1 Cu3 Cu1 109.141(18) 1_556 .
Th1 Cu3 Cu1 45.634(9) 2 .
Th1 Cu3 Cu1 45.634(9) 2_565 .
Cu4 Cu3 Cu1 56.106(14) 6_557 .
Cu3 Cu3 Cu1 90.0 1_565 .
Cu3 Cu3 Cu1 90.0 1_545 .
P2 Cu3 Cu1 147.21(2) 6_657 .
Cu4 Cu3 Cu1 112.544(18) . .
Cu4 Cu3 Cu1 86.520(14) 5_656 .
Cu4 Cu3 Cu1 86.520(15) 5_666 .
Cu1 Cu3 Cu1 141.207(13) 2_565 .
Cu1 Cu3 Cu1 141.207(13) 2 .
P3 Cu3 Cu1 78.68(2) 2_565 .
P3 Cu3 Cu1 78.68(2) 2 .
Cu2 Cu3 Cu1 61.756(13) . .
P3 Cu3 Cu1 84.981(18) 1_545 .
P3 Cu3 Cu1 84.981(18) 1_565 .
P3 Cu3 P2 95.52(3) . 1_545
P2 Cu3 P2 57.717(14) . 1_545
P1 Cu3 P2 150.23(4) 2_565 1_545
P1 Cu3 P2 62.74(3) 2 1_545
Cu1 Cu3 P2 119.211(16) 6_657 1_545
Cu5A Cu3 P2 155.69(7) 2_565 1_545
Cu5A Cu3 P2 72.49(8) 2 1_545
Cu2 Cu3 P2 24.270(19) 2 1_545
Cu2 Cu3 P2 106.12(2) 2_565 1_545
Cu5B Cu3 P2 157.06(19) 2_565 1_545
Cu5B Cu3 P2 76.3(4) 2 1_545
Th1 Cu3 P2 89.528(18) 1_556 1_545
Th1 Cu3 P2 39.381(16) 2 1_545
Th1 Cu3 P2 102.72(2) 2_565 1_545
Cu4 Cu3 P2 64.428(16) 6_557 1_545
Cu3 Cu3 P2 147.718(14) 1_565 1_545
Cu3 Cu3 P2 32.283(14) 1_545 1_545
P2 Cu3 P2 121.392(14) 6_657 1_545
Cu4 Cu3 P2 111.180(18) . 1_545
Cu4 Cu3 P2 75.505(17) 5_656 1_545
Cu4 Cu3 P2 120.98(2) 5_666 1_545
Cu1 Cu3 P2 132.42(2) 2_565 1_545
Cu1 Cu3 P2 86.683(16) 2 1_545
P3 Cu3 P2 95.97(2) 2_565 1_545
P3 Cu3 P2 51.440(19) 2 1_545
Cu2 Cu3 P2 85.621(18) . 1_545
P3 Cu3 P2 47.84(2) 1_545 1_545
P3 Cu3 P2 140.48(3) 1_565 1_545
Cu1 Cu3 P2 59.880(15) . 1_545
P3 Cu3 P2 95.52(3) . 1_565
P2 Cu3 P2 57.717(14) . 1_565
P1 Cu3 P2 62.74(3) 2_565 1_565
P1 Cu3 P2 150.23(4) 2 1_565
Cu1 Cu3 P2 119.211(16) 6_657 1_565
Cu5A Cu3 P2 72.49(8) 2_565 1_565
Cu5A Cu3 P2 155.69(7) 2 1_565
Cu2 Cu3 P2 106.12(2) 2 1_565
Cu2 Cu3 P2 24.270(19) 2_565 1_565
Cu5B Cu3 P2 76.3(4) 2_565 1_565
Cu5B Cu3 P2 157.06(19) 2 1_565
Th1 Cu3 P2 89.528(18) 1_556 1_565
Th1 Cu3 P2 102.722(19) 2 1_565
Th1 Cu3 P2 39.381(16) 2_565 1_565
Cu4 Cu3 P2 64.428(16) 6_557 1_565
Cu3 Cu3 P2 32.283(14) 1_565 1_565
Cu3 Cu3 P2 147.718(14) 1_545 1_565
P2 Cu3 P2 121.392(14) 6_657 1_565
Cu4 Cu3 P2 111.180(18) . 1_565
Cu4 Cu3 P2 120.98(2) 5_656 1_565
Cu4 Cu3 P2 75.505(17) 5_666 1_565
Cu1 Cu3 P2 86.683(16) 2_565 1_565
Cu1 Cu3 P2 132.42(2) 2 1_565
P3 Cu3 P2 51.440(19) 2_565 1_565
P3 Cu3 P2 95.97(2) 2 1_565
Cu2 Cu3 P2 85.621(18) . 1_565
P3 Cu3 P2 140.48(3) 1_545 1_565
P3 Cu3 P2 47.84(2) 1_565 1_565
Cu1 Cu3 P2 59.880(15) . 1_565
P2 Cu3 P2 115.43(3) 1_545 1_565
P3 Cu3 Cu1 97.61(2) . 6_667
P2 Cu3 Cu1 120.947(13) . 6_667
P1 Cu3 Cu1 16.84(3) 2_565 6_667
P1 Cu3 Cu1 109.84(3) 2 6_667
Cu1 Cu3 Cu1 55.751(9) 6_657 6_667
Cu5A Cu3 Cu1 37.32(6) 2_565 6_667
Cu5A Cu3 Cu1 112.96(9) 2 6_667
Cu2 Cu3 Cu1 142.86(2) 2 6_667
Cu2 Cu3 Cu1 68.550(14) 2_565 6_667
Cu5B Cu3 Cu1 35.3(3) 2_565 6_667
Cu5B Cu3 Cu1 108.5(5) 2 6_667
Th1 Cu3 Cu1 77.249(11) 1_556 6_667
Th1 Cu3 Cu1 153.369(16) 2 6_667
Th1 Cu3 Cu1 85.576(7) 2_565 6_667
Cu4 Cu3 Cu1 106.316(12) 6_557 6_667
Cu3 Cu3 Cu1 34.248(9) 1_565 6_667
Cu3 Cu3 Cu1 145.750(9) 1_545 6_667
P2 Cu3 Cu1 63.192(12) 6_657 6_667
Cu4 Cu3 Cu1 79.661(12) . 6_667
Cu4 Cu3 Cu1 116.269(16) 5_656 6_667
Cu4 Cu3 Cu1 72.214(11) 5_666 6_667
Cu1 Cu3 Cu1 35.591(11) 2_565 6_667
Cu1 Cu3 Cu1 84.427(11) 2 6_667
P3 Cu3 Cu1 73.771(14) 2_565 6_667
P3 Cu3 Cu1 115.573(17) 2 6_667
Cu2 Cu3 Cu1 107.448(12) . 6_667
P3 Cu3 Cu1 140.74(2) 1_545 6_667
P3 Cu3 Cu1 50.491(16) 1_565 6_667
Cu1 Cu3 Cu1 124.156(9) . 6_667
P2 Cu3 Cu1 166.78(2) 1_545 6_667
P2 Cu3 Cu1 64.902(15) 1_565 6_667
P3 Cu3 Cu1 97.61(2) . 6_647
P2 Cu3 Cu1 120.947(13) . 6_647
P1 Cu3 Cu1 109.84(3) 2_565 6_647
P1 Cu3 Cu1 16.84(3) 2 6_647
Cu1 Cu3 Cu1 55.751(9) 6_657 6_647
Cu5A Cu3 Cu1 112.96(9) 2_565 6_647
Cu5A Cu3 Cu1 37.32(6) 2 6_647
Cu2 Cu3 Cu1 68.550(14) 2 6_647
Cu2 Cu3 Cu1 142.86(2) 2_565 6_647
Cu5B Cu3 Cu1 108.5(5) 2_565 6_647
Cu5B Cu3 Cu1 35.3(3) 2 6_647
Th1 Cu3 Cu1 77.249(11) 1_556 6_647
Th1 Cu3 Cu1 85.576(7) 2 6_647
Th1 Cu3 Cu1 153.369(16) 2_565 6_647
Cu4 Cu3 Cu1 106.316(12) 6_557 6_647
Cu3 Cu3 Cu1 145.750(9) 1_565 6_647
Cu3 Cu3 Cu1 34.248(9) 1_545 6_647
P2 Cu3 Cu1 63.192(12) 6_657 6_647
Cu4 Cu3 Cu1 79.661(12) . 6_647
Cu4 Cu3 Cu1 72.214(11) 5_656 6_647
Cu4 Cu3 Cu1 116.269(16) 5_666 6_647
Cu1 Cu3 Cu1 84.427(11) 2_565 6_647
Cu1 Cu3 Cu1 35.591(11) 2 6_647
P3 Cu3 Cu1 115.573(17) 2_565 6_647
P3 Cu3 Cu1 73.771(14) 2 6_647
Cu2 Cu3 Cu1 107.447(11) . 6_647
P3 Cu3 Cu1 50.491(16) 1_545 6_647
P3 Cu3 Cu1 140.74(2) 1_565 6_647
Cu1 Cu3 Cu1 124.156(9) . 6_647
P2 Cu3 Cu1 64.902(15) 1_545 6_647
P2 Cu3 Cu1 166.78(2) 1_565 6_647
Cu1 Cu3 Cu1 111.502(18) 6_667 6_647
P3 Cu3 Cu5B 106.3(2) . 5_556
P2 Cu3 Cu5B 24.60(9) . 5_556
P1 Cu3 Cu5B 127.2(2) 2_565 5_556
P1 Cu3 Cu5B 88.75(8) 2 5_556
Cu1 Cu3 Cu5B 141.51(12) 6_657 5_556
Cu5A Cu3 Cu5B 148.54(13) 2_565 5_556
Cu5A Cu3 Cu5B 106.30(17) 2 5_556
Cu2 Cu3 Cu5B 29.93(8) 2 5_556
Cu2 Cu3 Cu5B 72.2(2) 2_565 5_556
Cu5B Cu3 Cu5B 153.7(6) 2_565 5_556
Cu5B Cu3 Cu5B 110.4(3) 2 5_556
Th1 Cu3 Cu5B 82.4(2) 1_556 5_556
Th1 Cu3 Cu5B 50.9(2) 2 5_556
Th1 Cu3 Cu5B 80.65(8) 2_565 5_556
Cu4 Cu3 Cu5B 36.4(2) 6_557 5_556
Cu3 Cu3 Cu5B 113.52(15) 1_565 5_556
Cu3 Cu3 Cu5B 66.48(15) 1_545 5_556
P2 Cu3 Cu5B 155.91(18) 6_657 5_556
Cu4 Cu3 Cu5B 134.6(2) . 5_556
Cu4 Cu3 Cu5B 98.4(2) 5_656 5_556
Cu4 Cu3 Cu5B 120.47(16) 5_666 5_556
Cu1 Cu3 Cu5B 128.0(2) 2_565 5_556
Cu1 Cu3 Cu5B 105.67(10) 2 5_556
P3 Cu3 Cu5B 68.9(2) 2_565 5_556
P3 Cu3 Cu5B 45.27(18) 2 5_556
Cu2 Cu3 Cu5B 89.3(2) . 5_556
P3 Cu3 Cu5B 78.8(2) 1_545 5_556
P3 Cu3 Cu5B 119.12(7) 1_565 5_556
Cu1 Cu3 Cu5B 35.54(10) . 5_556
P2 Cu3 Cu5B 34.61(17) 1_545 5_556
P2 Cu3 Cu5B 81.48(13) 1_565 5_556
Cu1 Cu3 Cu5B 140.4(2) 6_667 5_556
Cu1 Cu3 Cu5B 96.35(10) 6_647 5_556
P3 Cu3 Cu5B 106.3(2) . 5_566
P2 Cu3 Cu5B 24.60(9) . 5_566
P1 Cu3 Cu5B 88.75(8) 2_565 5_566
P1 Cu3 Cu5B 127.2(2) 2 5_566
Cu1 Cu3 Cu5B 141.51(12) 6_657 5_566
Cu5A Cu3 Cu5B 106.30(16) 2_565 5_566
Cu5A Cu3 Cu5B 148.54(13) 2 5_566
Cu2 Cu3 Cu5B 72.2(2) 2 5_566
Cu2 Cu3 Cu5B 29.93(8) 2_565 5_566
Cu5B Cu3 Cu5B 110.4(3) 2_565 5_566
Cu5B Cu3 Cu5B 153.7(6) 2 5_566
Th1 Cu3 Cu5B 82.4(2) 1_556 5_566
Th1 Cu3 Cu5B 80.65(8) 2 5_566
Th1 Cu3 Cu5B 50.9(2) 2_565 5_566
Cu4 Cu3 Cu5B 36.4(2) 6_557 5_566
Cu3 Cu3 Cu5B 66.48(15) 1_565 5_566
Cu3 Cu3 Cu5B 113.52(15) 1_545 5_566
P2 Cu3 Cu5B 155.91(19) 6_657 5_566
Cu4 Cu3 Cu5B 134.6(2) . 5_566
Cu4 Cu3 Cu5B 120.47(16) 5_656 5_566
Cu4 Cu3 Cu5B 98.4(2) 5_666 5_566
Cu1 Cu3 Cu5B 105.67(10) 2_565 5_566
Cu1 Cu3 Cu5B 128.0(2) 2 5_566
P3 Cu3 Cu5B 45.27(18) 2_565 5_566
P3 Cu3 Cu5B 68.9(2) 2 5_566
Cu2 Cu3 Cu5B 89.3(2) . 5_566
P3 Cu3 Cu5B 119.12(7) 1_545 5_566
P3 Cu3 Cu5B 78.8(2) 1_565 5_566
Cu1 Cu3 Cu5B 35.54(10) . 5_566
P2 Cu3 Cu5B 81.48(14) 1_545 5_566
P2 Cu3 Cu5B 34.61(17) 1_565 5_566
Cu1 Cu3 Cu5B 96.35(10) 6_667 5_566
Cu1 Cu3 Cu5B 140.4(2) 6_647 5_566
Cu5B Cu3 Cu5B 47.0(3) 5_556 5_566
P3 Cu3 P1 50.04(4) . .
P2 Cu3 P1 50.33(4) . .
P1 Cu3 P1 128.33(2) 2_565 .
P1 Cu3 P1 128.33(2) 2 .
Cu1 Cu3 P1 153.64(3) 6_657 .
Cu5A Cu3 P1 93.30(10) 2_565 .
Cu5A Cu3 P1 93.30(10) 2 .
Cu2 Cu3 P1 85.54(2) 2 .
Cu2 Cu3 P1 85.54(2) 2_565 .
Cu5B Cu3 P1 98.1(6) 2_565 .
Cu5B Cu3 P1 98.1(6) 2 .
Th1 Cu3 P1 139.45(2) 1_556 .
Th1 Cu3 P1 35.971(6) 2 .
Th1 Cu3 P1 35.971(6) 2_565 .
Cu4 Cu3 P1 86.41(2) 6_557 .
Cu3 Cu3 P1 90.0 1_565 .
Cu3 Cu3 P1 90.0 1_545 .
P2 Cu3 P1 116.91(3) 6_657 .
Cu4 Cu3 P1 82.24(2) . .
Cu4 Cu3 P1 59.911(16) 5_656 .
Cu4 Cu3 P1 59.911(16) 5_666 .
Cu1 Cu3 P1 154.332(5) 2_565 .
Cu1 Cu3 P1 154.332(5) 2 .
P3 Cu3 P1 105.97(2) 2_565 .
P3 Cu3 P1 105.97(2) 2 .
Cu2 Cu3 P1 31.452(18) . .
P3 Cu3 P1 70.427(18) 1_545 .
P3 Cu3 P1 70.427(18) 1_565 .
Cu1 Cu3 P1 30.304(17) . .
P2 Cu3 P1 70.065(18) 1_545 .
P2 Cu3 P1 70.065(18) 1_565 .
Cu1 Cu3 P1 120.284(10) 6_667 .
Cu1 Cu3 P1 120.284(10) 6_647 .
Cu5B Cu3 P1 60.70(17) 5_556 .
Cu5B Cu3 P1 60.70(17) 5_566 .
P3 Cu3 P1 115.86(4) . 6_657
P2 Cu3 P1 143.77(4) . 6_657
P1 Cu3 P1 53.30(3) 2_565 6_657
P1 Cu3 P1 53.30(3) 2 6_657
Cu1 Cu3 P1 12.26(2) 6_657 6_657
Cu5A Cu3 P1 77.00(10) 2_565 6_657
Cu5A Cu3 P1 77.00(10) 2 6_657
Cu2 Cu3 P1 104.33(2) 2 6_657
Cu2 Cu3 P1 104.33(2) 2_565 6_657
Cu5B Cu3 P1 71.9(6) 2_565 6_657
Cu5B Cu3 P1 71.9(6) 2 6_657
Th1 Cu3 P1 54.653(17) 1_556 6_657
Th1 Cu3 P1 141.738(10) 2 6_657
Th1 Cu3 P1 141.738(10) 2_565 6_657
Cu4 Cu3 P1 107.69(2) 6_557 6_657
Cu3 Cu3 P1 90.0 1_565 6_657
Cu3 Cu3 P1 90.0 1_545 6_657
P2 Cu3 P1 49.00(2) 6_657 6_657
Cu4 Cu3 P1 83.66(2) . 6_657
Cu4 Cu3 P1 107.854(19) 5_656 6_657
Cu4 Cu3 P1 107.85(2) 5_666 6_657
Cu1 Cu3 P1 28.981(9) 2_565 6_657
Cu1 Cu3 P1 28.981(9) 2 6_657
P3 Cu3 P1 86.71(2) 2_565 6_657
P3 Cu3 P1 86.71(2) 2 6_657
Cu2 Cu3 P1 134.45(2) . 6_657
P3 Cu3 P1 103.151(19) 1_545 6_657
P3 Cu3 P1 103.151(19) 1_565 6_657
Cu1 Cu3 P1 163.79(2) . 6_657
P2 Cu3 P1 115.520(17) 1_545 6_657
P2 Cu3 P1 115.520(17) 1_565 6_657
Cu1 Cu3 P1 56.636(9) 6_667 6_657
Cu1 Cu3 P1 56.636(9) 6_647 6_657
Cu5B Cu3 P1 131.57(15) 5_556 6_657
Cu5B Cu3 P1 131.57(15) 5_566 6_657
P1 Cu3 P1 165.90(3) . 6_657
P3 Cu3 Th1 129.004(8) . 1_566
P2 Cu3 Th1 89.44(2) . 1_566
P1 Cu3 Th1 24.34(3) 2_565 1_566
P1 Cu3 Th1 107.25(3) 2 1_566
Cu1 Cu3 Th1 75.508(12) 6_657 1_566
Cu5A Cu3 Th1 73.04(5) 2_565 1_566
Cu5A Cu3 Th1 144.33(11) 2 1_566
Cu2 Cu3 Th1 106.626(19) 2 1_566
Cu2 Cu3 Th1 37.153(14) 2_565 1_566
Cu5B Cu3 Th1 72.60(16) 2_565 1_566
Cu5B Cu3 Th1 139.1(6) 2 1_566
Th1 Cu3 Th1 50.350(6) 1_556 1_566
Th1 Cu3 Th1 147.587(16) 2 1_566
Th1 Cu3 Th1 86.542(5) 2_565 1_566
Cu4 Cu3 Th1 67.437(9) 6_557 1_566
Cu3 Cu3 Th1 39.650(6) 1_565 1_566
Cu3 Cu3 Th1 140.350(6) 1_545 1_566
P2 Cu3 Th1 98.660(14) 6_657 1_566
Cu4 Cu3 Th1 118.459(10) . 1_566
Cu4 Cu3 Th1 153.822(11) 5_656 1_566
Cu4 Cu3 Th1 101.574(5) 5_666 1_566
Cu1 Cu3 Th1 39.696(7) 2_565 1_566
Cu1 Cu3 Th1 84.121(11) 2 1_566
P3 Cu3 Th1 34.785(12) 2_565 1_566
P3 Cu3 Th1 80.858(12) 2 1_566
Cu2 Cu3 Th1 129.055(6) . 1_566
P3 Cu3 Th1 170.130(19) 1_545 1_566
P3 Cu3 Th1 70.814(13) 1_565 1_566
Cu1 Cu3 Th1 102.077(10) . 1_566
P2 Cu3 Th1 130.22(2) 1_545 1_566
P2 Cu3 Th1 48.990(15) 1_565 1_566
Cu1 Cu3 Th1 38.988(8) 6_667 1_566
Cu1 Cu3 Th1 119.710(14) 6_647 1_566
Cu5B Cu3 Th1 102.9(2) 5_556 1_566
Cu5B Cu3 Th1 66.94(8) 5_566 1_566
P1 Cu3 Th1 119.000(11) . 1_566
P1 Cu3 Th1 68.336(11) 6_657 1_566
P3 Cu3 Th1 129.004(8) . 1_546
P2 Cu3 Th1 89.44(2) . 1_546
P1 Cu3 Th1 107.25(3) 2_565 1_546
P1 Cu3 Th1 24.34(3) 2 1_546
Cu1 Cu3 Th1 75.508(12) 6_657 1_546
Cu5A Cu3 Th1 144.33(11) 2_565 1_546
Cu5A Cu3 Th1 73.04(5) 2 1_546
Cu2 Cu3 Th1 37.153(14) 2 1_546
Cu2 Cu3 Th1 106.626(19) 2_565 1_546
Cu5B Cu3 Th1 139.1(6) 2_565 1_546
Cu5B Cu3 Th1 72.60(16) 2 1_546
Th1 Cu3 Th1 50.350(6) 1_556 1_546
Th1 Cu3 Th1 86.542(5) 2 1_546
Th1 Cu3 Th1 147.587(16) 2_565 1_546
Cu4 Cu3 Th1 67.437(9) 6_557 1_546
Cu3 Cu3 Th1 140.350(5) 1_565 1_546
Cu3 Cu3 Th1 39.650(6) 1_545 1_546
P2 Cu3 Th1 98.660(14) 6_657 1_546
Cu4 Cu3 Th1 118.459(10) . 1_546
Cu4 Cu3 Th1 101.574(5) 5_656 1_546
Cu4 Cu3 Th1 153.822(11) 5_666 1_546
Cu1 Cu3 Th1 84.121(11) 2_565 1_546
Cu1 Cu3 Th1 39.696(7) 2 1_546
P3 Cu3 Th1 80.858(12) 2_565 1_546
P3 Cu3 Th1 34.785(12) 2 1_546
Cu2 Cu3 Th1 129.055(6) . 1_546
P3 Cu3 Th1 70.814(13) 1_545 1_546
P3 Cu3 Th1 170.130(19) 1_565 1_546
Cu1 Cu3 Th1 102.077(10) . 1_546
P2 Cu3 Th1 48.990(15) 1_545 1_546
P2 Cu3 Th1 130.22(2) 1_565 1_546
Cu1 Cu3 Th1 119.710(14) 6_667 1_546
Cu1 Cu3 Th1 38.988(8) 6_647 1_546
Cu5B Cu3 Th1 66.94(8) 5_556 1_546
Cu5B Cu3 Th1 102.9(2) 5_566 1_546
P1 Cu3 Th1 119.000(11) . 1_546
P1 Cu3 Th1 68.336(11) 6_657 1_546
Th1 Cu3 Th1 100.700(11) 1_566 1_546
P3 Cu3 Cu5A 107.74(5) . 5_556
P2 Cu3 Cu5A 23.99(2) . 5_556
P1 Cu3 Cu5A 125.43(5) 2_565 5_556
P1 Cu3 Cu5A 89.00(4) 2 5_556
Cu1 Cu3 Cu5A 140.97(3) 6_657 5_556
Cu5A Cu3 Cu5A 148.43(11) 2_565 5_556
Cu5A Cu3 Cu5A 107.83(6) 2 5_556
Cu2 Cu3 Cu5A 30.03(3) 2 5_556
Cu2 Cu3 Cu5A 70.72(3) 2_565 5_556
Cu5B Cu3 Cu5A 153.5(6) 2_565 5_556
Cu5B Cu3 Cu5A 111.9(5) 2 5_556
Th1 Cu3 Cu5A 80.98(4) 1_556 5_556
Th1 Cu3 Cu5A 52.58(4) 2 5_556
Th1 Cu3 Cu5A 80.77(3) 2_565 5_556
Cu4 Cu3 Cu5A 34.68(4) 6_557 5_556
Cu3 Cu3 Cu5A 112.38(2) 1_565 5_556
Cu3 Cu3 Cu5A 67.62(2) 1_545 5_556
P2 Cu3 Cu5A 157.30(3) 6_657 5_556
Cu4 Cu3 Cu5A 136.31(4) . 5_556
Cu4 Cu3 Cu5A 100.15(4) 5_656 5_556
Cu4 Cu3 Cu5A 121.38(4) 5_666 5_556
Cu1 Cu3 Cu5A 126.41(4) 2_565 5_556
Cu1 Cu3 Cu5A 105.30(3) 2 5_556
P3 Cu3 Cu5A 67.11(4) 2_565 5_556
P3 Cu3 Cu5A 44.24(4) 2 5_556
Cu2 Cu3 Cu5A 90.61(4) . 5_556
P3 Cu3 Cu5A 80.45(4) 1_545 5_556
P3 Cu3 Cu5A 118.93(3) 1_565 5_556
Cu1 Cu3 Cu5A 35.95(3) . 5_556
P2 Cu3 Cu5A 35.92(3) 1_545 5_556
P2 Cu3 Cu5A 80.44(3) 1_565 5_556
Cu1 Cu3 Cu5A 138.75(3) 6_667 5_556
Cu1 Cu3 Cu5A 97.04(2) 6_647 5_556
Cu5B Cu3 Cu5A 1.8(2) 5_556 5_556
Cu5B Cu3 Cu5A 45.92(17) 5_566 5_556
P1 Cu3 Cu5A 61.74(4) . 5_556
P1 Cu3 Cu5A 130.74(4) 6_657 5_556
Th1 Cu3 Cu5A 101.14(4) 1_566 5_556
Th1 Cu3 Cu5A 66.85(3) 1_546 5_556
P3 Cu4 P2 104.64(5) . 6_657
P3 Cu4 P3 113.06(3) . 5_656
P2 Cu4 P3 110.48(4) 6_657 5_656
P3 Cu4 P3 113.06(3) . 5_666
P2 Cu4 P3 110.48(4) 6_657 5_666
P3 Cu4 P3 105.23(5) 5_656 5_666
P3 Cu4 Cu5A 94.24(12) . 6_656
P2 Cu4 Cu5A 161.12(12) 6_657 6_656
P3 Cu4 Cu5A 60.56(5) 5_656 6_656
P3 Cu4 Cu5A 60.56(5) 5_666 6_656
P3 Cu4 Cu4 58.26(3) . 5_656
P2 Cu4 Cu4 123.22(3) 6_657 5_656
P3 Cu4 Cu4 54.80(3) 5_656 5_656
P3 Cu4 Cu4 126.21(4) 5_666 5_656
Cu5A Cu4 Cu4 67.13(7) 6_656 5_656
P3 Cu4 Cu4 58.26(3) . 5_666
P2 Cu4 Cu4 123.22(3) 6_657 5_666
P3 Cu4 Cu4 126.21(4) 5_656 5_666
P3 Cu4 Cu4 54.80(3) 5_666 5_666
Cu5A Cu4 Cu4 67.13(7) 6_656 5_666
Cu4 Cu4 Cu4 94.52(4) 5_656 5_666
P3 Cu4 Cu2 122.12(3) . 5_666
P2 Cu4 Cu2 54.96(2) 6_657 5_666
P3 Cu4 Cu2 124.78(4) 5_656 5_666
P3 Cu4 Cu2 55.58(3) 5_666 5_666
Cu5A Cu4 Cu2 114.46(7) 6_656 5_666
Cu4 Cu4 Cu2 178.11(3) 5_656 5_666
Cu4 Cu4 Cu2 87.121(14) 5_666 5_666
P3 Cu4 Cu2 122.12(3) . 5_656
P2 Cu4 Cu2 54.96(2) 6_657 5_656
P3 Cu4 Cu2 55.58(3) 5_656 5_656
P3 Cu4 Cu2 124.78(4) 5_666 5_656
Cu5A Cu4 Cu2 114.46(7) 6_656 5_656
Cu4 Cu4 Cu2 87.121(14) 5_656 5_656
Cu4 Cu4 Cu2 178.11(3) 5_666 5_656
Cu2 Cu4 Cu2 91.22(3) 5_666 5_656
P3 Cu4 Cu5B 89.2(6) . 6_656
P2 Cu4 Cu5B 166.1(6) 6_657 6_656
P3 Cu4 Cu5B 62.7(3) 5_656 6_656
P3 Cu4 Cu5B 62.7(3) 5_666 6_656
Cu5A Cu4 Cu5B 5.0(5) 6_656 6_656
Cu4 Cu4 Cu5B 64.2(3) 5_656 6_656
Cu4 Cu4 Cu5B 64.2(3) 5_666 6_656
Cu2 Cu4 Cu5B 117.5(3) 5_666 6_656
Cu2 Cu4 Cu5B 117.5(3) 5_656 6_656
P3 Cu4 Cu5B 62.1(6) . 2_565
P2 Cu4 Cu5B 64.1(6) 6_657 2_565
P3 Cu4 Cu5B 169.58(12) 5_656 2_565
P3 Cu4 Cu5B 85.17(13) 5_666 2_565
Cu5A Cu4 Cu5B 127.4(4) 6_656 2_565
Cu4 Cu4 Cu5B 119.5(6) 5_656 2_565
Cu4 Cu4 Cu5B 60.4(5) 5_666 2_565
Cu2 Cu4 Cu5B 60.5(6) 5_666 2_565
Cu2 Cu4 Cu5B 117.9(5) 5_656 2_565
Cu5B Cu4 Cu5B 124.6(2) 6_656 2_565
P3 Cu4 Cu5B 62.1(6) . 2
P2 Cu4 Cu5B 64.1(6) 6_657 2
P3 Cu4 Cu5B 85.17(13) 5_656 2
P3 Cu4 Cu5B 169.58(12) 5_666 2
Cu5A Cu4 Cu5B 127.4(5) 6_656 2
Cu4 Cu4 Cu5B 60.4(5) 5_656 2
Cu4 Cu4 Cu5B 119.5(6) 5_666 2
Cu2 Cu4 Cu5B 117.9(5) 5_666 2
Cu2 Cu4 Cu5B 60.5(6) 5_656 2
Cu5B Cu4 Cu5B 124.6(2) 6_656 2
Cu5B Cu4 Cu5B 84.4(2) 2_565 2
P3 Cu4 Cu5A 57.12(10) . 2_565
P2 Cu4 Cu5A 68.94(10) 6_657 2_565
P3 Cu4 Cu5A 168.22(7) 5_656 2_565
P3 Cu4 Cu5A 85.56(5) 5_666 2_565
Cu5A Cu4 Cu5A 123.50(5) 6_656 2_565
Cu4 Cu4 Cu5A 115.00(10) 5_656 2_565
Cu4 Cu4 Cu5A 56.37(8) 5_666 2_565
Cu2 Cu4 Cu5A 65.19(9) 5_666 2_565
Cu2 Cu4 Cu5A 122.03(8) 5_656 2_565
Cu5B Cu4 Cu5A 120.4(3) 6_656 2_565
Cu5B Cu4 Cu5A 5.5(6) 2_565 2_565
Cu5B Cu4 Cu5A 84.14(13) 2 2_565
P3 Cu4 Cu5A 57.12(10) . 2
P2 Cu4 Cu5A 68.94(10) 6_657 2
P3 Cu4 Cu5A 85.56(5) 5_656 2
P3 Cu4 Cu5A 168.22(7) 5_666 2
Cu5A Cu4 Cu5A 123.50(5) 6_656 2
Cu4 Cu4 Cu5A 56.37(8) 5_656 2
Cu4 Cu4 Cu5A 115.00(10) 5_666 2
Cu2 Cu4 Cu5A 122.03(8) 5_666 2
Cu2 Cu4 Cu5A 65.19(9) 5_656 2
Cu5B Cu4 Cu5A 120.4(3) 6_656 2
Cu5B Cu4 Cu5A 84.14(13) 2_565 2
Cu5B Cu4 Cu5A 5.5(6) 2 2
Cu5A Cu4 Cu5A 83.32(8) 2_565 2
P3 Cu4 Th1 164.55(4) . 6_656
P2 Cu4 Th1 90.81(4) 6_657 6_656
P3 Cu4 Th1 59.92(3) 5_656 6_656
P3 Cu4 Th1 59.92(3) 5_666 6_656
Cu5A Cu4 Th1 70.31(11) 6_656 6_656
Cu4 Cu4 Th1 113.13(3) 5_656 6_656
Cu4 Cu4 Th1 113.13(3) 5_666 6_656
Cu2 Cu4 Th1 66.961(18) 5_666 6_656
Cu2 Cu4 Th1 66.961(18) 5_656 6_656
Cu5B Cu4 Th1 75.3(6) 6_656 6_656
Cu5B Cu4 Th1 127.2(5) 2_565 6_656
Cu5B Cu4 Th1 127.2(5) 2 6_656
Cu5A Cu4 Th1 131.30(8) 2_565 6_656
Cu5A Cu4 Th1 131.30(8) 2 6_656
P3 Cu4 Cu2 39.88(3) . .
P2 Cu4 Cu2 144.51(4) 6_657 .
P3 Cu4 Cu2 90.18(3) 5_656 .
P3 Cu4 Cu2 90.18(3) 5_666 .
Cu5A Cu4 Cu2 54.36(11) 6_656 .
Cu4 Cu4 Cu2 47.264(19) 5_656 .
Cu4 Cu4 Cu2 47.264(19) 5_666 .
Cu2 Cu4 Cu2 134.385(13) 5_666 .
Cu2 Cu4 Cu2 134.385(13) 5_656 .
Cu5B Cu4 Cu2 49.4(6) 6_656 .
Cu5B Cu4 Cu2 90.5(7) 2_565 .
Cu5B Cu4 Cu2 90.5(7) 2 .
Cu5A Cu4 Cu2 84.97(11) 2_565 .
Cu5A Cu4 Cu2 84.97(11) 2 .
Th1 Cu4 Cu2 124.67(2) 6_656 .
P3 Cu4 Cu3 142.24(4) . 6_657
P2 Cu4 Cu3 37.61(3) 6_657 6_657
P3 Cu4 Cu3 88.53(3) 5_656 6_657
P3 Cu4 Cu3 88.53(3) 5_666 6_657
Cu5A Cu4 Cu3 123.52(11) 6_656 6_657
Cu4 Cu4 Cu3 132.724(19) 5_656 6_657
Cu4 Cu4 Cu3 132.724(19) 5_666 6_657
Cu2 Cu4 Cu3 45.678(13) 5_666 6_657
Cu2 Cu4 Cu3 45.678(13) 5_656 6_657
Cu5B Cu4 Cu3 128.5(6) 6_656 6_657
Cu5B Cu4 Cu3 91.1(7) 2_565 6_657
Cu5B Cu4 Cu3 91.1(7) 2 6_657
Cu5A Cu4 Cu3 96.60(11) 2_565 6_657
Cu5A Cu4 Cu3 96.60(11) 2 6_657
Th1 Cu4 Cu3 53.206(13) 6_656 6_657
Cu2 Cu4 Cu3 177.88(2) . 6_657
P3 Cu4 Cu4 90.0 . 1_565
P2 Cu4 Cu4 90.0 6_657 1_565
P3 Cu4 Cu4 142.61(3) 5_656 1_565
P3 Cu4 Cu4 37.38(3) 5_666 1_565
Cu5A Cu4 Cu4 90.0 6_656 1_565
Cu4 Cu4 Cu4 137.260(19) 5_656 1_565
Cu4 Cu4 Cu4 42.740(19) 5_666 1_565
Cu2 Cu4 Cu4 44.388(13) 5_666 1_565
Cu2 Cu4 Cu4 135.612(13) 5_656 1_565
Cu5B Cu4 Cu4 90.000(2) 6_656 1_565
Cu5B Cu4 Cu4 47.79(12) 2_565 1_565
Cu5B Cu4 Cu4 132.21(12) 2 1_565
Cu5A Cu4 Cu4 48.34(4) 2_565 1_565
Cu5A Cu4 Cu4 131.66(4) 2 1_565
Th1 Cu4 Cu4 90.0 6_656 1_565
Cu2 Cu4 Cu4 90.0 . 1_565
Cu3 Cu4 Cu4 90.0 6_657 1_565
P3 Cu4 Cu4 90.000(1) . 1_545
P2 Cu4 Cu4 90.0 6_657 1_545
P3 Cu4 Cu4 37.38(3) 5_656 1_545
P3 Cu4 Cu4 142.61(3) 5_666 1_545
Cu5A Cu4 Cu4 90.0 6_656 1_545
Cu4 Cu4 Cu4 42.740(19) 5_656 1_545
Cu4 Cu4 Cu4 137.260(19) 5_666 1_545
Cu2 Cu4 Cu4 135.612(13) 5_666 1_545
Cu2 Cu4 Cu4 44.388(13) 5_656 1_545
Cu5B Cu4 Cu4 90.000(1) 6_656 1_545
Cu5B Cu4 Cu4 132.21(12) 2_565 1_545
Cu5B Cu4 Cu4 47.79(12) 2 1_545
Cu5A Cu4 Cu4 131.66(4) 2_565 1_545
Cu5A Cu4 Cu4 48.34(4) 2 1_545
Th1 Cu4 Cu4 90.0 6_656 1_545
Cu2 Cu4 Cu4 90.0 . 1_545
Cu3 Cu4 Cu4 90.0 6_657 1_545
Cu4 Cu4 Cu4 180.0 1_565 1_545
P3 Cu4 Cu3 32.60(3) . .
P2 Cu4 Cu3 72.04(3) 6_657 .
P3 Cu4 Cu3 125.45(3) 5_656 .
P3 Cu4 Cu3 125.45(3) 5_666 .
Cu5A Cu4 Cu3 126.84(11) 6_656 .
Cu4 Cu4 Cu3 77.75(3) 5_656 .
Cu4 Cu4 Cu3 77.75(3) 5_666 .
Cu2 Cu4 Cu3 101.71(2) 5_666 .
Cu2 Cu4 Cu3 101.71(2) 5_656 .
Cu5B Cu4 Cu3 121.8(6) 6_656 .
Cu5B Cu4 Cu3 45.3(3) 2_565 .
Cu5B Cu4 Cu3 45.3(3) 2 .
Cu5A Cu4 Cu3 42.79(6) 2_565 .
Cu5A Cu4 Cu3 42.79(6) 2 .
Th1 Cu4 Cu3 162.85(2) 6_656 .
Cu2 Cu4 Cu3 72.478(17) . .
Cu3 Cu4 Cu3 109.642(15) 6_657 .
Cu4 Cu4 Cu3 90.0 1_565 .
Cu4 Cu4 Cu3 90.0 1_545 .
P3 Cu4 Cu1 71.16(3) . 6_657
P2 Cu4 Cu1 33.48(3) 6_657 6_657
P3 Cu4 Cu1 124.44(3) 5_656 6_657
P3 Cu4 Cu1 124.44(3) 5_666 6_657
Cu5A Cu4 Cu1 165.40(11) 6_656 6_657
Cu4 Cu4 Cu1 103.65(3) 5_656 6_657
Cu4 Cu4 Cu1 103.65(3) 5_666 6_657
Cu2 Cu4 Cu1 75.017(19) 5_666 6_657
Cu2 Cu4 Cu1 75.017(19) 5_656 6_657
Cu5B Cu4 Cu1 160.4(6) 6_656 6_657
Cu5B Cu4 Cu1 46.0(3) 2_565 6_657
Cu5B Cu4 Cu1 46.0(3) 2 6_657
Cu5A Cu4 Cu1 48.62(6) 2_565 6_657
Cu5A Cu4 Cu1 48.62(6) 2 6_657
Th1 Cu4 Cu1 124.291(19) 6_656 6_657
Cu2 Cu4 Cu1 111.04(2) . 6_657
Cu3 Cu4 Cu1 71.085(16) 6_657 6_657
Cu4 Cu4 Cu1 90.0 1_565 6_657
Cu4 Cu4 Cu1 90.0 1_545 6_657
Cu3 Cu4 Cu1 38.557(14) . 6_657
P3 Cu4 Cu3 117.30(3) . 5_656
P2 Cu4 Cu3 128.61(3) 6_657 5_656
P3 Cu4 Cu3 26.62(2) 5_656 5_656
P3 Cu4 Cu3 79.93(3) 5_666 5_656
Cu5A Cu4 Cu3 37.19(7) 6_656 5_656
Cu4 Cu4 Cu3 65.23(2) 5_656 5_656
Cu4 Cu4 Cu3 104.22(3) 5_666 5_656
Cu2 Cu4 Cu3 115.29(2) 5_666 5_656
Cu2 Cu4 Cu3 77.318(17) 5_656 5_656
Cu5B Cu4 Cu3 40.7(4) 6_656 5_656
Cu5B Cu4 Cu3 163.3(3) 2_565 5_656
Cu5B Cu4 Cu3 110.46(14) 2 5_656
Cu5A Cu4 Cu3 160.44(7) 2_565 5_656
Cu5A Cu4 Cu3 109.92(4) 2 5_656
Th1 Cu4 Cu3 49.774(11) 6_656 5_656
Cu2 Cu4 Cu3 82.047(17) . 5_656
Cu3 Cu4 Cu3 96.066(13) 6_657 5_656
Cu4 Cu4 Cu3 116.903(5) 1_565 5_656
Cu4 Cu4 Cu3 63.096(5) 1_545 5_656
Cu3 Cu4 Cu3 142.981(12) . 5_656
Cu1 Cu4 Cu3 150.683(9) 6_657 5_656
P3 Cu4 Cu3 117.30(3) . 5_666
P2 Cu4 Cu3 128.61(3) 6_657 5_666
P3 Cu4 Cu3 79.93(3) 5_656 5_666
P3 Cu4 Cu3 26.62(2) 5_666 5_666
Cu5A Cu4 Cu3 37.19(7) 6_656 5_666
Cu4 Cu4 Cu3 104.22(3) 5_656 5_666
Cu4 Cu4 Cu3 65.23(2) 5_666 5_666
Cu2 Cu4 Cu3 77.318(17) 5_666 5_666
Cu2 Cu4 Cu3 115.29(2) 5_656 5_666
Cu5B Cu4 Cu3 40.7(4) 6_656 5_666
Cu5B Cu4 Cu3 110.46(14) 2_565 5_666
Cu5B Cu4 Cu3 163.3(3) 2 5_666
Cu5A Cu4 Cu3 109.92(4) 2_565 5_666
Cu5A Cu4 Cu3 160.44(7) 2 5_666
Th1 Cu4 Cu3 49.774(11) 6_656 5_666
Cu2 Cu4 Cu3 82.047(17) . 5_666
Cu3 Cu4 Cu3 96.066(13) 6_657 5_666
Cu4 Cu4 Cu3 63.096(5) 1_565 5_666
Cu4 Cu4 Cu3 116.903(5) 1_545 5_666
Cu3 Cu4 Cu3 142.981(12) . 5_666
Cu1 Cu4 Cu3 150.683(9) 6_657 5_666
Cu3 Cu4 Cu3 53.807(11) 5_656 5_666
P3 Cu4 P2 63.19(3) . 2_554
P2 Cu4 P2 149.902(16) 6_657 2_554
P3 Cu4 P2 57.77(3) 5_656 2_554
P3 Cu4 P2 99.57(3) 5_666 2_554
Cu5A Cu4 P2 42.19(8) 6_656 2_554
Cu4 Cu4 P2 26.69(2) 5_656 2_554
Cu4 Cu4 P2 75.71(3) 5_666 2_554
Cu2 Cu4 P2 155.14(2) 5_666 2_554
Cu2 Cu4 P2 106.148(15) 5_656 2_554
Cu5B Cu4 P2 38.5(4) 6_656 2_554
Cu5B Cu4 P2 122.0(7) 2_565 2_554
Cu5B Cu4 P2 86.5(6) 2 2_554
Cu5A Cu4 P2 116.50(11) 2_565 2_554
Cu5A Cu4 P2 82.01(9) 2 2_554
Th1 Cu4 P2 103.17(2) 6_656 2_554
Cu2 Cu4 P2 32.448(14) . 2_554
Cu3 Cu4 P2 146.300(17) 6_657 2_554
Cu4 Cu4 P2 116.119(8) 1_565 2_554
Cu4 Cu4 P2 63.881(8) 1_545 2_554
Cu3 Cu4 P2 92.20(2) . 2_554
Cu1 Cu4 P2 126.10(2) 6_657 2_554
Cu3 Cu4 P2 54.115(19) 5_656 2_554
Cu3 Cu4 P2 79.178(18) 5_666 2_554
P3 Cu4 P2 63.19(3) . 2_564
P2 Cu4 P2 149.902(16) 6_657 2_564
P3 Cu4 P2 99.57(3) 5_656 2_564
P3 Cu4 P2 57.77(3) 5_666 2_564
Cu5A Cu4 P2 42.19(8) 6_656 2_564
Cu4 Cu4 P2 75.71(2) 5_656 2_564
Cu4 Cu4 P2 26.69(2) 5_666 2_564
Cu2 Cu4 P2 106.148(15) 5_666 2_564
Cu2 Cu4 P2 155.14(2) 5_656 2_564
Cu5B Cu4 P2 38.5(4) 6_656 2_564
Cu5B Cu4 P2 86.5(6) 2_565 2_564
Cu5B Cu4 P2 122.0(7) 2 2_564
Cu5A Cu4 P2 82.01(9) 2_565 2_564
Cu5A Cu4 P2 116.50(11) 2 2_564
Th1 Cu4 P2 103.17(2) 6_656 2_564
Cu2 Cu4 P2 32.448(14) . 2_564
Cu3 Cu4 P2 146.300(17) 6_657 2_564
Cu4 Cu4 P2 63.881(8) 1_565 2_564
Cu4 Cu4 P2 116.119(8) 1_545 2_564
Cu3 Cu4 P2 92.20(2) . 2_564
Cu1 Cu4 P2 126.10(2) 6_657 2_564
Cu3 Cu4 P2 79.178(18) 5_656 2_564
Cu3 Cu4 P2 54.115(19) 5_666 2_564
P2 Cu4 P2 52.237(16) 2_554 2_564
P3 Cu4 P3 58.841(15) . 1_545
P2 Cu4 P3 97.51(2) 6_657 1_545
P3 Cu4 P3 61.49(4) 5_656 1_545
P3 Cu4 P3 151.96(2) 5_666 1_545
Cu5A Cu4 P3 92.19(6) 6_656 1_545
Cu4 Cu4 P3 25.75(2) 5_656 1_545
Cu4 Cu4 P3 110.87(3) 5_666 1_545
Cu2 Cu4 P3 152.45(3) 5_666 1_545
Cu2 Cu4 P3 70.341(18) 5_656 1_545
Cu5B Cu4 P3 89.6(3) 6_656 1_545
Cu5B Cu4 P3 109.4(3) 2_565 1_545
Cu5B Cu4 P3 35.2(5) 2 1_545
Cu5A Cu4 P3 106.73(7) 2_565 1_545
Cu5A Cu4 P3 31.82(7) 2 1_545
Th1 Cu4 P3 119.916(15) 6_656 1_545
Cu2 Cu4 P3 66.604(17) . 1_545
Cu3 Cu4 P3 114.147(17) 6_657 1_545
Cu4 Cu4 P3 148.841(15) 1_565 1_545
Cu4 Cu4 P3 31.159(15) 1_545 1_545
Cu3 Cu4 P3 64.158(16) . 1_545
Cu1 Cu4 P3 80.381(17) 6_657 1_545
Cu3 Cu4 P3 81.379(16) 5_656 1_545
Cu3 Cu4 P3 128.65(2) 5_666 1_545
P2 Cu4 P3 52.406(19) 2_554 1_545
P2 Cu4 P3 98.24(2) 2_564 1_545
P3 Cu4 P3 58.841(15) . 1_565
P2 Cu4 P3 97.51(2) 6_657 1_565
P3 Cu4 P3 151.96(2) 5_656 1_565
P3 Cu4 P3 61.49(4) 5_666 1_565
Cu5A Cu4 P3 92.19(6) 6_656 1_565
Cu4 Cu4 P3 110.87(3) 5_656 1_565
Cu4 Cu4 P3 25.75(2) 5_666 1_565
Cu2 Cu4 P3 70.341(18) 5_666 1_565
Cu2 Cu4 P3 152.45(3) 5_656 1_565
Cu5B Cu4 P3 89.6(3) 6_656 1_565
Cu5B Cu4 P3 35.2(5) 2_565 1_565
Cu5B Cu4 P3 109.4(3) 2 1_565
Cu5A Cu4 P3 31.82(7) 2_565 1_565
Cu5A Cu4 P3 106.73(7) 2 1_565
Th1 Cu4 P3 119.915(16) 6_656 1_565
Cu2 Cu4 P3 66.604(17) . 1_565
Cu3 Cu4 P3 114.147(17) 6_657 1_565
Cu4 Cu4 P3 31.159(15) 1_565 1_565
Cu4 Cu4 P3 148.841(15) 1_545 1_565
Cu3 Cu4 P3 64.158(16) . 1_565
Cu1 Cu4 P3 80.381(17) 6_657 1_565
Cu3 Cu4 P3 128.65(2) 5_656 1_565
Cu3 Cu4 P3 81.379(16) 5_666 1_565
P2 Cu4 P3 98.24(2) 2_554 1_565
P2 Cu4 P3 52.406(19) 2_564 1_565
P3 Cu4 P3 117.68(3) 1_545 1_565
P3 Cu4 P2 97.56(2) . 6_667
P2 Cu4 P2 58.629(15) 6_657 6_667
P3 Cu4 P2 149.38(4) 5_656 6_667
P3 Cu4 P2 60.24(3) 5_666 6_667
Cu5A Cu4 P2 119.51(3) 6_656 6_667
Cu4 Cu4 P2 155.82(3) 5_656 6_667
Cu4 Cu4 P2 70.01(2) 5_666 6_667
Cu2 Cu4 P2 24.62(2) 5_666 6_667
Cu2 Cu4 P2 108.13(2) 5_656 6_667
Cu5B Cu4 P2 120.36(8) 6_656 6_667
Cu5B Cu4 P2 36.8(5) 2_565 6_667
Cu5B Cu4 P2 110.3(3) 2 6_667
Cu5A Cu4 P2 41.01(9) 2_565 6_667
Cu5A Cu4 P2 112.36(6) 2 6_667
Th1 Cu4 P2 90.423(19) 6_656 6_667
Cu2 Cu4 P2 115.080(17) . 6_667
Cu3 Cu4 P2 65.644(16) 6_657 6_667
Cu4 Cu4 P2 31.371(15) 1_565 6_667
Cu4 Cu4 P2 148.629(15) 1_545 6_667
Cu3 Cu4 P2 80.761(18) . 6_667
Cu1 Cu4 P2 64.265(16) 6_657 6_667
Cu3 Cu4 P2 135.33(2) 5_656 6_667
Cu3 Cu4 P2 86.476(16) 5_666 6_667
P2 Cu4 P2 145.717(12) 2_554 6_667
P2 Cu4 P2 94.27(2) 2_564 6_667
P3 Cu4 P2 143.01(3) 1_545 6_667
P3 Cu4 P2 48.50(2) 1_565 6_667
P3 Cu4 P2 97.56(2) . 6_647
P2 Cu4 P2 58.629(15) 6_657 6_647
P3 Cu4 P2 60.24(3) 5_656 6_647
P3 Cu4 P2 149.38(4) 5_666 6_647
Cu5A Cu4 P2 119.51(3) 6_656 6_647
Cu4 Cu4 P2 70.01(2) 5_656 6_647
Cu4 Cu4 P2 155.82(3) 5_666 6_647
Cu2 Cu4 P2 108.13(2) 5_666 6_647
Cu2 Cu4 P2 24.62(2) 5_656 6_647
Cu5B Cu4 P2 120.36(8) 6_656 6_647
Cu5B Cu4 P2 110.3(3) 2_565 6_647
Cu5B Cu4 P2 36.8(5) 2 6_647
Cu5A Cu4 P2 112.36(6) 2_565 6_647
Cu5A Cu4 P2 41.01(9) 2 6_647
Th1 Cu4 P2 90.423(18) 6_656 6_647
Cu2 Cu4 P2 115.079(17) . 6_647
Cu3 Cu4 P2 65.644(16) 6_657 6_647
Cu4 Cu4 P2 148.629(15) 1_565 6_647
Cu4 Cu4 P2 31.371(15) 1_545 6_647
Cu3 Cu4 P2 80.761(18) . 6_647
Cu1 Cu4 P2 64.265(16) 6_657 6_647
Cu3 Cu4 P2 86.476(16) 5_656 6_647
Cu3 Cu4 P2 135.33(2) 5_666 6_647
P2 Cu4 P2 94.27(2) 2_554 6_647
P2 Cu4 P2 145.717(12) 2_564 6_647
P3 Cu4 P2 48.50(2) 1_545 6_647
P3 Cu4 P2 143.01(3) 1_565 6_647
P2 Cu4 P2 117.26(3) 6_667 6_647
P3 Cu4 P1 150.60(2) . 5_666
P2 Cu4 P1 62.13(3) 6_657 5_666
P3 Cu4 P1 96.34(3) 5_656 5_666
P3 Cu4 P1 56.24(3) 5_666 5_666
Cu5A Cu4 P1 100.98(10) 6_656 5_666
Cu4 Cu4 P1 151.13(3) 5_656 5_666
Cu4 Cu4 P1 105.07(2) 5_666 5_666
Cu2 Cu4 P1 28.487(18) 5_666 5_666
Cu2 Cu4 P1 73.750(18) 5_656 5_666
Cu5B Cu4 P1 105.5(5) 6_656 5_666
Cu5B Cu4 P1 88.8(6) 2_565 5_666
Cu5B Cu4 P1 122.9(7) 2 5_666
Cu5A Cu4 P1 93.62(9) 2_565 5_666
Cu5A Cu4 P1 128.35(11) 2 5_666
Th1 Cu4 P1 39.501(15) 6_656 5_666
Cu2 Cu4 P1 146.351(18) . 5_666
Cu3 Cu4 P1 32.298(14) 6_657 5_666
Cu4 Cu4 P1 65.218(7) 1_565 5_666
Cu4 Cu4 P1 114.782(7) 1_545 5_666
Cu3 Cu4 P1 126.60(2) . 5_666
Cu1 Cu4 P1 92.26(2) 6_657 5_666
Cu3 Cu4 P1 89.175(19) 5_656 5_666
Cu3 Cu4 P1 66.812(18) 5_666 5_666
P2 Cu4 P1 140.88(3) 2_554 5_666
P2 Cu4 P1 114.004(19) 2_564 5_666
P3 Cu4 P1 144.044(19) 1_545 5_666
P3 Cu4 P1 95.283(16) 1_565 5_666
P2 Cu4 P1 53.04(2) 6_667 5_666
P2 Cu4 P1 96.58(2) 6_647 5_666
P3 Cu4 P1 150.60(2) . 5_656
P2 Cu4 P1 62.13(3) 6_657 5_656
P3 Cu4 P1 56.24(3) 5_656 5_656
P3 Cu4 P1 96.34(3) 5_666 5_656
Cu5A Cu4 P1 100.98(10) 6_656 5_656
Cu4 Cu4 P1 105.07(2) 5_656 5_656
Cu4 Cu4 P1 151.13(3) 5_666 5_656
Cu2 Cu4 P1 73.750(18) 5_666 5_656
Cu2 Cu4 P1 28.487(18) 5_656 5_656
Cu5B Cu4 P1 105.5(5) 6_656 5_656
Cu5B Cu4 P1 122.9(7) 2_565 5_656
Cu5B Cu4 P1 88.8(6) 2 5_656
Cu5A Cu4 P1 128.35(11) 2_565 5_656
Cu5A Cu4 P1 93.62(9) 2 5_656
Th1 Cu4 P1 39.501(15) 6_656 5_656
Cu2 Cu4 P1 146.351(18) . 5_656
Cu3 Cu4 P1 32.298(14) 6_657 5_656
Cu4 Cu4 P1 114.782(7) 1_565 5_656
Cu4 Cu4 P1 65.218(7) 1_545 5_656
Cu3 Cu4 P1 126.60(2) . 5_656
Cu1 Cu4 P1 92.26(2) 6_657 5_656
Cu3 Cu4 P1 66.812(18) 5_656 5_656
Cu3 Cu4 P1 89.175(19) 5_666 5_656
P2 Cu4 P1 114.004(19) 2_554 5_656
P2 Cu4 P1 140.88(3) 2_564 5_656
P3 Cu4 P1 95.283(16) 1_545 5_656
P3 Cu4 P1 144.044(19) 1_565 5_656
P2 Cu4 P1 96.58(2) 6_667 5_656
P2 Cu4 P1 53.04(2) 6_647 5_656
P1 Cu4 P1 49.564(14) 5_666 5_656
P3 Cu4 Cu5A 92.38(6) . 6_646
P2 Cu4 Cu5A 122.14(5) 6_657 6_646
P3 Cu4 Cu5A 21.02(7) 5_656 6_646
P3 Cu4 Cu5A 112.38(4) 5_666 6_646
Cu5A Cu4 Cu5A 55.79(4) 6_656 6_646
Cu4 Cu4 Cu5A 34.32(6) 5_656 6_646
Cu4 Cu4 Cu5A 112.88(6) 5_666 6_646
Cu2 Cu4 Cu5A 145.46(6) 5_666 6_646
Cu2 Cu4 Cu5A 69.01(6) 5_656 6_646
Cu5B Cu4 Cu5A 55.94(4) 6_656 6_646
Cu5B Cu4 Cu5A 153.7(5) 2_565 6_646
Cu5B Cu4 Cu5A 77.6(2) 2 6_646
Cu5A Cu4 Cu5A 149.32(4) 2_565 6_646
Cu5A Cu4 Cu5A 76.15(7) 2 6_646
Th1 Cu4 Cu5A 79.08(6) 6_656 6_646
Cu2 Cu4 Cu5A 70.88(6) . 6_646
Cu3 Cu4 Cu5A 108.09(6) 6_657 6_646
Cu4 Cu4 Cu5A 145.79(4) 1_565 6_646
Cu4 Cu4 Cu5A 34.21(4) 1_545 6_646
Cu3 Cu4 Cu5A 109.70(5) . 6_646
Cu1 Cu4 Cu5A 122.96(3) 6_657 6_646
Cu3 Cu4 Cu5A 34.71(4) 5_656 6_646
Cu3 Cu4 Cu5A 85.78(3) 5_666 6_646
P2 Cu4 Cu5A 38.68(6) 2_554 6_646
P2 Cu4 Cu5A 86.99(5) 2_564 6_646
P3 Cu4 Cu5A 46.67(4) 1_545 6_646
P3 Cu4 Cu5A 136.82(6) 1_565 6_646
P2 Cu4 Cu5A 169.43(6) 6_667 6_646
P2 Cu4 Cu5A 64.58(4) 6_647 6_646
P1 Cu4 Cu5A 116.98(6) 5_666 6_646
P1 Cu4 Cu5A 76.14(7) 5_656 6_646
P3 Cu4 Cu5A 92.38(6) . 6_666
P2 Cu4 Cu5A 122.14(5) 6_657 6_666
P3 Cu4 Cu5A 112.38(4) 5_656 6_666
P3 Cu4 Cu5A 21.02(7) 5_666 6_666
Cu5A Cu4 Cu5A 55.79(4) 6_656 6_666
Cu4 Cu4 Cu5A 112.88(6) 5_656 6_666
Cu4 Cu4 Cu5A 34.32(6) 5_666 6_666
Cu2 Cu4 Cu5A 69.01(6) 5_666 6_666
Cu2 Cu4 Cu5A 145.46(6) 5_656 6_666
Cu5B Cu4 Cu5A 55.94(4) 6_656 6_666
Cu5B Cu4 Cu5A 77.6(2) 2_565 6_666
Cu5B Cu4 Cu5A 153.7(5) 2 6_666
Cu5A Cu4 Cu5A 76.15(7) 2_565 6_666
Cu5A Cu4 Cu5A 149.32(4) 2 6_666
Th1 Cu4 Cu5A 79.08(6) 6_656 6_666
Cu2 Cu4 Cu5A 70.88(6) . 6_666
Cu3 Cu4 Cu5A 108.09(6) 6_657 6_666
Cu4 Cu4 Cu5A 34.21(4) 1_565 6_666
Cu4 Cu4 Cu5A 145.79(4) 1_545 6_666
Cu3 Cu4 Cu5A 109.70(5) . 6_666
Cu1 Cu4 Cu5A 122.96(3) 6_657 6_666
Cu3 Cu4 Cu5A 85.78(3) 5_656 6_666
Cu3 Cu4 Cu5A 34.71(4) 5_666 6_666
P2 Cu4 Cu5A 86.99(5) 2_554 6_666
P2 Cu4 Cu5A 38.68(6) 2_564 6_666
P3 Cu4 Cu5A 136.82(6) 1_545 6_666
P3 Cu4 Cu5A 46.67(4) 1_565 6_666
P2 Cu4 Cu5A 64.58(4) 6_667 6_666
P2 Cu4 Cu5A 169.43(6) 6_647 6_666
P1 Cu4 Cu5A 76.14(7) 5_666 6_666
P1 Cu4 Cu5A 116.98(6) 5_656 6_666
Cu5A Cu4 Cu5A 111.58(7) 6_646 6_666
P3 Cu4 Cu5B 89.6(3) . 6_646
P2 Cu4 Cu5B 124.5(3) 6_657 6_646
P3 Cu4 Cu5B 24.1(4) 5_656 6_646
P3 Cu4 Cu5B 112.18(10) 5_666 6_646
Cu5A Cu4 Cu5B 54.44(19) 6_656 6_646
Cu4 Cu4 Cu5B 31.7(3) 5_656 6_646
Cu4 Cu4 Cu5B 110.0(4) 5_666 6_646
Cu2 Cu4 Cu5B 148.2(3) 5_666 6_646
Cu2 Cu4 Cu5B 71.9(4) 5_656 6_646
Cu5B Cu4 Cu5B 54.3(2) 6_656 6_646
Cu5B Cu4 Cu5B 151.3(3) 2_565 6_646
Cu5B Cu4 Cu5B 77.6(3) 2 6_646
Cu5A Cu4 Cu5B 146.6(3) 2_565 6_646
Cu5A Cu4 Cu5B 75.85(7) 2 6_646
Th1 Cu4 Cu5B 81.5(3) 6_656 6_646
Cu2 Cu4 Cu5B 67.7(4) . 6_646
Cu3 Cu4 Cu5B 111.3(4) 6_657 6_646
Cu4 Cu4 Cu5B 144.3(2) 1_565 6_646
Cu4 Cu4 Cu5B 35.7(2) 1_545 6_646
Cu3 Cu4 Cu5B 107.9(2) . 6_646
Cu1 Cu4 Cu5B 123.36(10) 6_657 6_646
Cu3 Cu4 Cu5B 35.88(17) 5_656 6_646
Cu3 Cu4 Cu5B 85.67(9) 5_666 6_646
P2 Cu4 Cu5B 35.5(4) 2_554 6_646
P2 Cu4 Cu5B 84.3(3) 2_564 6_646
P3 Cu4 Cu5B 45.67(14) 1_545 6_646
P3 Cu4 Cu5B 133.7(4) 1_565 6_646
P2 Cu4 Cu5B 171.21(18) 6_667 6_646
P2 Cu4 Cu5B 66.5(3) 6_647 6_646
P1 Cu4 Cu5B 119.8(3) 5_666 6_646
P1 Cu4 Cu5B 79.4(4) 5_656 6_646
Cu5A Cu4 Cu5B 3.2(4) 6_646 6_646
Cu5A Cu4 Cu5B 110.2(2) 6_666 6_646
P3 Cu4 Cu5B 89.6(3) . 6_666
P2 Cu4 Cu5B 124.5(3) 6_657 6_666
P3 Cu4 Cu5B 112.18(10) 5_656 6_666
P3 Cu4 Cu5B 24.1(4) 5_666 6_666
Cu5A Cu4 Cu5B 54.44(19) 6_656 6_666
Cu4 Cu4 Cu5B 110.0(4) 5_656 6_666
Cu4 Cu4 Cu5B 31.7(3) 5_666 6_666
Cu2 Cu4 Cu5B 71.9(4) 5_666 6_666
Cu2 Cu4 Cu5B 148.2(3) 5_656 6_666
Cu5B Cu4 Cu5B 54.3(2) 6_656 6_666
Cu5B Cu4 Cu5B 77.6(3) 2_565 6_666
Cu5B Cu4 Cu5B 151.3(2) 2 6_666
Cu5A Cu4 Cu5B 75.85(7) 2_565 6_666
Cu5A Cu4 Cu5B 146.6(3) 2 6_666
Th1 Cu4 Cu5B 81.5(3) 6_656 6_666
Cu2 Cu4 Cu5B 67.7(4) . 6_666
Cu3 Cu4 Cu5B 111.3(4) 6_657 6_666
Cu4 Cu4 Cu5B 35.7(2) 1_565 6_666
Cu4 Cu4 Cu5B 144.3(2) 1_545 6_666
Cu3 Cu4 Cu5B 107.9(2) . 6_666
Cu1 Cu4 Cu5B 123.36(10) 6_657 6_666
Cu3 Cu4 Cu5B 85.67(9) 5_656 6_666
Cu3 Cu4 Cu5B 35.88(17) 5_666 6_666
P2 Cu4 Cu5B 84.3(3) 2_554 6_666
P2 Cu4 Cu5B 35.5(4) 2_564 6_666
P3 Cu4 Cu5B 133.7(4) 1_545 6_666
P3 Cu4 Cu5B 45.67(14) 1_565 6_666
P2 Cu4 Cu5B 66.5(3) 6_667 6_666
P2 Cu4 Cu5B 171.21(18) 6_647 6_666
P1 Cu4 Cu5B 79.4(4) 5_666 6_666
P1 Cu4 Cu5B 119.8(3) 5_656 6_666
Cu5A Cu4 Cu5B 110.2(2) 6_646 6_666
Cu5A Cu4 Cu5B 3.2(4) 6_666 6_666
Cu5B Cu4 Cu5B 108.6(4) 6_646 6_666
P3 Cu4 P1 106.15(4) . 6_656
P2 Cu4 P1 149.21(4) 6_657 6_656
P3 Cu4 P1 56.32(3) 5_656 6_656
P3 Cu4 P1 56.32(3) 5_666 6_656
Cu5A Cu4 P1 11.91(11) 6_656 6_656
Cu4 Cu4 P1 74.60(3) 5_656 6_656
Cu4 Cu4 P1 74.60(3) 5_666 6_656
Cu2 Cu4 P1 106.78(2) 5_666 6_656
Cu2 Cu4 P1 106.78(2) 5_656 6_656
Cu5B Cu4 P1 16.9(6) 6_656 6_656
Cu5B Cu4 P1 132.9(4) 2_565 6_656
Cu5B Cu4 P1 132.9(4) 2 6_656
Cu5A Cu4 P1 130.09(7) 2_565 6_656
Cu5A Cu4 P1 130.09(7) 2 6_656
Th1 Cu4 P1 58.401(18) 6_656 6_656
Cu2 Cu4 P1 66.27(2) . 6_656
Cu3 Cu4 P1 111.61(2) 6_657 6_656
Cu4 Cu4 P1 90.0 1_565 6_656
Cu4 Cu4 P1 90.0 1_545 6_656
Cu3 Cu4 P1 138.75(2) . 6_656
Cu1 Cu4 P1 177.31(2) 6_657 6_656
Cu3 Cu4 P1 30.438(9) 5_656 6_656
Cu3 Cu4 P1 30.438(9) 5_666 6_656
P2 Cu4 P1 51.66(2) 2_554 6_656
P2 Cu4 P1 51.66(2) 2_564 6_656
P3 Cu4 P1 98.275(19) 1_545 6_656
P3 Cu4 P1 98.275(19) 1_565 6_656
P2 Cu4 P1 116.565(17) 6_667 6_656
P2 Cu4 P1 116.565(17) 6_647 6_656
P1 Cu4 P1 90.18(2) 5_666 6_656
P1 Cu4 P1 90.18(2) 5_656 6_656
Cu5A Cu4 P1 56.63(3) 6_646 6_656
Cu5A Cu4 P1 56.63(3) 6_666 6_656
Cu5B Cu4 P1 56.05(11) 6_646 6_656
Cu5B Cu4 P1 56.05(11) 6_666 6_656
P3 Cu4 Th1 23.618(5) . 2
P2 Cu4 Th1 106.65(3) 6_657 2
P3 Cu4 Th1 91.00(3) 5_656 2
P3 Cu4 Th1 130.37(3) 5_666 2
Cu5A Cu4 Th1 90.63(10) 6_656 2
Cu4 Cu4 Th1 37.10(2) 5_656 2
Cu4 Cu4 Th1 77.58(2) 5_666 2
Cu2 Cu4 Th1 142.78(2) 5_666 2
Cu2 Cu4 Th1 103.271(14) 5_656 2
Cu5B Cu4 Th1 86.0(5) 6_656 2
Cu5B Cu4 Th1 82.5(5) 2_565 2
Cu5B Cu4 Th1 48.5(7) 2 2
Cu5A Cu4 Th1 78.19(9) 2_565 2
Cu5A Cu4 Th1 42.95(10) 2 2
Th1 Cu4 Th1 150.226(11) 6_656 2
Cu2 Cu4 Th1 42.305(10) . 2
Cu3 Cu4 Th1 139.392(14) 6_657 2
Cu4 Cu4 Th1 113.365(3) 1_565 2
Cu4 Cu4 Th1 66.635(3) 1_545 2
Cu3 Cu4 Th1 42.161(9) . 2
Cu1 Cu4 Th1 75.988(13) 6_657 2
Cu3 Cu4 Th1 101.380(12) 5_656 2
Cu3 Cu4 Th1 123.795(16) 5_666 2
P2 Cu4 Th1 50.809(17) 2_554 2
P2 Cu4 Th1 73.577(17) 2_564 2
P3 Cu4 Th1 35.565(14) 1_545 2
P3 Cu4 Th1 82.258(17) 1_565 2
P2 Cu4 Th1 119.19(2) 6_667 2
P2 Cu4 Th1 79.078(17) 6_647 2
P1 Cu4 Th1 168.23(2) 5_666 2
P1 Cu4 Th1 130.278(9) 5_656 2
Cu5A Cu4 Th1 71.23(6) 6_646 2
Cu5A Cu4 Th1 109.52(7) 6_666 2
Cu5B Cu4 Th1 68.8(3) 6_646 2
Cu5B Cu4 Th1 106.4(4) 6_666 2
P1 Cu4 Th1 101.553(18) 6_656 2
P3 Cu4 Th1 23.618(5) . 2_565
P2 Cu4 Th1 106.65(3) 6_657 2_565
P3 Cu4 Th1 130.37(4) 5_656 2_565
P3 Cu4 Th1 91.00(3) 5_666 2_565
Cu5A Cu4 Th1 90.63(10) 6_656 2_565
Cu4 Cu4 Th1 77.58(2) 5_656 2_565
Cu4 Cu4 Th1 37.10(2) 5_666 2_565
Cu2 Cu4 Th1 103.271(14) 5_666 2_565
Cu2 Cu4 Th1 142.78(2) 5_656 2_565
Cu5B Cu4 Th1 86.0(5) 6_656 2_565
Cu5B Cu4 Th1 48.5(7) 2_565 2_565
Cu5B Cu4 Th1 82.5(5) 2 2_565
Cu5A Cu4 Th1 42.95(10) 2_565 2_565
Cu5A Cu4 Th1 78.19(9) 2 2_565
Th1 Cu4 Th1 150.226(11) 6_656 2_565
Cu2 Cu4 Th1 42.305(10) . 2_565
Cu3 Cu4 Th1 139.392(14) 6_657 2_565
Cu4 Cu4 Th1 66.635(3) 1_565 2_565
Cu4 Cu4 Th1 113.365(3) 1_545 2_565
Cu3 Cu4 Th1 42.161(9) . 2_565
Cu1 Cu4 Th1 75.988(13) 6_657 2_565
Cu3 Cu4 Th1 123.795(16) 5_656 2_565
Cu3 Cu4 Th1 101.380(11) 5_666 2_565
P2 Cu4 Th1 73.577(16) 2_554 2_565
P2 Cu4 Th1 50.809(17) 2_564 2_565
P3 Cu4 Th1 82.258(17) 1_545 2_565
P3 Cu4 Th1 35.565(14) 1_565 2_565
P2 Cu4 Th1 79.078(16) 6_667 2_565
P2 Cu4 Th1 119.19(2) 6_647 2_565
P1 Cu4 Th1 130.278(9) 5_666 2_565
P1 Cu4 Th1 168.23(2) 5_656 2_565
Cu5A Cu4 Th1 109.52(7) 6_646 2_565
Cu5A Cu4 Th1 71.23(6) 6_666 2_565
Cu5B Cu4 Th1 106.4(4) 6_646 2_565
Cu5B Cu4 Th1 68.8(3) 6_666 2_565
P1 Cu4 Th1 101.553(18) 6_656 2_565
Th1 Cu4 Th1 46.730(6) 2 2_565
P3 Cu4 P1 55.85(3) . 2_565
P2 Cu4 P1 55.87(3) 6_657 2_565
P3 Cu4 P1 150.68(3) 5_656 2_565
P3 Cu4 P1 104.00(2) 5_666 2_565
Cu5A Cu4 P1 139.99(9) 6_656 2_565
Cu4 Cu4 P1 107.90(3) 5_656 2_565
Cu4 Cu4 P1 74.04(3) 5_666 2_565
Cu2 Cu4 P1 71.63(2) 5_666 2_565
Cu2 Cu4 P1 104.57(2) 5_656 2_565
Cu5B Cu4 P1 136.0(5) 6_656 2_565
Cu5B Cu4 P1 18.90(12) 2_565 2_565
Cu5B Cu4 P1 65.58(12) 2 2_565
Cu5A Cu4 P1 19.76(5) 2_565 2_565
Cu5A Cu4 P1 65.54(4) 2 2_565
Th1 Cu4 P1 137.272(19) 6_656 2_565
Cu2 Cu4 P1 92.00(2) . 2_565
Cu3 Cu4 P1 89.94(2) 6_657 2_565
Cu4 Cu4 P1 66.645(7) 1_565 2_565
Cu4 Cu4 P1 113.356(7) 1_545 2_565
Cu3 Cu4 P1 30.197(13) . 2_565
Cu1 Cu4 P1 29.679(13) 6_657 2_565
Cu3 Cu4 P1 172.94(2) 5_656 2_565
Cu3 Cu4 P1 129.320(8) 5_666 2_565
P2 Cu4 P1 119.04(3) 2_554 2_565
P2 Cu4 P1 97.84(2) 2_564 2_565
P3 Cu4 P1 92.797(19) 1_545 2_565
P3 Cu4 P1 50.973(18) 1_565 2_565
P2 Cu4 P1 50.910(19) 6_667 2_565
P2 Cu4 P1 92.66(2) 6_647 2_565
P1 Cu4 P1 97.884(15) 5_666 2_565
P1 Cu4 P1 118.003(18) 5_656 2_565
Cu5A Cu4 P1 139.33(4) 6_646 2_565
Cu5A Cu4 P1 95.90(3) 6_666 2_565
Cu5B Cu4 P1 137.9(2) 6_646 2_565
Cu5B Cu4 P1 95.61(10) 6_666 2_565
P1 Cu4 P1 148.641(12) 6_656 2_565
Th1 Cu4 P1 71.589(15) 2 2_565
Th1 Cu4 P1 50.930(16) 2_565 2_565
P3 Cu4 P1 55.85(3) . 2
P2 Cu4 P1 55.87(3) 6_657 2
P3 Cu4 P1 104.00(2) 5_656 2
P3 Cu4 P1 150.68(3) 5_666 2
Cu5A Cu4 P1 139.99(9) 6_656 2
Cu4 Cu4 P1 74.04(3) 5_656 2
Cu4 Cu4 P1 107.90(3) 5_666 2
Cu2 Cu4 P1 104.57(2) 5_666 2
Cu2 Cu4 P1 71.63(2) 5_656 2
Cu5B Cu4 P1 136.0(5) 6_656 2
Cu5B Cu4 P1 65.58(12) 2_565 2
Cu5B Cu4 P1 18.90(12) 2 2
Cu5A Cu4 P1 65.54(4) 2_565 2
Cu5A Cu4 P1 19.76(5) 2 2
Th1 Cu4 P1 137.272(19) 6_656 2
Cu2 Cu4 P1 92.00(2) . 2
Cu3 Cu4 P1 89.94(2) 6_657 2
Cu4 Cu4 P1 113.356(7) 1_565 2
Cu4 Cu4 P1 66.645(7) 1_545 2
Cu3 Cu4 P1 30.197(13) . 2
Cu1 Cu4 P1 29.679(13) 6_657 2
Cu3 Cu4 P1 129.320(8) 5_656 2
Cu3 Cu4 P1 172.94(2) 5_666 2
P2 Cu4 P1 97.84(2) 2_554 2
P2 Cu4 P1 119.04(3) 2_564 2
P3 Cu4 P1 50.973(18) 1_545 2
P3 Cu4 P1 92.797(19) 1_565 2
P2 Cu4 P1 92.66(2) 6_667 2
P2 Cu4 P1 50.910(19) 6_647 2
P1 Cu4 P1 118.003(18) 5_666 2
P1 Cu4 P1 97.884(15) 5_656 2
Cu5A Cu4 P1 95.90(3) 6_646 2
Cu5A Cu4 P1 139.33(4) 6_666 2
Cu5B Cu4 P1 95.61(10) 6_646 2
Cu5B Cu4 P1 137.9(2) 6_666 2
P1 Cu4 P1 148.641(12) 6_656 2
Th1 Cu4 P1 50.930(16) 2 2
Th1 Cu4 P1 71.589(15) 2_565 2
P1 Cu4 P1 46.711(13) 2_565 2
P1 Cu5A P3 111.23(12) . 2_554
P1 Cu5A P3 111.23(12) . 2_564
P3 Cu5A P3 98.21(17) 2_554 2_564
P1 Cu5A Cu4 154.8(2) . 6_556
P3 Cu5A Cu4 55.94(8) 2_554 6_556
P3 Cu5A Cu4 55.94(8) 2_564 6_556
P1 Cu5A Cu3 57.95(7) . 2_564
P3 Cu5A Cu3 119.2(2) 2_554 2_564
P3 Cu5A Cu3 53.40(6) 2_564 2_564
Cu4 Cu5A Cu3 106.70(14) 6_556 2_564
P1 Cu5A Cu3 57.95(7) . 2_554
P3 Cu5A Cu3 53.40(6) 2_554 2_554
P3 Cu5A Cu3 119.2(2) 2_564 2_554
Cu4 Cu5A Cu3 106.70(14) 6_556 2_554
Cu3 Cu5A Cu3 91.61(13) 2_564 2_554
P1 Cu5A Cu4 135.55(8) . 2_554
P3 Cu5A Cu4 50.14(5) 2_554 2_554
P3 Cu5A Cu4 111.35(11) 2_564 2_554
Cu4 Cu5A Cu4 56.50(5) 6_556 2_554
Cu3 Cu5A Cu4 162.74(18) 2_564 2_554
Cu3 Cu5A Cu4 90.11(3) 2_554 2_554
P1 Cu5A Cu4 135.55(8) . 2_564
P3 Cu5A Cu4 111.35(11) 2_554 2_564
P3 Cu5A Cu4 50.14(5) 2_564 2_564
Cu4 Cu5A Cu4 56.50(5) 6_556 2_564
Cu3 Cu5A Cu4 90.11(3) 2_564 2_564
Cu3 Cu5A Cu4 162.74(18) 2_554 2_564
Cu4 Cu5A Cu4 83.32(8) 2_554 2_564
P1 Cu5A P2 97.31(13) . 5_556
P3 Cu5A P2 83.22(5) 2_554 5_556
P3 Cu5A P2 148.36(14) 2_564 5_556
Cu4 Cu5A P2 101.97(9) 6_556 5_556
Cu3 Cu5A P2 150.38(16) 2_564 5_556
Cu3 Cu5A P2 87.12(5) 2_554 5_556
Cu4 Cu5A P2 46.86(6) 2_554 5_556
Cu4 Cu5A P2 99.72(13) 2_564 5_556
P1 Cu5A P2 97.31(13) . 5_566
P3 Cu5A P2 148.36(14) 2_554 5_566
P3 Cu5A P2 83.22(5) 2_564 5_566
Cu4 Cu5A P2 101.97(9) 6_556 5_566
Cu3 Cu5A P2 87.12(5) 2_564 5_566
Cu3 Cu5A P2 150.38(16) 2_554 5_566
Cu4 Cu5A P2 99.72(13) 2_554 5_566
Cu4 Cu5A P2 46.86(6) 2_564 5_566
P2 Cu5A P2 79.77(13) 5_556 5_566
P1 Cu5A Cu1 51.96(6) . 5_566
P3 Cu5A Cu1 163.19(13) 2_554 5_566
P3 Cu5A Cu1 89.31(3) 2_564 5_566
Cu4 Cu5A Cu1 138.80(5) 6_556 5_566
Cu3 Cu5A Cu1 54.55(4) 2_564 5_566
Cu3 Cu5A Cu1 109.84(10) 2_554 5_566
Cu4 Cu5A Cu1 139.9(2) 2_554 5_566
Cu4 Cu5A Cu1 85.01(7) 2_564 5_566
P2 Cu5A Cu1 98.26(15) 5_556 5_566
P2 Cu5A Cu1 47.25(6) 5_566 5_566
P1 Cu5A Cu1 51.96(6) . 5_556
P3 Cu5A Cu1 89.31(3) 2_554 5_556
P3 Cu5A Cu1 163.19(13) 2_564 5_556
Cu4 Cu5A Cu1 138.80(5) 6_556 5_556
Cu3 Cu5A Cu1 109.84(10) 2_564 5_556
Cu3 Cu5A Cu1 54.55(4) 2_554 5_556
Cu4 Cu5A Cu1 85.01(7) 2_554 5_556
Cu4 Cu5A Cu1 139.9(2) 2_564 5_556
P2 Cu5A Cu1 47.25(6) 5_556 5_556
P2 Cu5A Cu1 98.26(15) 5_566 5_556
Cu1 Cu5A Cu1 79.76(10) 5_566 5_556
P1 Cu5A Cu2 124.4(2) . 6_556
P3 Cu5A Cu2 104.18(9) 2_554 6_556
P3 Cu5A Cu2 104.18(9) 2_564 6_556
Cu4 Cu5A Cu2 80.78(9) 6_556 6_556
Cu3 Cu5A Cu2 132.30(10) 2_564 6_556
Cu3 Cu5A Cu2 132.30(10) 2_554 6_556
Cu4 Cu5A Cu2 54.17(7) 2_554 6_556
Cu4 Cu5A Cu2 54.17(7) 2_564 6_556
P2 Cu5A Cu2 45.90(7) 5_556 6_556
P2 Cu5A Cu2 45.90(7) 5_566 6_556
Cu1 Cu5A Cu2 88.37(13) 5_566 6_556
Cu1 Cu5A Cu2 88.37(13) 5_556 6_556
P1 Cu5A Th1 92.03(15) . .
P3 Cu5A Th1 56.09(10) 2_554 .
P3 Cu5A Th1 56.09(10) 2_564 .
Cu4 Cu5A Th1 62.74(11) 6_556 .
Cu3 Cu5A Th1 64.35(11) 2_564 .
Cu3 Cu5A Th1 64.35(11) 2_554 .
Cu4 Cu5A Th1 101.23(11) 2_554 .
Cu4 Cu5A Th1 101.23(11) 2_564 .
P2 Cu5A Th1 138.74(7) 5_556 .
P2 Cu5A Th1 138.74(7) 5_566 .
Cu1 Cu5A Th1 118.61(11) 5_566 .
Cu1 Cu5A Th1 118.61(11) 5_556 .
Cu2 Cu5A Th1 143.52(11) 6_556 .
P1 Cu5A P3 165.5(2) . 6_556
P3 Cu5A P3 77.67(8) 2_554 6_556
P3 Cu5A P3 77.67(8) 2_564 6_556
Cu4 Cu5A P3 39.77(5) 6_556 6_556
Cu3 Cu5A P3 128.84(7) 2_564 6_556
Cu3 Cu5A P3 128.84(7) 2_554 6_556
Cu4 Cu5A P3 41.73(4) 2_554 6_556
Cu4 Cu5A P3 41.73(4) 2_564 6_556
P2 Cu5A P3 71.75(8) 5_556 6_556
P2 Cu5A P3 71.75(8) 5_566 6_556
Cu1 Cu5A P3 118.80(12) 5_566 6_556
Cu1 Cu5A P3 118.80(12) 5_556 6_556
Cu2 Cu5A P3 41.01(5) 6_556 6_556
Th1 Cu5A P3 102.51(10) . 6_556
P1 Cu5A Cu2 41.21(8) . .
P3 Cu5A Cu2 85.01(12) 2_554 .
P3 Cu5A Cu2 85.01(12) 2_564 .
Cu4 Cu5A Cu2 113.56(17) 6_556 .
Cu3 Cu5A Cu2 45.81(6) 2_564 .
Cu3 Cu5A Cu2 45.81(6) 2_554 .
Cu4 Cu5A Cu2 133.01(10) 2_554 .
Cu4 Cu5A Cu2 133.01(10) 2_564 .
P2 Cu5A Cu2 126.46(7) 5_556 .
P2 Cu5A Cu2 126.46(7) 5_566 .
Cu1 Cu5A Cu2 80.66(7) 5_566 .
Cu1 Cu5A Cu2 80.66(7) 5_556 .
Cu2 Cu5A Cu2 165.66(14) 6_556 .
Th1 Cu5A Cu2 50.82(7) . .
P3 Cu5A Cu2 153.33(15) 6_556 .
P1 Cu5A Cu5A 90.0 . 1_565
P3 Cu5A Cu5A 139.10(8) 2_554 1_565
P3 Cu5A Cu5A 40.90(8) 2_564 1_565
Cu4 Cu5A Cu5A 90.0 6_556 1_565
Cu3 Cu5A Cu5A 44.20(6) 2_564 1_565
Cu3 Cu5A Cu5A 135.80(6) 2_554 1_565
Cu4 Cu5A Cu5A 131.66(4) 2_554 1_565
Cu4 Cu5A Cu5A 48.34(4) 2_564 1_565
P2 Cu5A Cu5A 129.89(7) 5_556 1_565
P2 Cu5A Cu5A 50.11(7) 5_566 1_565
Cu1 Cu5A Cu5A 50.12(5) 5_566 1_565
Cu1 Cu5A Cu5A 129.88(5) 5_556 1_565
Cu2 Cu5A Cu5A 90.0 6_556 1_565
Th1 Cu5A Cu5A 90.0 . 1_565
P3 Cu5A Cu5A 90.0 6_556 1_565
Cu2 Cu5A Cu5A 90.0 . 1_565
P1 Cu5A Cu5A 90.0 . 1_545
P3 Cu5A Cu5A 40.90(8) 2_554 1_545
P3 Cu5A Cu5A 139.10(8) 2_564 1_545
Cu4 Cu5A Cu5A 90.0 6_556 1_545
Cu3 Cu5A Cu5A 135.80(6) 2_564 1_545
Cu3 Cu5A Cu5A 44.20(6) 2_554 1_545
Cu4 Cu5A Cu5A 48.34(4) 2_554 1_545
Cu4 Cu5A Cu5A 131.66(4) 2_564 1_545
P2 Cu5A Cu5A 50.11(7) 5_556 1_545
P2 Cu5A Cu5A 129.89(7) 5_566 1_545
Cu1 Cu5A Cu5A 129.88(5) 5_566 1_545
Cu1 Cu5A Cu5A 50.12(5) 5_556 1_545
Cu2 Cu5A Cu5A 90.0 6_556 1_545
Th1 Cu5A Cu5A 90.0 . 1_545
P3 Cu5A Cu5A 90.0 6_556 1_545
Cu2 Cu5A Cu5A 90.0 . 1_545
Cu5A Cu5A Cu5A 180.0(2) 1_565 1_545
P1 Cu5A Cu5B 89.65(18) . 1_545
P3 Cu5A Cu5B 44.6(5) 2_554 1_545
P3 Cu5A Cu5B 142.7(4) 2_564 1_545
Cu4 Cu5A Cu5B 92.1(3) 6_556 1_545
Cu3 Cu5A Cu5B 138.1(3) 2_564 1_545
Cu3 Cu5A Cu5B 46.7(3) 2_554 1_545
Cu4 Cu5A Cu5B 47.59(15) 2_554 1_545
Cu4 Cu5A Cu5B 130.7(2) 2_564 1_545
P2 Cu5A Cu5B 46.1(5) 5_556 1_545
P2 Cu5A Cu5B 125.9(4) 5_566 1_545
Cu1 Cu5A Cu5B 127.1(3) 5_566 1_545
Cu1 Cu5A Cu5B 47.5(3) 5_556 1_545
Cu2 Cu5A Cu5B 86.8(4) 6_556 1_545
Th1 Cu5A Cu5B 94.1(5) . 1_545
P3 Cu5A Cu5B 89.31(18) 6_556 1_545
Cu2 Cu5A Cu5B 92.5(3) . 1_545
Cu5A Cu5A Cu5B 175.9(5) 1_565 1_545
Cu5A Cu5A Cu5B 4.1(5) 1_545 1_545
P1 Cu5A Cu5B 89.65(18) . 1_565
P3 Cu5A Cu5B 142.7(4) 2_554 1_565
P3 Cu5A Cu5B 44.6(5) 2_564 1_565
Cu4 Cu5A Cu5B 92.1(3) 6_556 1_565
Cu3 Cu5A Cu5B 46.7(3) 2_564 1_565
Cu3 Cu5A Cu5B 138.1(3) 2_554 1_565
Cu4 Cu5A Cu5B 130.7(2) 2_554 1_565
Cu4 Cu5A Cu5B 47.59(15) 2_564 1_565
P2 Cu5A Cu5B 125.9(4) 5_556 1_565
P2 Cu5A Cu5B 46.1(5) 5_566 1_565
Cu1 Cu5A Cu5B 47.5(3) 5_566 1_565
Cu1 Cu5A Cu5B 127.1(3) 5_556 1_565
Cu2 Cu5A Cu5B 86.8(4) 6_556 1_565
Th1 Cu5A Cu5B 94.1(5) . 1_565
P3 Cu5A Cu5B 89.31(18) 6_556 1_565
Cu2 Cu5A Cu5B 92.5(3) . 1_565
Cu5A Cu5A Cu5B 4.1(5) 1_565 1_565
Cu5A Cu5A Cu5B 175.9(5) 1_545 1_565
Cu5B Cu5A Cu5B 171.7(9) 1_545 1_565
P1 Cu5A Th1 74.44(12) . 6_556
P3 Cu5A Th1 128.51(10) 2_554 6_556
P3 Cu5A Th1 128.51(10) 2_564 6_556
Cu4 Cu5A Th1 130.79(14) 6_556 6_556
Cu3 Cu5A Th1 107.04(10) 2_564 6_556
Cu3 Cu5A Th1 107.04(10) 2_554 6_556
Cu4 Cu5A Th1 88.82(12) 2_554 6_556
Cu4 Cu5A Th1 88.82(12) 2_564 6_556
P2 Cu5A Th1 45.99(7) 5_556 6_556
P2 Cu5A Th1 45.99(7) 5_566 6_556
Cu1 Cu5A Th1 52.71(8) 5_566 6_556
Cu1 Cu5A Th1 52.71(8) 5_556 6_556
Cu2 Cu5A Th1 50.01(8) 6_556 6_556
Th1 Cu5A Th1 166.47(9) . 6_556
P3 Cu5A Th1 91.02(11) 6_556 6_556
Cu2 Cu5A Th1 115.65(8) . 6_556
Cu5A Cu5A Th1 90.0 1_565 6_556
Cu5A Cu5A Th1 90.0 1_545 6_556
Cu5B Cu5A Th1 85.9(5) 1_545 6_556
Cu5B Cu5A Th1 85.9(5) 1_565 6_556
P1 Cu5A Cu1 28.60(8) . .
P3 Cu5A Cu1 125.38(6) 2_554 .
P3 Cu5A Cu1 125.38(6) 2_564 .
Cu4 Cu5A Cu1 176.63(18) 6_556 .
Cu3 Cu5A Cu1 75.55(7) 2_564 .
Cu3 Cu5A Cu1 75.55(7) 2_554 .
Cu4 Cu5A Cu1 121.43(12) 2_554 .
Cu4 Cu5A Cu1 121.43(12) 2_564 .
P2 Cu5A Cu1 75.49(9) 5_556 .
P2 Cu5A Cu1 75.49(9) 5_566 .
Cu1 Cu5A Cu1 40.54(5) 5_566 .
Cu1 Cu5A Cu1 40.54(5) 5_556 .
Cu2 Cu5A Cu1 95.85(12) 6_556 .
Th1 Cu5A Cu1 120.63(9) . .
P3 Cu5A Cu1 136.86(15) 6_556 .
Cu2 Cu5A Cu1 69.81(5) . .
Cu5A Cu5A Cu1 90.0 1_565 .
Cu5A Cu5A Cu1 90.0 1_545 .
Cu5B Cu5A Cu1 87.7(3) 1_545 .
Cu5B Cu5A Cu1 87.7(3) 1_565 .
Th1 Cu5A Cu1 45.84(5) 6_556 .
P1 Cu5A Cu2 127.67(15) . 2_554
P3 Cu5A Cu2 24.60(5) 2_554 2_554
P3 Cu5A Cu2 75.07(10) 2_564 2_554
Cu4 Cu5A Cu2 33.30(5) 6_556 2_554
Cu3 Cu5A Cu2 109.47(15) 2_564 2_554
Cu3 Cu5A Cu2 73.45(9) 2_554 2_554
Cu4 Cu5A Cu2 54.79(6) 2_554 2_554
Cu4 Cu5A Cu2 89.80(8) 2_564 2_554
P2 Cu5A Cu2 98.52(5) 5_556 2_554
P2 Cu5A Cu2 134.51(9) 5_566 2_554
Cu1 Cu5A Cu2 163.05(12) 5_566 2_554
Cu1 Cu5A Cu2 113.82(4) 5_556 2_554
Cu2 Cu5A Cu2 101.64(7) 6_556 2_554
Th1 Cu5A Cu2 46.75(5) . 2_554
P3 Cu5A Cu2 64.86(5) 6_556 2_554
Cu2 Cu5A Cu2 91.28(10) . 2_554
Cu5A Cu5A Cu2 115.53(2) 1_565 2_554
Cu5A Cu5A Cu2 64.47(2) 1_545 2_554
Cu5B Cu5A Cu2 67.8(4) 1_545 2_554
Cu5B Cu5A Cu2 118.8(4) 1_565 2_554
Th1 Cu5A Cu2 143.47(8) 6_556 2_554
Cu1 Cu5A Cu2 148.69(6) . 2_554
P1 Cu5A Cu2 127.67(15) . 2_564
P3 Cu5A Cu2 75.07(10) 2_554 2_564
P3 Cu5A Cu2 24.60(5) 2_564 2_564
Cu4 Cu5A Cu2 33.30(5) 6_556 2_564
Cu3 Cu5A Cu2 73.45(9) 2_564 2_564
Cu3 Cu5A Cu2 109.47(15) 2_554 2_564
Cu4 Cu5A Cu2 89.80(8) 2_554 2_564
Cu4 Cu5A Cu2 54.79(6) 2_564 2_564
P2 Cu5A Cu2 134.51(9) 5_556 2_564
P2 Cu5A Cu2 98.52(5) 5_566 2_564
Cu1 Cu5A Cu2 113.82(4) 5_566 2_564
Cu1 Cu5A Cu2 163.05(12) 5_556 2_564
Cu2 Cu5A Cu2 101.64(7) 6_556 2_564
Th1 Cu5A Cu2 46.75(5) . 2_564
P3 Cu5A Cu2 64.86(5) 6_556 2_564
Cu2 Cu5A Cu2 91.28(10) . 2_564
Cu5A Cu5A Cu2 64.47(2) 1_565 2_564
Cu5A Cu5A Cu2 115.53(2) 1_545 2_564
Cu5B Cu5A Cu2 118.8(4) 1_545 2_564
Cu5B Cu5A Cu2 67.8(4) 1_565 2_564
Th1 Cu5A Cu2 143.47(8) 6_556 2_564
Cu1 Cu5A Cu2 148.69(6) . 2_564
Cu2 Cu5A Cu2 51.07(5) 2_554 2_564
P1 Cu5A P1 58.66(3) . 1_565
P3 Cu5A P1 146.51(17) 2_554 1_565
P3 Cu5A P1 62.79(4) 2_564 1_565
Cu4 Cu5A P1 118.07(7) 6_556 1_565
Cu3 Cu5A P1 27.33(4) 2_564 1_565
Cu3 Cu5A P1 109.65(9) 2_554 1_565
Cu4 Cu5A P1 159.89(12) 2_554 1_565
Cu4 Cu5A P1 78.67(2) 2_564 1_565
P2 Cu5A P1 127.87(13) 5_556 1_565
P2 Cu5A P1 61.21(4) 5_566 1_565
Cu1 Cu5A P1 29.75(3) 5_566 1_565
Cu1 Cu5A P1 103.13(8) 5_556 1_565
Cu2 Cu5A P1 107.11(9) 6_556 1_565
Th1 Cu5A P1 91.06(8) . 1_565
P3 Cu5A P1 120.23(4) 6_556 1_565
Cu2 Cu5A P1 66.96(4) . 1_565
Cu5A Cu5A P1 31.34(3) 1_565 1_565
Cu5A Cu5A P1 148.66(3) 1_545 1_565
Cu5B Cu5A P1 148.1(2) 1_545 1_565
Cu5B Cu5A P1 31.23(14) 1_565 1_565
Th1 Cu5A P1 81.98(6) 6_556 1_565
Cu1 Cu5A P1 62.83(4) . 1_565
Cu2 Cu5A P1 133.31(11) 2_554 1_565
Cu2 Cu5A P1 87.12(5) 2_564 1_565
P1 Cu5A P1 58.66(3) . 1_545
P3 Cu5A P1 62.79(4) 2_554 1_545
P3 Cu5A P1 146.51(17) 2_564 1_545
Cu4 Cu5A P1 118.07(7) 6_556 1_545
Cu3 Cu5A P1 109.65(9) 2_564 1_545
Cu3 Cu5A P1 27.33(4) 2_554 1_545
Cu4 Cu5A P1 78.67(2) 2_554 1_545
Cu4 Cu5A P1 159.89(12) 2_564 1_545
P2 Cu5A P1 61.21(4) 5_556 1_545
P2 Cu5A P1 127.87(13) 5_566 1_545
Cu1 Cu5A P1 103.13(8) 5_566 1_545
Cu1 Cu5A P1 29.75(3) 5_556 1_545
Cu2 Cu5A P1 107.11(9) 6_556 1_545
Th1 Cu5A P1 91.06(8) . 1_545
P3 Cu5A P1 120.23(4) 6_556 1_545
Cu2 Cu5A P1 66.96(4) . 1_545
Cu5A Cu5A P1 148.66(3) 1_565 1_545
Cu5A Cu5A P1 31.34(3) 1_545 1_545
Cu5B Cu5A P1 31.23(14) 1_545 1_545
Cu5B Cu5A P1 148.1(2) 1_565 1_545
Th1 Cu5A P1 81.98(6) 6_556 1_545
Cu1 Cu5A P1 62.83(4) . 1_545
Cu2 Cu5A P1 87.12(5) 2_554 1_545
Cu2 Cu5A P1 133.31(11) 2_564 1_545
P1 Cu5A P1 117.32(7) 1_565 1_545
P1 Cu5A P2 63.29(10) . 2_564
P3 Cu5A P2 93.13(14) 2_554 2_564
P3 Cu5A P2 54.08(9) 2_564 2_564
Cu4 Cu5A P2 94.10(13) 6_556 2_564
Cu3 Cu5A P2 26.10(6) 2_564 2_564
Cu3 Cu5A P2 73.16(10) 2_554 2_564
Cu4 Cu5A P2 140.90(15) 2_554 2_564
Cu4 Cu5A P2 102.24(8) 2_564 2_564
P2 Cu5A P2 157.53(8) 5_556 2_564
P2 Cu5A P2 112.33(3) 5_566 2_564
Cu1 Cu5A P2 79.07(6) 5_566 2_564
Cu1 Cu5A P2 110.76(9) 5_556 2_564
Cu2 Cu5A P2 154.49(2) 6_556 2_564
Th1 Cu5A P2 39.68(5) . 2_564
P3 Cu5A P2 129.23(10) 6_556 2_564
Cu2 Cu5A P2 31.12(4) . 2_564
Cu5A Cu5A P2 64.90(3) 1_565 2_564
Cu5A Cu5A P2 115.10(3) 1_545 2_564
Cu5B Cu5A P2 118.5(4) 1_545 2_564
Cu5B Cu5A P2 68.3(4) 1_565 2_564
Th1 Cu5A P2 129.55(7) 6_556 2_564
Cu1 Cu5A P2 88.95(6) . 2_564
Cu2 Cu5A P2 86.31(9) 2_554 2_564
Cu2 Cu5A P2 64.53(6) 2_564 2_564
P1 Cu5A P2 53.41(4) 1_565 2_564
P1 Cu5A P2 97.38(7) 1_545 2_564
P1 Cu5A P2 63.29(10) . 2_554
P3 Cu5A P2 54.08(9) 2_554 2_554
P3 Cu5A P2 93.13(14) 2_564 2_554
Cu4 Cu5A P2 94.10(13) 6_556 2_554
Cu3 Cu5A P2 73.16(10) 2_564 2_554
Cu3 Cu5A P2 26.10(6) 2_554 2_554
Cu4 Cu5A P2 102.24(8) 2_554 2_554
Cu4 Cu5A P2 140.90(15) 2_564 2_554
P2 Cu5A P2 112.33(3) 5_556 2_554
P2 Cu5A P2 157.53(8) 5_566 2_554
Cu1 Cu5A P2 110.76(9) 5_566 2_554
Cu1 Cu5A P2 79.07(6) 5_556 2_554
Cu2 Cu5A P2 154.49(2) 6_556 2_554
Th1 Cu5A P2 39.68(5) . 2_554
P3 Cu5A P2 129.23(10) 6_556 2_554
Cu2 Cu5A P2 31.12(4) . 2_554
Cu5A Cu5A P2 115.10(3) 1_565 2_554
Cu5A Cu5A P2 64.90(3) 1_545 2_554
Cu5B Cu5A P2 68.3(4) 1_545 2_554
Cu5B Cu5A P2 118.5(4) 1_565 2_554
Th1 Cu5A P2 129.55(7) 6_556 2_554
Cu1 Cu5A P2 88.95(6) . 2_554
Cu2 Cu5A P2 64.53(6) 2_554 2_554
Cu2 Cu5A P2 86.31(9) 2_564 2_554
P1 Cu5A P2 97.38(7) 1_565 2_554
P1 Cu5A P2 53.41(4) 1_545 2_554
P2 Cu5A P2 50.20(5) 2_564 2_554
P1 Cu5A Cu4 120.57(6) . 6_546
P3 Cu5A Cu4 19.95(5) 2_554 6_546
P3 Cu5A Cu4 108.07(12) 2_564 6_546
Cu4 Cu5A Cu4 55.79(4) 6_556 6_546
Cu3 Cu5A Cu4 138.98(17) 2_564 6_546
Cu3 Cu5A Cu4 64.45(4) 2_554 6_546
Cu4 Cu5A Cu4 30.68(4) 2_554 6_546
Cu4 Cu5A Cu4 103.85(7) 2_564 6_546
P2 Cu5A Cu4 65.56(3) 5_556 6_546
P2 Cu5A Cu4 130.31(11) 5_566 6_546
Cu1 Cu5A Cu4 162.41(12) 5_566 6_546
Cu1 Cu5A Cu4 83.841(13) 5_556 6_546
Cu2 Cu5A Cu4 84.83(5) 6_556 6_546
Th1 Cu5A Cu4 75.08(7) . 6_546
P3 Cu5A Cu4 64.40(4) 6_556 6_546
Cu2 Cu5A Cu4 102.99(8) . 6_546
Cu5A Cu5A Cu4 145.79(4) 1_565 6_546
Cu5A Cu5A Cu4 34.21(4) 1_545 6_546
Cu5B Cu5A Cu4 36.4(3) 1_545 6_546
Cu5B Cu5A Cu4 147.7(3) 1_565 6_546
Th1 Cu5A Cu4 111.55(7) 6_556 6_546
Cu1 Cu5A Cu4 124.14(4) . 6_546
Cu2 Cu5A Cu4 34.27(2) 2_554 6_546
Cu2 Cu5A Cu4 83.49(7) 2_564 6_546
P1 Cu5A Cu4 166.13(13) 1_565 6_546
P1 Cu5A Cu4 63.780(19) 1_545 6_546
P2 Cu5A Cu4 113.02(10) 2_564 6_546
P2 Cu5A Cu4 71.90(5) 2_554 6_546
P1 Cu5A Cu4 120.57(6) . 6_566
P3 Cu5A Cu4 108.07(12) 2_554 6_566
P3 Cu5A Cu4 19.95(5) 2_564 6_566
Cu4 Cu5A Cu4 55.79(4) 6_556 6_566
Cu3 Cu5A Cu4 64.45(4) 2_564 6_566
Cu3 Cu5A Cu4 138.98(17) 2_554 6_566
Cu4 Cu5A Cu4 103.85(7) 2_554 6_566
Cu4 Cu5A Cu4 30.68(4) 2_564 6_566
P2 Cu5A Cu4 130.31(11) 5_556 6_566
P2 Cu5A Cu4 65.56(3) 5_566 6_566
Cu1 Cu5A Cu4 83.841(13) 5_566 6_566
Cu1 Cu5A Cu4 162.41(12) 5_556 6_566
Cu2 Cu5A Cu4 84.83(5) 6_556 6_566
Th1 Cu5A Cu4 75.08(7) . 6_566
P3 Cu5A Cu4 64.40(4) 6_556 6_566
Cu2 Cu5A Cu4 102.99(8) . 6_566
Cu5A Cu5A Cu4 34.21(4) 1_565 6_566
Cu5A Cu5A Cu4 145.79(4) 1_545 6_566
Cu5B Cu5A Cu4 147.7(3) 1_545 6_566
Cu5B Cu5A Cu4 36.4(3) 1_565 6_566
Th1 Cu5A Cu4 111.55(7) 6_556 6_566
Cu1 Cu5A Cu4 124.14(4) . 6_566
Cu2 Cu5A Cu4 83.49(7) 2_554 6_566
Cu2 Cu5A Cu4 34.27(2) 2_564 6_566
P1 Cu5A Cu4 63.780(19) 1_565 6_566
P1 Cu5A Cu4 166.13(13) 1_545 6_566
P2 Cu5A Cu4 71.90(5) 2_564 6_566
P2 Cu5A Cu4 113.02(10) 2_554 6_566
Cu4 Cu5A Cu4 111.58(7) 6_546 6_566
P1 Cu5A Cu5A 155.90(7) . 5
P3 Cu5A Cu5A 46.86(6) 2_554 5
P3 Cu5A Cu5A 85.14(11) 2_564 5
Cu4 Cu5A Cu5A 29.81(4) 6_556 5
Cu3 Cu5A Cu5A 136.39(18) 2_564 5
Cu3 Cu5A Cu5A 98.97(8) 2_554 5
Cu4 Cu5A Cu5A 26.69(3) 2_554 5
Cu4 Cu5A Cu5A 68.49(7) 2_564 5
P2 Cu5A Cu5A 72.79(8) 5_556 5
P2 Cu5A Cu5A 102.26(13) 5_566 5
Cu1 Cu5A Cu5A 149.50(17) 5_566 5
Cu1 Cu5A Cu5A 110.70(7) 5_556 5
Cu2 Cu5A Cu5A 64.20(9) 6_556 5
Th1 Cu5A Cu5A 82.49(13) . 5
P3 Cu5A Cu5A 30.80(5) 6_556 5
Cu2 Cu5A Cu5A 128.46(17) . 5
Cu5A Cu5A Cu5A 113.34(3) 1_565 5
Cu5A Cu5A Cu5A 66.66(3) 1_545 5
Cu5B Cu5A Cu5A 67.51(19) 1_545 5
Cu5B Cu5A Cu5A 114.1(2) 1_565 5
Th1 Cu5A Cu5A 109.86(15) 6_556 5
Cu1 Cu5A Cu5A 148.06(14) . 5
Cu2 Cu5A Cu5A 37.44(8) 2_554 5
Cu2 Cu5A Cu5A 63.10(8) 2_564 5
P1 Cu5A Cu5A 144.41(7) 1_565 5
P1 Cu5A Cu5A 97.839(17) 1_545 5
P2 Cu5A Cu5A 120.07(16) 2_564 5
P2 Cu5A Cu5A 99.49(12) 2_554 5
Cu4 Cu5A Cu5A 35.36(2) 6_546 5
Cu4 Cu5A Cu5A 80.78(7) 6_566 5
P1 Cu5A Cu5A 155.90(7) . 5_565
P3 Cu5A Cu5A 85.14(11) 2_554 5_565
P3 Cu5A Cu5A 46.86(6) 2_564 5_565
Cu4 Cu5A Cu5A 29.81(4) 6_556 5_565
Cu3 Cu5A Cu5A 98.97(8) 2_564 5_565
Cu3 Cu5A Cu5A 136.39(18) 2_554 5_565
Cu4 Cu5A Cu5A 68.49(7) 2_554 5_565
Cu4 Cu5A Cu5A 26.69(3) 2_564 5_565
P2 Cu5A Cu5A 102.26(13) 5_556 5_565
P2 Cu5A Cu5A 72.79(8) 5_566 5_565
Cu1 Cu5A Cu5A 110.70(7) 5_566 5_565
Cu1 Cu5A Cu5A 149.50(17) 5_556 5_565
Cu2 Cu5A Cu5A 64.20(9) 6_556 5_565
Th1 Cu5A Cu5A 82.49(13) . 5_565
P3 Cu5A Cu5A 30.80(5) 6_556 5_565
Cu2 Cu5A Cu5A 128.46(17) . 5_565
Cu5A Cu5A Cu5A 66.66(3) 1_565 5_565
Cu5A Cu5A Cu5A 113.34(3) 1_545 5_565
Cu5B Cu5A Cu5A 114.1(2) 1_545 5_565
Cu5B Cu5A Cu5A 67.51(19) 1_565 5_565
Th1 Cu5A Cu5A 109.86(15) 6_556 5_565
Cu1 Cu5A Cu5A 148.06(14) . 5_565
Cu2 Cu5A Cu5A 63.10(8) 2_554 5_565
Cu2 Cu5A Cu5A 37.44(8) 2_564 5_565
P1 Cu5A Cu5A 97.839(17) 1_565 5_565
P1 Cu5A Cu5A 144.41(7) 1_545 5_565
P2 Cu5A Cu5A 99.49(12) 2_564 5_565
P2 Cu5A Cu5A 120.07(16) 2_554 5_565
Cu4 Cu5A Cu5A 80.78(7) 6_546 5_565
Cu4 Cu5A Cu5A 35.36(2) 6_566 5_565
Cu5A Cu5A Cu5A 46.68(6) 5 5_565
P1 Cu5A Cu2 110.42(9) . 6_546
P3 Cu5A Cu2 63.64(6) 2_554 6_546
P3 Cu5A Cu2 138.25(10) 2_564 6_546
Cu4 Cu5A Cu2 84.33(6) 6_556 6_546
Cu3 Cu5A Cu2 168.35(10) 2_564 6_546
Cu3 Cu5A Cu2 81.41(4) 2_554 6_546
Cu4 Cu5A Cu2 27.84(4) 2_554 6_546
Cu4 Cu5A Cu2 99.34(9) 2_564 6_546
P2 Cu5A Cu2 20.93(3) 5_556 6_546
P2 Cu5A Cu2 94.34(11) 5_566 6_546
Cu1 Cu5A Cu2 119.16(14) 5_566 6_546
Cu1 Cu5A Cu2 58.51(5) 5_556 6_546
Cu2 Cu5A Cu2 51.93(4) 6_556 6_546
Th1 Cu5A Cu2 119.72(6) . 6_546
P3 Cu5A Cu2 62.27(5) 6_556 6_546
Cu2 Cu5A Cu2 126.69(3) . 6_546
Cu5A Cu5A Cu2 141.93(4) 1_565 6_546
Cu5A Cu5A Cu2 38.07(4) 1_545 6_546
Cu5B Cu5A Cu2 35.0(4) 1_545 6_546
Cu5B Cu5A Cu2 138.7(4) 1_565 6_546
Th1 Cu5A Cu2 66.65(6) 6_556 6_546
Cu1 Cu5A Cu2 93.60(7) . 6_546
Cu2 Cu5A Cu2 77.59(3) 2_554 6_546
Cu2 Cu5A Cu2 117.63(6) 2_564 6_546
P1 Cu5A Cu2 148.63(12) 1_565 6_546
P1 Cu5A Cu2 60.60(3) 1_545 6_546
P2 Cu5A Cu2 152.94(8) 2_564 6_546
P2 Cu5A Cu2 102.86(2) 2_554 6_546
Cu4 Cu5A Cu2 45.044(18) 6_546 6_546
Cu4 Cu5A Cu2 126.55(7) 6_566 6_546
Cu5A Cu5A Cu2 54.53(6) 5 6_546
Cu5A Cu5A Cu2 92.49(8) 5_565 6_546
P1 Cu5A Cu2 110.42(9) . 6_566
P3 Cu5A Cu2 138.25(10) 2_554 6_566
P3 Cu5A Cu2 63.64(6) 2_564 6_566
Cu4 Cu5A Cu2 84.33(6) 6_556 6_566
Cu3 Cu5A Cu2 81.41(4) 2_564 6_566
Cu3 Cu5A Cu2 168.35(10) 2_554 6_566
Cu4 Cu5A Cu2 99.34(9) 2_554 6_566
Cu4 Cu5A Cu2 27.84(4) 2_564 6_566
P2 Cu5A Cu2 94.34(11) 5_556 6_566
P2 Cu5A Cu2 20.93(3) 5_566 6_566
Cu1 Cu5A Cu2 58.51(5) 5_566 6_566
Cu1 Cu5A Cu2 119.16(14) 5_556 6_566
Cu2 Cu5A Cu2 51.93(4) 6_556 6_566
Th1 Cu5A Cu2 119.72(6) . 6_566
P3 Cu5A Cu2 62.27(5) 6_556 6_566
Cu2 Cu5A Cu2 126.69(3) . 6_566
Cu5A Cu5A Cu2 38.07(4) 1_565 6_566
Cu5A Cu5A Cu2 141.93(4) 1_545 6_566
Cu5B Cu5A Cu2 138.7(4) 1_545 6_566
Cu5B Cu5A Cu2 35.0(4) 1_565 6_566
Th1 Cu5A Cu2 66.65(6) 6_556 6_566
Cu1 Cu5A Cu2 93.60(7) . 6_566
Cu2 Cu5A Cu2 117.63(6) 2_554 6_566
Cu2 Cu5A Cu2 77.59(3) 2_564 6_566
P1 Cu5A Cu2 60.60(3) 1_565 6_566
P1 Cu5A Cu2 148.63(12) 1_545 6_566
P2 Cu5A Cu2 102.86(2) 2_564 6_566
P2 Cu5A Cu2 152.94(8) 2_554 6_566
Cu4 Cu5A Cu2 126.55(7) 6_546 6_566
Cu4 Cu5A Cu2 45.044(18) 6_566 6_566
Cu5A Cu5A Cu2 92.49(8) 5 6_566
Cu5A Cu5A Cu2 54.53(6) 5_565 6_566
Cu2 Cu5A Cu2 103.85(9) 6_546 6_566
P1 Cu5A P2 145.85(19) . 1_554
P3 Cu5A P2 52.71(7) 2_554 1_554
P3 Cu5A P2 52.71(7) 2_564 1_554
Cu4 Cu5A P2 8.92(6) 6_556 1_554
Cu3 Cu5A P2 100.69(12) 2_564 1_554
Cu3 Cu5A P2 100.69(12) 2_554 1_554
Cu4 Cu5A P2 62.15(7) 2_554 1_554
Cu4 Cu5A P2 62.15(7) 2_564 1_554
P2 Cu5A P2 108.63(7) 5_556 1_554
P2 Cu5A P2 108.63(7) 5_566 1_554
Cu1 Cu5A P2 140.06(4) 5_566 1_554
Cu1 Cu5A P2 140.06(4) 5_556 1_554
Cu2 Cu5A P2 89.70(7) 6_556 1_554
Th1 Cu5A P2 53.82(6) . 1_554
P3 Cu5A P2 48.69(5) 6_556 1_554
Cu2 Cu5A P2 104.64(12) . 1_554
Cu5A Cu5A P2 90.0 1_565 1_554
Cu5A Cu5A P2 90.0 1_545 1_554
Cu5B Cu5A P2 92.6(3) 1_545 1_554
Cu5B Cu5A P2 92.6(3) 1_565 1_554
Th1 Cu5A P2 139.71(9) 6_556 1_554
Cu1 Cu5A P2 174.45(12) . 1_554
Cu2 Cu5A P2 28.55(3) 2_554 1_554
Cu2 Cu5A P2 28.55(3) 2_564 1_554
P1 Cu5A P2 115.50(6) 1_565 1_554
P1 Cu5A P2 115.50(6) 1_545 1_554
P2 Cu5A P2 86.03(9) 2_564 1_554
P2 Cu5A P2 86.03(9) 2_554 1_554
Cu4 Cu5A P2 56.26(4) 6_546 1_554
Cu4 Cu5A P2 56.26(4) 6_566 1_554
Cu5A Cu5A P2 35.84(7) 5 1_554
Cu5A Cu5A P2 35.84(7) 5_565 1_554
Cu2 Cu5A P2 89.82(4) 6_546 1_554
Cu2 Cu5A P2 89.82(4) 6_566 1_554
P1 Cu5A Cu5B 155.12(16) . 5
P3 Cu5A Cu5B 44.9(2) 2_554 5
P3 Cu5A Cu5B 83.3(3) 2_564 5
Cu4 Cu5A Cu5B 27.6(2) 6_556 5
Cu3 Cu5A Cu5B 133.8(4) 2_564 5
Cu3 Cu5A Cu5B 97.5(2) 2_554 5
Cu4 Cu5A Cu5B 29.1(3) 2_554 5
Cu4 Cu5A Cu5B 69.30(10) 2_564 5
P2 Cu5A Cu5B 75.5(3) 5_556 5
P2 Cu5A Cu5B 104.6(3) 5_566 5
Cu1 Cu5A Cu5B 151.7(3) 5_566 5
Cu1 Cu5A Cu5B 112.2(2) 5_556 5
Cu2 Cu5A Cu5B 67.3(4) 6_556 5
Th1 Cu5A Cu5B 79.3(4) . 5
P3 Cu5A Cu5B 32.9(3) 6_556 5
Cu2 Cu5A Cu5B 125.5(4) . 5
Cu5A Cu5A Cu5B 113.06(5) 1_565 5
Cu5A Cu5A Cu5B 66.94(5) 1_545 5
Cu5B Cu5A Cu5B 68.0(3) 1_545 5
Cu5B Cu5A Cu5B 114.03(17) 1_565 5
Th1 Cu5A Cu5B 113.0(4) 6_556 5
Cu1 Cu5A Cu5B 150.5(3) . 5
Cu2 Cu5A Cu5B 34.4(4) 2_554 5
Cu2 Cu5A Cu5B 60.8(3) 2_564 5
P1 Cu5A Cu5B 143.74(12) 1_565 5
P1 Cu5A Cu5B 97.89(6) 1_545 5
P2 Cu5A Cu5B 116.9(4) 2_564 5
P2 Cu5A Cu5B 96.9(4) 2_554 5
Cu4 Cu5A Cu5B 34.70(9) 6_546 5
Cu4 Cu5A Cu5B 79.96(12) 6_566 5
Cu5A Cu5A Cu5B 3.2(4) 5 5
Cu5A Cu5A Cu5B 46.52(3) 5_565 5
Cu2 Cu5A Cu5B 56.9(3) 6_546 5
Cu2 Cu5A Cu5B 94.02(19) 6_566 5
P2 Cu5A Cu5B 33.2(3) 1_554 5
P1 Cu5A Cu5B 155.12(16) . 5_565
P3 Cu5A Cu5B 83.3(3) 2_554 5_565
P3 Cu5A Cu5B 44.9(2) 2_564 5_565
Cu4 Cu5A Cu5B 27.6(2) 6_556 5_565
Cu3 Cu5A Cu5B 97.5(2) 2_564 5_565
Cu3 Cu5A Cu5B 133.8(4) 2_554 5_565
Cu4 Cu5A Cu5B 69.30(10) 2_554 5_565
Cu4 Cu5A Cu5B 29.1(3) 2_564 5_565
P2 Cu5A Cu5B 104.6(3) 5_556 5_565
P2 Cu5A Cu5B 75.5(3) 5_566 5_565
Cu1 Cu5A Cu5B 112.2(2) 5_566 5_565
Cu1 Cu5A Cu5B 151.7(3) 5_556 5_565
Cu2 Cu5A Cu5B 67.3(4) 6_556 5_565
Th1 Cu5A Cu5B 79.3(4) . 5_565
P3 Cu5A Cu5B 32.9(3) 6_556 5_565
Cu2 Cu5A Cu5B 125.5(4) . 5_565
Cu5A Cu5A Cu5B 66.94(5) 1_565 5_565
Cu5A Cu5A Cu5B 113.06(5) 1_545 5_565
Cu5B Cu5A Cu5B 114.03(18) 1_545 5_565
Cu5B Cu5A Cu5B 68.0(3) 1_565 5_565
Th1 Cu5A Cu5B 113.0(4) 6_556 5_565
Cu1 Cu5A Cu5B 150.5(3) . 5_565
Cu2 Cu5A Cu5B 60.8(3) 2_554 5_565
Cu2 Cu5A Cu5B 34.4(4) 2_564 5_565
P1 Cu5A Cu5B 97.89(6) 1_565 5_565
P1 Cu5A Cu5B 143.74(12) 1_545 5_565
P2 Cu5A Cu5B 96.9(4) 2_564 5_565
P2 Cu5A Cu5B 116.9(4) 2_554 5_565
Cu4 Cu5A Cu5B 79.96(12) 6_546 5_565
Cu4 Cu5A Cu5B 34.70(9) 6_566 5_565
Cu5A Cu5A Cu5B 46.52(3) 5 5_565
Cu5A Cu5A Cu5B 3.2(4) 5_565 5_565
Cu2 Cu5A Cu5B 94.02(19) 6_546 5_565
Cu2 Cu5A Cu5B 56.9(3) 6_566 5_565
P2 Cu5A Cu5B 33.2(3) 1_554 5_565
Cu5B Cu5A Cu5B 46.11(11) 5 5_565
P1 Cu5A Th1 23.62(2) . 2_565
P3 Cu5A Th1 125.19(13) 2_554 2_565
P3 Cu5A Th1 89.25(7) 2_564 2_565
Cu4 Cu5A Th1 142.14(13) 6_556 2_565
Cu3 Cu5A Th1 36.15(4) 2_564 2_565
Cu3 Cu5A Th1 75.62(7) 2_554 2_565
Cu4 Cu5A Th1 159.00(8) 2_554 2_565
Cu4 Cu5A Th1 114.54(3) 2_564 2_565
P2 Cu5A Th1 115.87(10) 5_556 2_565
P2 Cu5A Th1 86.35(6) 5_566 2_565
Cu1 Cu5A Th1 39.42(4) 5_566 2_565
Cu1 Cu5A Th1 74.19(6) 5_556 2_565
Cu2 Cu5A Th1 126.46(12) 6_556 2_565
Th1 Cu5A Th1 86.58(8) . 2_565
P3 Cu5A Th1 155.51(5) 6_556 2_565
Cu2 Cu5A Th1 41.41(3) . 2_565
Cu5A Cu5A Th1 67.054(13) 1_565 2_565
Cu5A Cu5A Th1 112.946(13) 1_545 2_565
Cu5B Cu5A Th1 112.94(19) 1_545 2_565
Cu5B Cu5A Th1 67.18(16) 1_565 2_565
Th1 Cu5A Th1 80.97(6) 6_556 2_565
Cu1 Cu5A Th1 40.51(3) . 2_565
Cu2 Cu5A Th1 131.82(11) 2_554 2_565
Cu2 Cu5A Th1 109.31(7) 2_564 2_565
P1 Cu5A Th1 35.95(2) 1_565 2_565
P1 Cu5A Th1 81.74(5) 1_545 2_565
P2 Cu5A Th1 49.48(4) 2_564 2_565
P2 Cu5A Th1 71.40(5) 2_554 2_565
Cu4 Cu5A Th1 140.02(7) 6_546 2_565
Cu4 Cu5A Th1 96.98(3) 6_566 2_565
Cu5A Cu5A Th1 169.06(19) 5 2_565
Cu5A Cu5A Th1 132.29(4) 5_565 2_565
Cu2 Cu5A Th1 132.33(7) 6_546 2_565
Cu2 Cu5A Th1 93.41(4) 6_566 2_565
P2 Cu5A Th1 134.95(10) 1_554 2_565
Cu5B Cu5A Th1 165.9(5) 5 2_565
Cu5B Cu5A Th1 131.63(12) 5_565 2_565
P1 Cu5A Th1 23.62(2) . 2
P3 Cu5A Th1 89.25(7) 2_554 2
P3 Cu5A Th1 125.19(13) 2_564 2
Cu4 Cu5A Th1 142.14(13) 6_556 2
Cu3 Cu5A Th1 75.62(7) 2_564 2
Cu3 Cu5A Th1 36.15(4) 2_554 2
Cu4 Cu5A Th1 114.54(3) 2_554 2
Cu4 Cu5A Th1 159.00(8) 2_564 2
P2 Cu5A Th1 86.35(6) 5_556 2
P2 Cu5A Th1 115.87(10) 5_566 2
Cu1 Cu5A Th1 74.19(6) 5_566 2
Cu1 Cu5A Th1 39.42(4) 5_556 2
Cu2 Cu5A Th1 126.46(12) 6_556 2
Th1 Cu5A Th1 86.58(8) . 2
P3 Cu5A Th1 155.51(5) 6_556 2
Cu2 Cu5A Th1 41.41(3) . 2
Cu5A Cu5A Th1 112.946(13) 1_565 2
Cu5A Cu5A Th1 67.054(13) 1_545 2
Cu5B Cu5A Th1 67.18(16) 1_545 2
Cu5B Cu5A Th1 112.94(19) 1_565 2
Th1 Cu5A Th1 80.97(6) 6_556 2
Cu1 Cu5A Th1 40.51(3) . 2
Cu2 Cu5A Th1 109.31(7) 2_554 2
Cu2 Cu5A Th1 131.82(11) 2_564 2
P1 Cu5A Th1 81.74(5) 1_565 2
P1 Cu5A Th1 35.95(2) 1_545 2
P2 Cu5A Th1 71.40(5) 2_564 2
P2 Cu5A Th1 49.48(4) 2_554 2
Cu4 Cu5A Th1 96.98(3) 6_546 2
Cu4 Cu5A Th1 140.02(7) 6_566 2
Cu5A Cu5A Th1 132.29(4) 5 2
Cu5A Cu5A Th1 169.06(19) 5_565 2
Cu2 Cu5A Th1 93.41(4) 6_546 2
Cu2 Cu5A Th1 132.33(7) 6_566 2
P2 Cu5A Th1 134.95(10) 1_554 2
Cu5B Cu5A Th1 131.63(12) 5 2
Cu5B Cu5A Th1 165.9(5) 5_565 2
Th1 Cu5A Th1 45.89(3) 2_565 2
P1 Cu5A Cu3 107.45(14) . 5_556
P3 Cu5A Cu3 94.63(8) 2_554 5_556
P3 Cu5A Cu3 131.02(11) 2_564 5_556
Cu4 Cu5A Cu3 95.83(10) 6_556 5_556
Cu3 Cu5A Cu3 145.84(14) 2_564 5_556
Cu3 Cu5A Cu3 106.36(8) 2_554 5_556
Cu4 Cu5A Cu3 48.72(8) 2_554 5_556
Cu4 Cu5A Cu3 81.16(10) 2_564 5_556
P2 Cu5A Cu3 19.23(4) 5_556 5_556
P2 Cu5A Cu3 62.88(9) 5_566 5_556
Cu1 Cu5A Cu3 91.66(12) 5_566 5_556
Cu1 Cu5A Cu3 62.66(8) 5_556 5_556
Cu2 Cu5A Cu3 27.01(4) 6_556 5_556
Th1 Cu5A Cu3 149.72(6) . 5_556
P3 Cu5A Cu3 59.35(7) 6_556 5_556
Cu2 Cu5A Cu3 143.31(7) . 5_556
Cu5A Cu5A Cu3 112.38(2) 1_565 5_556
Cu5A Cu5A Cu3 67.62(2) 1_545 5_556
Cu5B Cu5A Cu3 63.8(4) 1_545 5_556
Cu5B Cu5A Cu3 108.6(4) 1_565 5_556
Th1 Cu5A Cu3 40.34(5) 6_556 5_556
Cu1 Cu5A Cu3 81.06(8) . 5_556
Cu2 Cu5A Cu3 103.50(5) 2_554 5_556
Cu2 Cu5A Cu3 124.17(7) 2_564 5_556
P1 Cu5A Cu3 118.76(10) 1_565 5_556
P1 Cu5A Cu3 80.26(5) 1_545 5_556
P2 Cu5A Cu3 169.71(9) 2_564 5_556
P2 Cu5A Cu3 131.37(2) 2_554 5_556
Cu4 Cu5A Cu3 75.07(4) 6_546 5_556
Cu4 Cu5A Cu3 111.84(7) 6_566 5_556
Cu5A Cu5A Cu3 70.21(10) 5 5_556
Cu5A Cu5A Cu3 87.89(11) 5_565 5_556
Cu2 Cu5A Cu3 31.88(3) 6_546 5_556
Cu2 Cu5A Cu3 75.54(7) 6_566 5_556
P2 Cu5A Cu3 104.06(6) 1_554 5_556
Cu5B Cu5A Cu3 73.3(4) 5 5_556
Cu5B Cu5A Cu3 90.7(4) 5_565 5_556
Th1 Cu5A Cu3 120.25(9) 2_565 5_556
Th1 Cu5A Cu3 101.94(7) 2 5_556
P1 Cu5B P3 105.8(7) . 2_554
P1 Cu5B P3 105.8(7) . 2_564
P3 Cu5B P3 90.3(9) 2_554 2_564
P1 Cu5B Cu4 142.9(14) . 6_556
P3 Cu5B Cu4 52.4(4) 2_554 6_556
P3 Cu5B Cu4 52.4(4) 2_564 6_556
P1 Cu5B P2 103.2(7) . 5_556
P3 Cu5B P2 84.22(10) 2_554 5_556
P3 Cu5B P2 150.9(4) 2_564 5_556
Cu4 Cu5B P2 103.5(3) 6_556 5_556
P1 Cu5B P2 103.2(7) . 5_566
P3 Cu5B P2 150.9(4) 2_554 5_566
P3 Cu5B P2 84.22(10) 2_564 5_566
Cu4 Cu5B P2 103.5(3) 6_556 5_566
P2 Cu5B P2 86.8(9) 5_556 5_566
P1 Cu5B Cu2 134.9(13) . 6_556
P3 Cu5B Cu2 105.6(2) 2_554 6_556
P3 Cu5B Cu2 105.6(2) 2_564 6_556
Cu4 Cu5B Cu2 82.2(3) 6_556 6_556
P2 Cu5B Cu2 49.5(5) 5_556 6_556
P2 Cu5B Cu2 49.5(5) 5_566 6_556
P1 Cu5B Cu3 56.1(3) . 2_564
P3 Cu5B Cu3 109.5(11) 2_554 2_564
P3 Cu5B Cu3 50.4(4) 2_564 2_564
Cu4 Cu5B Cu3 99.4(9) 6_556 2_564
P2 Cu5B Cu3 157.1(8) 5_556 2_564
P2 Cu5B Cu3 88.81(16) 5_566 2_564
Cu2 Cu5B Cu3 136.5(4) 6_556 2_564
P1 Cu5B Cu3 56.1(3) . 2_554
P3 Cu5B Cu3 50.4(4) 2_554 2_554
P3 Cu5B Cu3 109.5(11) 2_564 2_554
Cu4 Cu5B Cu3 99.4(9) 6_556 2_554
P2 Cu5B Cu3 88.81(16) 5_556 2_554
P2 Cu5B Cu3 157.1(8) 5_566 2_554
Cu2 Cu5B Cu3 136.5(4) 6_556 2_554
Cu3 Cu5B Cu3 86.5(6) 2_564 2_554
P1 Cu5B Cu4 137.70(14) . 2_554
P3 Cu5B Cu4 49.21(19) 2_554 2_554
P3 Cu5B Cu4 107.4(6) 2_564 2_554
Cu4 Cu5B Cu4 55.4(2) 6_556 2_554
P2 Cu5B Cu4 48.9(2) 5_556 2_554
P2 Cu5B Cu4 105.5(7) 5_566 2_554
Cu2 Cu5B Cu4 56.7(3) 6_556 2_554
Cu3 Cu5B Cu4 153.0(12) 2_564 2_554
Cu3 Cu5B Cu4 88.3(3) 2_554 2_554
P1 Cu5B Cu4 137.70(14) . 2_564
P3 Cu5B Cu4 107.4(6) 2_554 2_564
P3 Cu5B Cu4 49.21(19) 2_564 2_564
Cu4 Cu5B Cu4 55.4(2) 6_556 2_564
P2 Cu5B Cu4 105.5(7) 5_556 2_564
P2 Cu5B Cu4 48.9(2) 5_566 2_564
Cu2 Cu5B Cu4 56.7(3) 6_556 2_564
Cu3 Cu5B Cu4 88.3(3) 2_564 2_564
Cu3 Cu5B Cu4 153.0(12) 2_554 2_564
Cu4 Cu5B Cu4 84.4(2) 2_554 2_564
P1 Cu5B Cu1 54.1(3) . 5_566
P3 Cu5B Cu1 158.6(8) 2_554 5_566
P3 Cu5B Cu1 88.88(13) 2_564 5_566
Cu4 Cu5B Cu1 137.9(3) 6_556 5_566
P2 Cu5B Cu1 106.4(11) 5_556 5_566
P2 Cu5B Cu1 50.2(4) 5_566 5_566
Cu2 Cu5B Cu1 95.3(9) 6_556 5_566
Cu3 Cu5B Cu1 54.95(11) 2_564 5_566
Cu3 Cu5B Cu1 110.2(3) 2_554 5_566
Cu4 Cu5B Cu1 150.1(13) 2_554 5_566
Cu4 Cu5B Cu1 88.0(3) 2_564 5_566
P1 Cu5B Cu1 54.1(3) . 5_556
P3 Cu5B Cu1 88.88(13) 2_554 5_556
P3 Cu5B Cu1 158.6(8) 2_564 5_556
Cu4 Cu5B Cu1 137.9(3) 6_556 5_556
P2 Cu5B Cu1 50.2(4) 5_556 5_556
P2 Cu5B Cu1 106.4(11) 5_566 5_556
Cu2 Cu5B Cu1 95.3(9) 6_556 5_556
Cu3 Cu5B Cu1 110.2(3) 2_564 5_556
Cu3 Cu5B Cu1 54.95(11) 2_554 5_556
Cu4 Cu5B Cu1 88.0(3) 2_554 5_556
Cu4 Cu5B Cu1 150.1(13) 2_564 5_556
Cu1 Cu5B Cu1 84.2(6) 5_566 5_556
P1 Cu5B P3 176.7(14) . 6_556
P3 Cu5B P3 76.4(3) 2_554 6_556
P3 Cu5B P3 76.4(3) 2_564 6_556
Cu4 Cu5B P3 40.38(12) 6_556 6_556
P2 Cu5B P3 74.5(3) 5_556 6_556
P2 Cu5B P3 74.5(3) 5_566 6_556
Cu2 Cu5B P3 41.79(13) 6_556 6_556
Cu3 Cu5B P3 125.8(5) 2_564 6_556
Cu3 Cu5B P3 125.8(5) 2_554 6_556
Cu4 Cu5B P3 42.21(12) 2_554 6_556
Cu4 Cu5B P3 42.21(12) 2_564 6_556
Cu1 Cu5B P3 124.0(6) 5_566 6_556
Cu1 Cu5B P3 124.0(6) 5_556 6_556
P1 Cu5B Th1 85.4(8) . .
P3 Cu5B Th1 51.2(6) 2_554 .
P3 Cu5B Th1 51.2(6) 2_564 .
Cu4 Cu5B Th1 57.5(6) 6_556 .
P2 Cu5B Th1 134.9(5) 5_556 .
P2 Cu5B Th1 134.9(5) 5_566 .
Cu2 Cu5B Th1 139.7(6) 6_556 .
Cu3 Cu5B Th1 59.3(6) 2_564 .
Cu3 Cu5B Th1 59.3(6) 2_554 .
Cu4 Cu5B Th1 95.6(7) 2_554 .
Cu4 Cu5B Th1 95.6(7) 2_564 .
Cu1 Cu5B Th1 114.0(6) 5_566 .
Cu1 Cu5B Th1 114.0(6) 5_556 .
P3 Cu5B Th1 97.9(6) 6_556 .
P1 Cu5B Th1 80.5(8) . 6_556
P3 Cu5B Th1 133.4(6) 2_554 6_556
P3 Cu5B Th1 133.4(6) 2_564 6_556
Cu4 Cu5B Th1 136.6(7) 6_556 6_556
P2 Cu5B Th1 50.0(5) 5_556 6_556
P2 Cu5B Th1 50.0(5) 5_566 6_556
Cu2 Cu5B Th1 54.4(6) 6_556 6_556
Cu3 Cu5B Th1 111.7(6) 2_564 6_556
Cu3 Cu5B Th1 111.7(6) 2_554 6_556
Cu4 Cu5B Th1 94.9(7) 2_554 6_556
Cu4 Cu5B Th1 94.9(7) 2_564 6_556
Cu1 Cu5B Th1 57.0(5) 5_566 6_556
Cu1 Cu5B Th1 57.0(5) 5_556 6_556
P3 Cu5B Th1 96.2(6) 6_556 6_556
Th1 Cu5B Th1 165.9(3) . 6_556
P1 Cu5B Cu5B 90.0 . 1_565
P3 Cu5B Cu5B 135.1(5) 2_554 1_565
P3 Cu5B Cu5B 44.9(5) 2_564 1_565
Cu4 Cu5B Cu5B 90.0 6_556 1_565
P2 Cu5B Cu5B 133.4(5) 5_556 1_565
P2 Cu5B Cu5B 46.6(5) 5_566 1_565
Cu2 Cu5B Cu5B 90.0 6_556 1_565
Cu3 Cu5B Cu5B 46.8(3) 2_564 1_565
Cu3 Cu5B Cu5B 133.2(3) 2_554 1_565
Cu4 Cu5B Cu5B 132.21(12) 2_554 1_565
Cu4 Cu5B Cu5B 47.79(12) 2_564 1_565
Cu1 Cu5B Cu5B 47.9(3) 5_566 1_565
Cu1 Cu5B Cu5B 132.1(3) 5_556 1_565
P3 Cu5B Cu5B 90.0 6_556 1_565
Th1 Cu5B Cu5B 90.000(1) . 1_565
Th1 Cu5B Cu5B 90.000(1) 6_556 1_565
P1 Cu5B Cu5B 90.0 . 1_545
P3 Cu5B Cu5B 44.9(5) 2_554 1_545
P3 Cu5B Cu5B 135.1(5) 2_564 1_545
Cu4 Cu5B Cu5B 90.000(1) 6_556 1_545
P2 Cu5B Cu5B 46.6(5) 5_556 1_545
P2 Cu5B Cu5B 133.4(5) 5_566 1_545
Cu2 Cu5B Cu5B 90.0 6_556 1_545
Cu3 Cu5B Cu5B 133.2(3) 2_564 1_545
Cu3 Cu5B Cu5B 46.8(3) 2_554 1_545
Cu4 Cu5B Cu5B 47.79(12) 2_554 1_545
Cu4 Cu5B Cu5B 132.21(12) 2_564 1_545
Cu1 Cu5B Cu5B 132.1(3) 5_566 1_545
Cu1 Cu5B Cu5B 47.9(3) 5_556 1_545
P3 Cu5B Cu5B 90.0 6_556 1_545
Th1 Cu5B Cu5B 90.0 . 1_545
Th1 Cu5B Cu5B 90.000(2) 6_556 1_545
Cu5B Cu5B Cu5B 180.0 1_565 1_545
P1 Cu5B Cu5A 89.86(18) . 1_565
P3 Cu5B Cu5A 131.3(9) 2_554 1_565
P3 Cu5B Cu5A 41.14(7) 2_564 1_565
Cu4 Cu5B Cu5A 87.6(3) 6_556 1_565
P2 Cu5B Cu5A 137.4(9) 5_556 1_565
P2 Cu5B Cu5A 50.57(7) 5_566 1_565
Cu2 Cu5B Cu5A 93.0(3) 6_556 1_565
Cu3 Cu5B Cu5A 44.07(6) 2_564 1_565
Cu3 Cu5B Cu5A 130.4(7) 2_554 1_565
Cu4 Cu5B Cu5A 132.4(3) 2_554 1_565
Cu4 Cu5B Cu5A 48.27(7) 2_564 1_565
Cu1 Cu5B Cu5A 50.40(6) 5_566 1_565
Cu1 Cu5B Cu5A 134.4(6) 5_556 1_565
P3 Cu5B Cu5A 90.38(17) 6_556 1_565
Th1 Cu5B Cu5A 85.9(5) . 1_565
Th1 Cu5B Cu5A 94.1(5) 6_556 1_565
Cu5B Cu5B Cu5A 4.1(5) 1_565 1_565
Cu5B Cu5B Cu5A 175.9(5) 1_545 1_565
P1 Cu5B Cu5A 89.86(18) . 1_545
P3 Cu5B Cu5A 41.14(7) 2_554 1_545
P3 Cu5B Cu5A 131.3(9) 2_564 1_545
Cu4 Cu5B Cu5A 87.6(3) 6_556 1_545
P2 Cu5B Cu5A 50.57(7) 5_556 1_545
P2 Cu5B Cu5A 137.4(9) 5_566 1_545
Cu2 Cu5B Cu5A 93.0(3) 6_556 1_545
Cu3 Cu5B Cu5A 130.4(7) 2_564 1_545
Cu3 Cu5B Cu5A 44.07(6) 2_554 1_545
Cu4 Cu5B Cu5A 48.27(7) 2_554 1_545
Cu4 Cu5B Cu5A 132.4(3) 2_564 1_545
Cu1 Cu5B Cu5A 134.4(6) 5_566 1_545
Cu1 Cu5B Cu5A 50.40(6) 5_556 1_545
P3 Cu5B Cu5A 90.38(17) 6_556 1_545
Th1 Cu5B Cu5A 85.9(5) . 1_545
Th1 Cu5B Cu5A 94.1(5) 6_556 1_545
Cu5B Cu5B Cu5A 175.9(5) 1_565 1_545
Cu5B Cu5B Cu5A 4.1(5) 1_545 1_545
Cu5A Cu5B Cu5A 171.7(9) 1_565 1_545
P1 Cu5B Cu2 37.6(5) . .
P3 Cu5B Cu2 79.6(6) 2_554 .
P3 Cu5B Cu2 79.6(6) 2_564 .
Cu4 Cu5B Cu2 105.3(10) 6_556 .
P2 Cu5B Cu2 127.00(19) 5_556 .
P2 Cu5B Cu2 127.00(19) 5_566 .
Cu2 Cu5B Cu2 172.5(9) 6_556 .
Cu3 Cu5B Cu2 43.3(3) 2_564 .
Cu3 Cu5B Cu2 43.3(3) 2_554 .
Cu4 Cu5B Cu2 127.5(7) 2_554 .
Cu4 Cu5B Cu2 127.5(7) 2_564 .
Cu1 Cu5B Cu2 79.2(3) 5_566 .
Cu1 Cu5B Cu2 79.2(3) 5_556 .
P3 Cu5B Cu2 145.7(9) 6_556 .
Th1 Cu5B Cu2 47.8(4) . .
Th1 Cu5B Cu2 118.1(4) 6_556 .
Cu5B Cu5B Cu2 90.0 1_565 .
Cu5B Cu5B Cu2 90.0 1_545 .
Cu5A Cu5B Cu2 87.4(3) 1_565 .
Cu5A Cu5B Cu2 87.4(3) 1_545 .
P1 Cu5B Cu1 32.2(4) . .
P3 Cu5B Cu1 125.3(2) 2_554 .
P3 Cu5B Cu1 125.3(2) 2_564 .
Cu4 Cu5B Cu1 175.1(10) 6_556 .
P2 Cu5B Cu1 80.0(6) 5_556 .
P2 Cu5B Cu1 80.0(6) 5_566 .
Cu2 Cu5B Cu1 102.7(9) 6_556 .
Cu3 Cu5B Cu1 77.1(2) 2_564 .
Cu3 Cu5B Cu1 77.1(2) 2_554 .
Cu4 Cu5B Cu1 127.3(7) 2_554 .
Cu4 Cu5B Cu1 127.3(7) 2_564 .
Cu1 Cu5B Cu1 42.4(3) 5_566 .
Cu1 Cu5B Cu1 42.4(3) 5_556 .
P3 Cu5B Cu1 144.5(9) 6_556 .
Th1 Cu5B Cu1 117.6(4) . .
Th1 Cu5B Cu1 48.3(3) 6_556 .
Cu5B Cu5B Cu1 90.000(1) 1_565 .
Cu5B Cu5B Cu1 90.0 1_545 .
Cu5A Cu5B Cu1 92.1(3) 1_565 .
Cu5A Cu5B Cu1 92.1(3) 1_545 .
Cu2 Cu5B Cu1 69.81(14) . .
P1 Cu5B P1 58.74(10) . 1_565
P3 Cu5B P1 138.4(10) 2_554 1_565
P3 Cu5B P1 62.34(11) 2_564 1_565
Cu4 Cu5B P1 114.5(5) 6_556 1_565
P2 Cu5B P1 134.9(9) 5_556 1_565
P2 Cu5B P1 62.03(11) 5_566 1_565
Cu2 Cu5B P1 111.5(5) 6_556 1_565
Cu3 Cu5B P1 28.91(17) 2_564 1_565
Cu3 Cu5B P1 107.2(4) 2_554 1_565
Cu4 Cu5B P1 163.4(3) 2_554 1_565
Cu4 Cu5B P1 79.02(3) 2_564 1_565
Cu1 Cu5B P1 28.65(16) 5_566 1_565
Cu1 Cu5B P1 105.6(4) 5_556 1_565
P3 Cu5B P1 121.20(11) 6_556 1_565
Th1 Cu5B P1 87.6(4) . 1_565
Th1 Cu5B P1 85.1(4) 6_556 1_565
Cu5B Cu5B P1 31.26(10) 1_565 1_565
Cu5B Cu5B P1 148.74(10) 1_545 1_565
Cu5A Cu5B P1 31.37(8) 1_565 1_565
Cu5A Cu5B P1 148.4(3) 1_545 1_565
Cu2 Cu5B P1 65.73(19) . 1_565
Cu1 Cu5B P1 63.95(17) . 1_565
P1 Cu5B P1 58.74(10) . 1_545
P3 Cu5B P1 62.34(11) 2_554 1_545
P3 Cu5B P1 138.4(10) 2_564 1_545
Cu4 Cu5B P1 114.5(5) 6_556 1_545
P2 Cu5B P1 62.03(11) 5_556 1_545
P2 Cu5B P1 134.9(9) 5_566 1_545
Cu2 Cu5B P1 111.5(5) 6_556 1_545
Cu3 Cu5B P1 107.2(4) 2_564 1_545
Cu3 Cu5B P1 28.91(17) 2_554 1_545
Cu4 Cu5B P1 79.02(3) 2_554 1_545
Cu4 Cu5B P1 163.4(3) 2_564 1_545
Cu1 Cu5B P1 105.6(4) 5_566 1_545
Cu1 Cu5B P1 28.65(16) 5_556 1_545
P3 Cu5B P1 121.20(11) 6_556 1_545
Th1 Cu5B P1 87.6(4) . 1_545
Th1 Cu5B P1 85.1(4) 6_556 1_545
Cu5B Cu5B P1 148.74(10) 1_565 1_545
Cu5B Cu5B P1 31.26(10) 1_545 1_545
Cu5A Cu5B P1 148.4(3) 1_565 1_545
Cu5A Cu5B P1 31.37(8) 1_545 1_545
Cu2 Cu5B P1 65.73(19) . 1_545
Cu1 Cu5B P1 63.95(17) . 1_545
P1 Cu5B P1 117.47(19) 1_565 1_545
P1 Cu5B Cu2 120.2(9) . 2_554
P3 Cu5B Cu2 22.5(3) 2_554 2_554
P3 Cu5B Cu2 70.2(6) 2_564 2_554
Cu4 Cu5B Cu2 30.8(3) 6_556 2_554
P2 Cu5B Cu2 97.2(3) 5_556 2_554
P2 Cu5B Cu2 133.8(3) 5_566 2_554
Cu2 Cu5B Cu2 100.6(3) 6_556 2_554
Cu3 Cu5B Cu2 102.0(9) 2_564 2_554
Cu3 Cu5B Cu2 69.1(5) 2_554 2_554
Cu4 Cu5B Cu2 51.7(4) 2_554 2_554
Cu4 Cu5B Cu2 86.2(5) 2_564 2_554
Cu1 Cu5B Cu2 156.4(8) 5_566 2_554
Cu1 Cu5B Cu2 111.3(4) 5_556 2_554
P3 Cu5B Cu2 62.7(3) 6_556 2_554
Th1 Cu5B Cu2 44.2(3) . 2_554
Th1 Cu5B Cu2 146.3(4) 6_556 2_554
Cu5B Cu5B Cu2 114.35(14) 1_565 2_554
Cu5B Cu5B Cu2 65.65(15) 1_545 2_554
Cu5A Cu5B Cu2 111.0(6) 1_565 2_554
Cu5A Cu5B Cu2 62.3(3) 1_545 2_554
Cu2 Cu5B Cu2 86.3(6) . 2_554
Cu1 Cu5B Cu2 146.1(4) . 2_554
P1 Cu5B Cu2 127.8(7) 1_565 2_554
P1 Cu5B Cu2 84.8(3) 1_545 2_554
P1 Cu5B Cu2 120.2(9) . 2_564
P3 Cu5B Cu2 70.2(6) 2_554 2_564
P3 Cu5B Cu2 22.5(3) 2_564 2_564
Cu4 Cu5B Cu2 30.8(3) 6_556 2_564
P2 Cu5B Cu2 133.8(3) 5_556 2_564
P2 Cu5B Cu2 97.2(3) 5_566 2_564
Cu2 Cu5B Cu2 100.6(3) 6_556 2_564
Cu3 Cu5B Cu2 69.1(5) 2_564 2_564
Cu3 Cu5B Cu2 102.0(9) 2_554 2_564
Cu4 Cu5B Cu2 86.2(5) 2_554 2_564
Cu4 Cu5B Cu2 51.7(4) 2_564 2_564
Cu1 Cu5B Cu2 111.3(4) 5_566 2_564
Cu1 Cu5B Cu2 156.4(8) 5_556 2_564
P3 Cu5B Cu2 62.7(3) 6_556 2_564
Th1 Cu5B Cu2 44.2(3) . 2_564
Th1 Cu5B Cu2 146.3(4) 6_556 2_564
Cu5B Cu5B Cu2 65.65(15) 1_565 2_564
Cu5B Cu5B Cu2 114.35(15) 1_545 2_564
Cu5A Cu5B Cu2 62.3(3) 1_565 2_564
Cu5A Cu5B Cu2 111.0(6) 1_545 2_564
Cu2 Cu5B Cu2 86.3(6) . 2_564
Cu1 Cu5B Cu2 146.1(4) . 2_564
P1 Cu5B Cu2 84.8(3) 1_565 2_564
P1 Cu5B Cu2 127.8(7) 1_545 2_564
Cu2 Cu5B Cu2 48.7(3) 2_554 2_564
P1 Cu5B Cu4 117.8(4) . 6_546
P3 Cu5B Cu4 21.35(15) 2_554 6_546
P3 Cu5B Cu4 102.7(7) 2_564 6_546
Cu4 Cu5B Cu4 54.3(2) 6_556 6_546
P2 Cu5B Cu4 65.04(14) 5_556 6_546
P2 Cu5B Cu4 134.0(5) 5_566 6_546
Cu2 Cu5B Cu4 85.44(15) 6_556 6_546
Cu3 Cu5B Cu4 130.7(10) 2_564 6_546
Cu3 Cu5B Cu4 62.6(3) 2_554 6_546
Cu4 Cu5B Cu4 28.7(2) 2_554 6_546
Cu4 Cu5B Cu4 102.4(3) 2_564 6_546
Cu1 Cu5B Cu4 167.8(5) 5_566 6_546
Cu1 Cu5B Cu4 83.60(8) 5_556 6_546
P3 Cu5B Cu4 63.60(16) 6_556 6_546
Th1 Cu5B Cu4 71.7(4) . 6_546
Th1 Cu5B Cu4 115.1(4) 6_556 6_546
Cu5B Cu5B Cu4 144.3(2) 1_565 6_546
Cu5B Cu5B Cu4 35.7(2) 1_545 6_546
Cu5A Cu5B Cu4 141.8(6) 1_565 6_546
Cu5A Cu5B Cu4 33.48(11) 1_545 6_546
Cu2 Cu5B Cu4 98.9(5) . 6_546
Cu1 Cu5B Cu4 125.56(16) . 6_546
P1 Cu5B Cu4 159.4(8) 1_565 6_546
P1 Cu5B Cu4 63.11(10) 1_545 6_546
Cu2 Cu5B Cu4 33.26(14) 2_554 6_546
Cu2 Cu5B Cu4 80.4(4) 2_564 6_546
P1 Cu5B Cu4 117.8(4) . 6_566
P3 Cu5B Cu4 102.7(7) 2_554 6_566
P3 Cu5B Cu4 21.35(15) 2_564 6_566
Cu4 Cu5B Cu4 54.3(2) 6_556 6_566
P2 Cu5B Cu4 134.0(5) 5_556 6_566
P2 Cu5B Cu4 65.04(14) 5_566 6_566
Cu2 Cu5B Cu4 85.44(15) 6_556 6_566
Cu3 Cu5B Cu4 62.6(3) 2_564 6_566
Cu3 Cu5B Cu4 130.7(10) 2_554 6_566
Cu4 Cu5B Cu4 102.4(3) 2_554 6_566
Cu4 Cu5B Cu4 28.7(2) 2_564 6_566
Cu1 Cu5B Cu4 83.60(8) 5_566 6_566
Cu1 Cu5B Cu4 167.8(5) 5_556 6_566
P3 Cu5B Cu4 63.60(16) 6_556 6_566
Th1 Cu5B Cu4 71.7(4) . 6_566
Th1 Cu5B Cu4 115.1(4) 6_556 6_566
Cu5B Cu5B Cu4 35.7(2) 1_565 6_566
Cu5B Cu5B Cu4 144.3(2) 1_545 6_566
Cu5A Cu5B Cu4 33.48(11) 1_565 6_566
Cu5A Cu5B Cu4 141.8(6) 1_545 6_566
Cu2 Cu5B Cu4 98.9(5) . 6_566
Cu1 Cu5B Cu4 125.56(16) . 6_566
P1 Cu5B Cu4 63.11(10) 1_565 6_566
P1 Cu5B Cu4 159.4(8) 1_545 6_566
Cu2 Cu5B Cu4 80.4(4) 2_554 6_566
Cu2 Cu5B Cu4 33.26(14) 2_564 6_566
Cu4 Cu5B Cu4 108.6(4) 6_546 6_566
P1 Cu5B P2 58.8(6) . 2_564
P3 Cu5B P2 86.5(8) 2_554 2_564
P3 Cu5B P2 50.5(4) 2_564 2_564
Cu4 Cu5B P2 87.7(8) 6_556 2_564
P2 Cu5B P2 156.4(3) 5_556 2_564
P2 Cu5B P2 111.0(2) 5_566 2_564
Cu2 Cu5B P2 154.05(19) 6_556 2_564
Cu3 Cu5B P2 23.2(3) 2_564 2_564
Cu3 Cu5B P2 68.7(5) 2_554 2_564
Cu4 Cu5B P2 133.2(10) 2_554 2_564
Cu4 Cu5B P2 98.0(5) 2_564 2_564
Cu1 Cu5B P2 76.5(4) 5_566 2_564
Cu1 Cu5B P2 108.1(4) 5_556 2_564
P3 Cu5B P2 124.1(7) 6_556 2_564
Th1 Cu5B P2 37.6(2) . 2_564
Th1 Cu5B P2 131.1(3) 6_556 2_564
Cu5B Cu5B P2 66.09(14) 1_565 2_564
Cu5B Cu5B P2 113.91(14) 1_545 2_564
Cu5A Cu5B P2 62.6(3) 1_565 2_564
Cu5A Cu5B P2 110.4(5) 1_545 2_564
Cu2 Cu5B P2 29.55(19) . 2_564
Cu1 Cu5B P2 87.9(2) . 2_564
P1 Cu5B P2 52.04(18) 1_565 2_564
P1 Cu5B P2 94.5(4) 1_545 2_564
Cu2 Cu5B P2 81.7(5) 2_554 2_564
Cu2 Cu5B P2 61.4(4) 2_564 2_564
Cu4 Cu5B P2 107.8(6) 6_546 2_564
Cu4 Cu5B P2 69.3(3) 6_566 2_564
P1 Cu5B P2 58.8(6) . 2_554
P3 Cu5B P2 50.5(4) 2_554 2_554
P3 Cu5B P2 86.5(8) 2_564 2_554
Cu4 Cu5B P2 87.7(8) 6_556 2_554
P2 Cu5B P2 111.0(2) 5_556 2_554
P2 Cu5B P2 156.4(3) 5_566 2_554
Cu2 Cu5B P2 154.05(19) 6_556 2_554
Cu3 Cu5B P2 68.7(5) 2_564 2_554
Cu3 Cu5B P2 23.2(3) 2_554 2_554
Cu4 Cu5B P2 98.0(5) 2_554 2_554
Cu4 Cu5B P2 133.2(10) 2_564 2_554
Cu1 Cu5B P2 108.1(4) 5_566 2_554
Cu1 Cu5B P2 76.5(4) 5_556 2_554
P3 Cu5B P2 124.1(7) 6_556 2_554
Th1 Cu5B P2 37.6(2) . 2_554
Th1 Cu5B P2 131.1(3) 6_556 2_554
Cu5B Cu5B P2 113.91(14) 1_565 2_554
Cu5B Cu5B P2 66.09(14) 1_545 2_554
Cu5A Cu5B P2 110.4(5) 1_565 2_554
Cu5A Cu5B P2 62.6(3) 1_545 2_554
Cu2 Cu5B P2 29.55(19) . 2_554
Cu1 Cu5B P2 87.9(2) . 2_554
P1 Cu5B P2 94.5(4) 1_565 2_554
P1 Cu5B P2 52.04(18) 1_545 2_554
Cu2 Cu5B P2 61.4(4) 2_554 2_554
Cu2 Cu5B P2 81.7(5) 2_564 2_554
Cu4 Cu5B P2 69.3(3) 6_546 2_554
Cu4 Cu5B P2 107.8(6) 6_566 2_554
P2 Cu5B P2 47.8(3) 2_564 2_554
P1 Cu5B Cu2 114.6(5) . 6_546
P3 Cu5B Cu2 65.51(19) 2_554 6_546
P3 Cu5B Cu2 137.0(4) 2_564 6_546
Cu4 Cu5B Cu2 85.40(16) 6_556 6_546
P2 Cu5B Cu2 20.26(12) 5_556 6_546
P2 Cu5B Cu2 99.9(7) 5_566 6_546
Cu2 Cu5B Cu2 53.9(2) 6_556 6_546
Cu3 Cu5B Cu2 168.8(3) 2_564 6_546
Cu3 Cu5B Cu2 82.73(12) 2_554 6_546
Cu4 Cu5B Cu2 30.0(3) 2_554 6_546
Cu4 Cu5B Cu2 102.7(4) 2_564 6_546
Cu1 Cu5B Cu2 126.6(9) 5_566 6_546
Cu1 Cu5B Cu2 60.8(3) 5_556 6_546
P3 Cu5B Cu2 64.0(2) 6_556 6_546
Th1 Cu5B Cu2 116.7(4) . 6_546
Th1 Cu5B Cu2 70.0(4) 6_556 6_546
Cu5B Cu5B Cu2 143.9(2) 1_565 6_546
Cu5B Cu5B Cu2 36.1(2) 1_545 6_546
Cu5A Cu5B Cu2 146.8(5) 1_565 6_546
Cu5A Cu5B Cu2 39.20(12) 1_545 6_546
Cu2 Cu5B Cu2 125.73(17) . 6_546
Cu1 Cu5B Cu2 97.4(5) . 6_546
P1 Cu5B Cu2 155.0(8) 1_565 6_546
P1 Cu5B Cu2 61.63(11) 1_545 6_546
Cu2 Cu5B Cu2 76.99(13) 2_554 6_546
Cu2 Cu5B Cu2 116.2(3) 2_564 6_546
Cu4 Cu5B Cu2 45.33(4) 6_546 6_546
Cu4 Cu5B Cu2 127.5(2) 6_566 6_546
P2 Cu5B Cu2 149.0(5) 2_564 6_546
P2 Cu5B Cu2 101.65(17) 2_554 6_546
P1 Cu5B Cu2 114.6(5) . 6_566
P3 Cu5B Cu2 137.0(4) 2_554 6_566
P3 Cu5B Cu2 65.51(19) 2_564 6_566
Cu4 Cu5B Cu2 85.40(16) 6_556 6_566
P2 Cu5B Cu2 99.9(7) 5_556 6_566
P2 Cu5B Cu2 20.26(12) 5_566 6_566
Cu2 Cu5B Cu2 53.9(2) 6_556 6_566
Cu3 Cu5B Cu2 82.73(12) 2_564 6_566
Cu3 Cu5B Cu2 168.8(3) 2_554 6_566
Cu4 Cu5B Cu2 102.7(4) 2_554 6_566
Cu4 Cu5B Cu2 30.0(3) 2_564 6_566
Cu1 Cu5B Cu2 60.8(3) 5_566 6_566
Cu1 Cu5B Cu2 126.6(9) 5_556 6_566
P3 Cu5B Cu2 64.0(2) 6_556 6_566
Th1 Cu5B Cu2 116.7(4) . 6_566
Th1 Cu5B Cu2 70.0(4) 6_556 6_566
Cu5B Cu5B Cu2 36.1(2) 1_565 6_566
Cu5B Cu5B Cu2 143.9(2) 1_545 6_566
Cu5A Cu5B Cu2 39.20(12) 1_565 6_566
Cu5A Cu5B Cu2 146.8(5) 1_545 6_566
Cu2 Cu5B Cu2 125.73(17) . 6_566
Cu1 Cu5B Cu2 97.4(5) . 6_566
P1 Cu5B Cu2 61.63(11) 1_565 6_566
P1 Cu5B Cu2 155.0(8) 1_545 6_566
Cu2 Cu5B Cu2 116.2(3) 2_554 6_566
Cu2 Cu5B Cu2 76.99(13) 2_564 6_566
Cu4 Cu5B Cu2 127.5(2) 6_546 6_566
Cu4 Cu5B Cu2 45.33(4) 6_566 6_566
P2 Cu5B Cu2 101.65(17) 2_564 6_566
P2 Cu5B Cu2 149.0(5) 2_554 6_566
Cu2 Cu5B Cu2 107.8(5) 6_546 6_566
P1 Cu5B Cu3 114.8(9) . 5_556
P3 Cu5B Cu3 97.7(3) 2_554 5_556
P3 Cu5B Cu3 134.4(4) 2_564 5_556
Cu4 Cu5B Cu3 99.0(4) 6_556 5_556
P2 Cu5B Cu3 21.2(3) 5_556 5_556
P2 Cu5B Cu3 67.4(6) 5_566 5_556
Cu2 Cu5B Cu3 29.1(3) 6_556 5_556
Cu3 Cu5B Cu3 152.7(8) 2_564 5_556
Cu3 Cu5B Cu3 110.0(4) 2_554 5_556
Cu4 Cu5B Cu3 52.5(5) 2_554 5_556
Cu4 Cu5B Cu3 85.8(6) 2_564 5_556
Cu1 Cu5B Cu3 98.2(8) 5_566 5_556
Cu1 Cu5B Cu3 66.9(5) 5_556 5_556
P3 Cu5B Cu3 62.2(4) 6_556 5_556
Th1 Cu5B Cu3 147.8(3) . 5_556
Th1 Cu5B Cu3 42.7(3) 6_556 5_556
Cu5B Cu5B Cu3 113.52(14) 1_565 5_556
Cu5B Cu5B Cu3 66.48(15) 1_545 5_556
Cu5A Cu5B Cu3 117.3(6) 1_565 5_556
Cu5A Cu5B Cu3 70.2(3) 1_545 5_556
Cu2 Cu5B Cu3 146.1(3) . 5_556
Cu1 Cu5B Cu3 85.4(6) . 5_556
P1 Cu5B Cu3 124.0(6) 1_565 5_556
P1 Cu5B Cu3 82.9(3) 1_545 5_556
Cu2 Cu5B Cu3 104.13(13) 2_554 5_556
Cu2 Cu5B Cu3 125.0(2) 2_564 5_556
Cu4 Cu5B Cu3 76.55(17) 6_546 5_556
Cu4 Cu5B Cu3 114.6(3) 6_566 5_556
P2 Cu5B Cu3 173.3(5) 2_564 5_556
P2 Cu5B Cu3 132.04(6) 2_554 5_556
Cu2 Cu5B Cu3 33.17(16) 6_546 5_556
Cu2 Cu5B Cu3 78.9(4) 6_566 5_556
P1 Cu5B Cu3 114.8(9) . 5_566
P3 Cu5B Cu3 134.4(4) 2_554 5_566
P3 Cu5B Cu3 97.7(3) 2_564 5_566
Cu4 Cu5B Cu3 99.0(4) 6_556 5_566
P2 Cu5B Cu3 67.4(6) 5_556 5_566
P2 Cu5B Cu3 21.2(3) 5_566 5_566
Cu2 Cu5B Cu3 29.1(3) 6_556 5_566
Cu3 Cu5B Cu3 110.0(4) 2_564 5_566
Cu3 Cu5B Cu3 152.7(8) 2_554 5_566
Cu4 Cu5B Cu3 85.8(6) 2_554 5_566
Cu4 Cu5B Cu3 52.5(5) 2_564 5_566
Cu1 Cu5B Cu3 66.9(5) 5_566 5_566
Cu1 Cu5B Cu3 98.2(8) 5_556 5_566
P3 Cu5B Cu3 62.2(4) 6_556 5_566
Th1 Cu5B Cu3 147.8(3) . 5_566
Th1 Cu5B Cu3 42.7(3) 6_556 5_566
Cu5B Cu5B Cu3 66.48(15) 1_565 5_566
Cu5B Cu5B Cu3 113.52(14) 1_545 5_566
Cu5A Cu5B Cu3 70.2(3) 1_565 5_566
Cu5A Cu5B Cu3 117.3(6) 1_545 5_566
Cu2 Cu5B Cu3 146.1(3) . 5_566
Cu1 Cu5B Cu3 85.4(6) . 5_566
P1 Cu5B Cu3 82.9(3) 1_565 5_566
P1 Cu5B Cu3 124.0(6) 1_545 5_566
Cu2 Cu5B Cu3 125.0(2) 2_554 5_566
Cu2 Cu5B Cu3 104.13(13) 2_564 5_566
Cu4 Cu5B Cu3 114.6(3) 6_546 5_566
Cu4 Cu5B Cu3 76.55(17) 6_566 5_566
P2 Cu5B Cu3 132.04(6) 2_564 5_566
P2 Cu5B Cu3 173.3(5) 2_554 5_566
Cu2 Cu5B Cu3 78.9(4) 6_546 5_566
Cu2 Cu5B Cu3 33.17(16) 6_566 5_566
Cu3 Cu5B Cu3 47.0(3) 5_556 5_566
P1 Cu5B P1 54.6(5) . 5_566
P3 Cu5B P1 154.3(3) 2_554 5_566
P3 Cu5B P1 110.2(2) 2_564 5_566
Cu4 Cu5B P1 153.2(3) 6_556 5_566
P2 Cu5B P1 84.8(7) 5_556 5_566
P2 Cu5B P1 50.9(4) 5_566 5_566
Cu2 Cu5B P1 84.4(7) 6_556 5_566
Cu3 Cu5B P1 75.1(4) 2_564 5_566
Cu3 Cu5B P1 106.3(4) 2_554 5_566
Cu4 Cu5B P1 131.7(10) 2_554 5_566
Cu4 Cu5B P1 97.9(6) 2_564 5_566
Cu1 Cu5B P1 22.0(3) 5_566 5_566
Cu1 Cu5B P1 66.4(5) 5_556 5_566
P3 Cu5B P1 122.4(7) 6_556 5_566
Th1 Cu5B P1 131.8(3) . 5_566
Th1 Cu5B P1 36.8(2) 6_556 5_566
Cu5B Cu5B P1 66.88(12) 1_565 5_566
Cu5B Cu5B P1 113.12(12) 1_545 5_566
Cu5A Cu5B P1 70.0(3) 1_565 5_566
Cu5A Cu5B P1 116.2(5) 1_545 5_566
Cu2 Cu5B P1 88.71(19) . 5_566
Cu1 Cu5B P1 29.46(17) . 5_566
P1 Cu5B P1 50.50(18) 1_565 5_566
P1 Cu5B P1 92.0(3) 1_545 5_566
Cu2 Cu5B P1 174.8(4) 2_554 5_566
Cu2 Cu5B P1 132.23(4) 2_564 5_566
Cu4 Cu5B P1 147.1(5) 6_546 5_566
Cu4 Cu5B P1 101.67(19) 6_566 5_566
P2 Cu5B P1 94.56(13) 2_564 5_566
P2 Cu5B P1 113.44(18) 2_554 5_566
Cu2 Cu5B P1 105.1(6) 6_546 5_566
Cu2 Cu5B P1 68.0(3) 6_566 5_566
Cu3 Cu5B P1 79.4(5) 5_556 5_566
Cu3 Cu5B P1 60.2(4) 5_566 5_566
P1 Cu5B P1 54.6(5) . 5_556
P3 Cu5B P1 110.2(2) 2_554 5_556
P3 Cu5B P1 154.3(3) 2_564 5_556
Cu4 Cu5B P1 153.2(3) 6_556 5_556
P2 Cu5B P1 50.9(4) 5_556 5_556
P2 Cu5B P1 84.8(7) 5_566 5_556
Cu2 Cu5B P1 84.4(7) 6_556 5_556
Cu3 Cu5B P1 106.3(4) 2_564 5_556
Cu3 Cu5B P1 75.1(4) 2_554 5_556
Cu4 Cu5B P1 97.9(6) 2_554 5_556
Cu4 Cu5B P1 131.7(10) 2_564 5_556
Cu1 Cu5B P1 66.4(5) 5_566 5_556
Cu1 Cu5B P1 22.0(3) 5_556 5_556
P3 Cu5B P1 122.4(7) 6_556 5_556
Th1 Cu5B P1 131.8(3) . 5_556
Th1 Cu5B P1 36.8(2) 6_556 5_556
Cu5B Cu5B P1 113.12(12) 1_565 5_556
Cu5B Cu5B P1 66.88(12) 1_545 5_556
Cu5A Cu5B P1 116.2(5) 1_565 5_556
Cu5A Cu5B P1 70.0(2) 1_545 5_556
Cu2 Cu5B P1 88.71(19) . 5_556
Cu1 Cu5B P1 29.46(17) . 5_556
P1 Cu5B P1 92.0(3) 1_565 5_556
P1 Cu5B P1 50.50(18) 1_545 5_556
Cu2 Cu5B P1 132.23(4) 2_554 5_556
Cu2 Cu5B P1 174.8(4) 2_564 5_556
Cu4 Cu5B P1 101.67(19) 6_546 5_556
Cu4 Cu5B P1 147.1(5) 6_566 5_556
P2 Cu5B P1 113.44(18) 2_564 5_556
P2 Cu5B P1 94.56(13) 2_554 5_556
Cu2 Cu5B P1 68.0(3) 6_546 5_556
Cu2 Cu5B P1 105.1(6) 6_566 5_556
Cu3 Cu5B P1 60.2(4) 5_556 5_556
Cu3 Cu5B P1 79.4(5) 5_566 5_556
P1 Cu5B P1 46.2(2) 5_566 5_556
P1 Cu5B Cu5A 151.9(7) . 5
P3 Cu5B Cu5A 46.54(18) 2_554 5
P3 Cu5B Cu5A 82.4(4) 2_564 5
Cu4 Cu5B Cu5A 30.55(9) 6_556 5
P2 Cu5B Cu5A 73.07(16) 5_556 5
P2 Cu5B Cu5A 104.3(3) 5_566 5
Cu2 Cu5B Cu5A 64.01(15) 6_556 5
Cu3 Cu5B Cu5A 129.7(9) 2_564 5
Cu3 Cu5B Cu5A 95.9(4) 2_554 5
Cu4 Cu5B Cu5A 25.0(2) 2_554 5
Cu4 Cu5B Cu5A 67.7(2) 2_564 5
Cu1 Cu5B Cu5A 154.0(5) 5_566 5
Cu1 Cu5B Cu5A 111.91(15) 5_556 5
P3 Cu5B Cu5A 30.02(10) 6_556 5
Th1 Cu5B Cu5A 79.1(5) . 5
Th1 Cu5B Cu5A 113.8(5) 6_556 5
Cu5B Cu5B Cu5A 113.06(5) 1_565 5
Cu5B Cu5B Cu5A 66.94(5) 1_545 5
Cu5A Cu5B Cu5A 112.0(3) 1_565 5
Cu5A Cu5B Cu5A 65.97(18) 1_545 5
Cu2 Cu5B Cu5A 122.7(7) . 5
Cu1 Cu5B Cu5A 152.3(5) . 5
P1 Cu5B Cu5A 142.4(3) 1_565 5
P1 Cu5B Cu5A 97.08(15) 1_545 5
Cu2 Cu5B Cu5A 36.57(18) 2_554 5
Cu2 Cu5B Cu5A 61.3(3) 2_564 5
Cu4 Cu5B Cu5A 34.84(11) 6_546 5
Cu4 Cu5B Cu5A 79.4(2) 6_566 5
P2 Cu5B Cu5A 114.8(7) 2_564 5
P2 Cu5B Cu5A 95.8(5) 2_554 5
Cu2 Cu5B Cu5A 54.93(10) 6_546 5
Cu2 Cu5B Cu5A 93.35(16) 6_566 5
Cu3 Cu5B Cu5A 71.7(2) 5_556 5
Cu3 Cu5B Cu5A 89.9(3) 5_566 5
P1 Cu5B Cu5A 148.3(7) 5_566 5
P1 Cu5B Cu5A 122.9(4) 5_556 5
P1 Cu5B Cu5A 151.9(7) . 5_565
P3 Cu5B Cu5A 82.4(4) 2_554 5_565
P3 Cu5B Cu5A 46.54(18) 2_564 5_565
Cu4 Cu5B Cu5A 30.55(9) 6_556 5_565
P2 Cu5B Cu5A 104.3(3) 5_556 5_565
P2 Cu5B Cu5A 73.07(16) 5_566 5_565
Cu2 Cu5B Cu5A 64.01(15) 6_556 5_565
Cu3 Cu5B Cu5A 95.9(4) 2_564 5_565
Cu3 Cu5B Cu5A 129.7(9) 2_554 5_565
Cu4 Cu5B Cu5A 67.7(2) 2_554 5_565
Cu4 Cu5B Cu5A 25.0(2) 2_564 5_565
Cu1 Cu5B Cu5A 111.91(15) 5_566 5_565
Cu1 Cu5B Cu5A 154.0(5) 5_556 5_565
P3 Cu5B Cu5A 30.02(10) 6_556 5_565
Th1 Cu5B Cu5A 79.1(5) . 5_565
Th1 Cu5B Cu5A 113.8(5) 6_556 5_565
Cu5B Cu5B Cu5A 66.94(5) 1_565 5_565
Cu5B Cu5B Cu5A 113.06(5) 1_545 5_565
Cu5A Cu5B Cu5A 65.97(18) 1_565 5_565
Cu5A Cu5B Cu5A 112.0(3) 1_545 5_565
Cu2 Cu5B Cu5A 122.7(7) . 5_565
Cu1 Cu5B Cu5A 152.3(5) . 5_565
P1 Cu5B Cu5A 97.08(14) 1_565 5_565
P1 Cu5B Cu5A 142.4(3) 1_545 5_565
Cu2 Cu5B Cu5A 61.3(3) 2_554 5_565
Cu2 Cu5B Cu5A 36.57(18) 2_564 5_565
Cu4 Cu5B Cu5A 79.4(2) 6_546 5_565
Cu4 Cu5B Cu5A 34.84(11) 6_566 5_565
P2 Cu5B Cu5A 95.8(5) 2_564 5_565
P2 Cu5B Cu5A 114.8(7) 2_554 5_565
Cu2 Cu5B Cu5A 93.35(16) 6_546 5_565
Cu2 Cu5B Cu5A 54.93(10) 6_566 5_565
Cu3 Cu5B Cu5A 89.9(3) 5_556 5_565
Cu3 Cu5B Cu5A 71.7(2) 5_566 5_565
P1 Cu5B Cu5A 122.9(4) 5_566 5_565
P1 Cu5B Cu5A 148.3(7) 5_556 5_565
Cu5A Cu5B Cu5A 46.12(11) 5 5_565
P1 Cu5B Th1 23.01(6) . 2_565
P3 Cu5B Th1 120.1(6) 2_554 2_565
P3 Cu5B Th1 87.1(3) 2_564 2_565
Cu4 Cu5B Th1 135.3(8) 6_556 2_565
P2 Cu5B Th1 120.3(6) 5_556 2_565
P2 Cu5B Th1 88.3(3) 5_566 2_565
Cu2 Cu5B Th1 132.6(8) 6_556 2_565
Cu3 Cu5B Th1 37.01(15) 2_564 2_565
Cu3 Cu5B Th1 74.6(2) 2_554 2_565
Cu4 Cu5B Th1 160.67(16) 2_554 2_565
Cu4 Cu5B Th1 114.90(8) 2_564 2_565
Cu1 Cu5B Th1 38.48(17) 5_566 2_565
Cu1 Cu5B Th1 74.86(19) 5_556 2_565
P3 Cu5B Th1 157.09(6) 6_556 2_565
Th1 Cu5B Th1 83.6(4) . 2_565
Th1 Cu5B Th1 83.5(3) 6_556 2_565
Cu5B Cu5B Th1 67.11(4) 1_565 2_565
Cu5B Cu5B Th1 112.89(4) 1_545 2_565
Cu5A Cu5B Th1 66.86(13) 1_565 2_565
Cu5A Cu5B Th1 112.5(2) 1_545 2_565
Cu2 Cu5B Th1 41.16(9) . 2_565
Cu1 Cu5B Th1 40.70(8) . 2_565
P1 Cu5B Th1 35.89(6) 1_565 2_565
P1 Cu5B Th1 81.65(14) 1_545 2_565
Cu2 Cu5B Th1 126.4(6) 2_554 2_565
Cu2 Cu5B Th1 105.8(4) 2_564 2_565
Cu4 Cu5B Th1 137.0(4) 6_546 2_565
Cu4 Cu5B Th1 95.70(18) 6_566 2_565
P2 Cu5B Th1 48.43(15) 2_564 2_565
P2 Cu5B Th1 69.6(2) 2_554 2_565
Cu2 Cu5B Th1 135.5(4) 6_546 2_565
Cu2 Cu5B Th1 94.85(17) 6_566 2_565
Cu3 Cu5B Th1 124.9(6) 5_556 2_565
Cu3 Cu5B Th1 105.2(4) 5_566 2_565
P1 Cu5B Th1 48.87(14) 5_566 2_565
P1 Cu5B Th1 69.4(2) 5_556 2_565
Cu5A Cu5B Th1 162.6(8) 5 2_565
Cu5A Cu5B Th1 130.5(3) 5_565 2_565
P1 Cu5B Th1 23.01(6) . 2
P3 Cu5B Th1 87.1(3) 2_554 2
P3 Cu5B Th1 120.1(6) 2_564 2
Cu4 Cu5B Th1 135.3(8) 6_556 2
P2 Cu5B Th1 88.3(3) 5_556 2
P2 Cu5B Th1 120.3(6) 5_566 2
Cu2 Cu5B Th1 132.6(8) 6_556 2
Cu3 Cu5B Th1 74.6(2) 2_564 2
Cu3 Cu5B Th1 37.01(15) 2_554 2
Cu4 Cu5B Th1 114.90(8) 2_554 2
Cu4 Cu5B Th1 160.67(16) 2_564 2
Cu1 Cu5B Th1 74.86(19) 5_566 2
Cu1 Cu5B Th1 38.48(17) 5_556 2
P3 Cu5B Th1 157.09(6) 6_556 2
Th1 Cu5B Th1 83.6(4) . 2
Th1 Cu5B Th1 83.5(3) 6_556 2
Cu5B Cu5B Th1 112.89(4) 1_565 2
Cu5B Cu5B Th1 67.11(4) 1_545 2
Cu5A Cu5B Th1 112.5(2) 1_565 2
Cu5A Cu5B Th1 66.86(13) 1_545 2
Cu2 Cu5B Th1 41.16(9) . 2
Cu1 Cu5B Th1 40.70(8) . 2
P1 Cu5B Th1 81.65(14) 1_565 2
P1 Cu5B Th1 35.89(6) 1_545 2
Cu2 Cu5B Th1 105.8(4) 2_554 2
Cu2 Cu5B Th1 126.4(6) 2_564 2
Cu4 Cu5B Th1 95.70(18) 6_546 2
Cu4 Cu5B Th1 137.0(4) 6_566 2
P2 Cu5B Th1 69.6(2) 2_564 2
P2 Cu5B Th1 48.43(15) 2_554 2
Cu2 Cu5B Th1 94.85(17) 6_546 2
Cu2 Cu5B Th1 135.5(4) 6_566 2
Cu3 Cu5B Th1 105.2(4) 5_556 2
Cu3 Cu5B Th1 124.9(6) 5_566 2
P1 Cu5B Th1 69.4(2) 5_566 2
P1 Cu5B Th1 48.87(14) 5_556 2
Cu5A Cu5B Th1 130.5(3) 5 2
Cu5A Cu5B Th1 162.6(8) 5_565 2
Th1 Cu5B Th1 45.78(8) 2_565 2
Cu5B P1 Cu5A 6.8(8) . .
Cu5B P1 Cu1 74.3(5) . 5_556
Cu5A P1 Cu1 78.19(8) . 5_556
Cu5B P1 Cu1 74.3(5) . 5_566
Cu5A P1 Cu1 78.19(8) . 5_566
Cu1 P1 Cu1 105.67(5) 5_556 5_566
Cu5B P1 Cu3 71.7(5) . 2_554
Cu5A P1 Cu3 68.00(8) . 2_554
Cu1 P1 Cu3 65.12(2) 5_556 2_554
Cu1 P1 Cu3 146.03(6) 5_566 2_554
Cu5B P1 Cu3 71.7(5) . 2_564
Cu5A P1 Cu3 68.00(8) . 2_564
Cu1 P1 Cu3 146.03(6) 5_556 2_564
Cu1 P1 Cu3 65.12(2) 5_566 2_564
Cu3 P1 Cu3 103.31(5) 2_554 2_564
Cu5B P1 Cu1 117.7(8) . .
Cu5A P1 Cu1 124.54(14) . .
Cu1 P1 Cu1 69.38(3) 5_556 .
Cu1 P1 Cu1 69.38(3) 5_566 .
Cu3 P1 Cu1 128.30(3) 2_554 .
Cu3 P1 Cu1 128.30(3) 2_564 .
Cu5B P1 Cu2 108.7(8) . .
Cu5A P1 Cu2 101.83(14) . .
Cu1 P1 Cu2 126.74(3) 5_556 .
Cu1 P1 Cu2 126.74(3) 5_566 .
Cu3 P1 Cu2 65.97(3) 2_554 .
Cu3 P1 Cu2 65.97(3) 2_564 .
Cu1 P1 Cu2 133.63(6) . .
Cu5B P1 Th1 138.91(9) . 2_565
Cu5A P1 Th1 137.77(4) . 2_565
Cu1 P1 Th1 139.52(5) 5_556 2_565
Cu1 P1 Th1 73.63(2) 5_566 2_565
Cu3 P1 Th1 135.56(5) 2_554 2_565
Cu3 P1 Th1 71.82(2) 2_564 2_565
Cu1 P1 Th1 72.99(3) . 2_565
Cu2 P1 Th1 72.35(3) . 2_565
Cu5B P1 Th1 138.91(9) . 2
Cu5A P1 Th1 137.77(4) . 2
Cu1 P1 Th1 73.63(2) 5_556 2
Cu1 P1 Th1 139.52(5) 5_566 2
Cu3 P1 Th1 71.82(2) 2_554 2
Cu3 P1 Th1 135.56(5) 2_564 2
Cu1 P1 Th1 72.99(3) . 2
Cu2 P1 Th1 72.35(3) . 2
Th1 P1 Th1 81.69(3) 2_565 2
Cu5B P1 P2 155.7(8) . .
Cu5A P1 P2 162.50(14) . .
Cu1 P1 P2 91.40(4) 5_556 .
Cu1 P1 P2 91.40(4) 5_566 .
Cu3 P1 P2 120.40(3) 2_554 .
Cu3 P1 P2 120.40(3) 2_564 .
Cu1 P1 P2 37.97(3) . .
Cu2 P1 P2 95.66(4) . .
Th1 P1 P2 48.72(2) 2_565 .
Th1 P1 P2 48.72(2) 2 .
Cu5B P1 P3 146.8(8) . .
Cu5A P1 P3 139.94(14) . .
Cu1 P1 P3 121.50(3) 5_556 .
Cu1 P1 P3 121.50(3) 5_566 .
Cu3 P1 P3 88.20(4) 2_554 .
Cu3 P1 P3 88.20(4) 2_564 .
Cu1 P1 P3 95.52(4) . .
Cu2 P1 P3 38.11(3) . .
Th1 P1 P3 48.22(2) 2_565 .
Th1 P1 P3 48.22(2) 2 .
P2 P1 P3 57.56(3) . .
Cu5B P1 P1 90.000(1) . 1_565
Cu5A P1 P1 90.0 . 1_565
Cu1 P1 P1 142.84(3) 5_556 1_565
Cu1 P1 P1 37.16(3) 5_566 1_565
Cu3 P1 P1 141.66(3) 2_554 1_565
Cu3 P1 P1 38.35(3) 2_564 1_565
Cu1 P1 P1 90.0 . 1_565
Cu2 P1 P1 90.0 . 1_565
Th1 P1 P1 49.154(16) 2_565 1_565
Th1 P1 P1 130.846(16) 2 1_565
P2 P1 P1 90.0 . 1_565
P3 P1 P1 90.0 . 1_565
Cu5B P1 P1 90.000(1) . 1_545
Cu5A P1 P1 90.0 . 1_545
Cu1 P1 P1 37.16(3) 5_556 1_545
Cu1 P1 P1 142.84(3) 5_566 1_545
Cu3 P1 P1 38.35(3) 2_554 1_545
Cu3 P1 P1 141.66(3) 2_564 1_545
Cu1 P1 P1 90.0 . 1_545
Cu2 P1 P1 90.0 . 1_545
Th1 P1 P1 130.846(16) 2_565 1_545
Th1 P1 P1 49.154(16) 2 1_545
P2 P1 P1 90.0 . 1_545
P3 P1 P1 90.0 . 1_545
P1 P1 P1 180.0 1_565 1_545
Cu5B P1 P1 97.1(7) . 5_556
Cu5A P1 P1 103.11(12) . 5_556
Cu1 P1 P1 35.245(19) 5_556 5_556
Cu1 P1 P1 86.84(5) 5_566 5_556
Cu3 P1 P1 97.462(16) 2_554 5_556
Cu3 P1 P1 151.57(5) 2_564 5_556
Cu1 P1 P1 34.14(2) . 5_556
Cu2 P1 P1 141.64(4) . 5_556
Th1 P1 P1 106.01(5) 2_565 5_556
Th1 P1 P1 69.56(3) 2 5_556
P2 P1 P1 61.87(4) . 5_556
P3 P1 P1 111.88(5) . 5_556
P1 P1 P1 118.544(17) 1_565 5_556
P1 P1 P1 61.456(17) 1_545 5_556
Cu5B P1 P1 97.1(7) . 5_566
Cu5A P1 P1 103.11(12) . 5_566
Cu1 P1 P1 86.84(5) 5_556 5_566
Cu1 P1 P1 35.245(19) 5_566 5_566
Cu3 P1 P1 151.57(5) 2_554 5_566
Cu3 P1 P1 97.462(16) 2_564 5_566
Cu1 P1 P1 34.14(2) . 5_566
Cu2 P1 P1 141.64(4) . 5_566
Th1 P1 P1 69.56(3) 2_565 5_566
Th1 P1 P1 106.01(5) 2 5_566
P2 P1 P1 61.87(4) . 5_566
P3 P1 P1 111.88(5) . 5_566
P1 P1 P1 61.456(17) 1_565 5_566
P1 P1 P1 118.544(17) 1_545 5_566
P1 P1 P1 57.09(3) 5_556 5_566
Cu5B P1 P2 42.5(6) . 5_556
Cu5A P1 P2 47.52(10) . 5_556
Cu1 P1 P2 33.07(3) 5_556 5_556
Cu1 P1 P2 85.52(4) 5_566 5_556
Cu3 P1 P2 69.59(3) 2_554 5_556
Cu3 P1 P2 113.52(4) 2_564 5_556
Cu1 P1 P2 85.38(4) . 5_556
Cu2 P1 P2 133.56(4) . 5_556
Th1 P1 P2 154.02(4) 2_565 5_556
Th1 P1 P2 105.976(17) 2 5_556
P2 P1 P2 118.36(3) . 5_556
P3 P1 P2 151.521(12) . 5_556
P1 P1 P2 118.478(12) 1_565 5_556
P1 P1 P2 61.522(12) 1_545 5_556
P1 P1 P2 56.49(3) 5_556 5_556
P1 P1 P2 84.46(4) 5_566 5_556
Cu5B P1 P2 42.5(6) . 5_566
Cu5A P1 P2 47.52(10) . 5_566
Cu1 P1 P2 85.52(4) 5_556 5_566
Cu1 P1 P2 33.07(3) 5_566 5_566
Cu3 P1 P2 113.52(4) 2_554 5_566
Cu3 P1 P2 69.59(3) 2_564 5_566
Cu1 P1 P2 85.38(4) . 5_566
Cu2 P1 P2 133.56(4) . 5_566
Th1 P1 P2 105.976(17) 2_565 5_566
Th1 P1 P2 154.02(4) 2 5_566
P2 P1 P2 118.36(3) . 5_566
P3 P1 P2 151.521(12) . 5_566
P1 P1 P2 61.522(12) 1_565 5_566
P1 P1 P2 118.478(12) 1_545 5_566
P1 P1 P2 84.46(4) 5_556 5_566
P1 P1 P2 56.49(3) 5_566 5_566
P2 P1 P2 56.96(2) 5_556 5_566
Cu5B P1 P3 40.3(6) . 2_554
Cu5A P1 P3 36.00(8) . 2_554
Cu1 P1 P3 69.51(3) 5_556 2_554
Cu1 P1 P3 114.19(4) 5_566 2_554
Cu3 P1 P3 32.11(2) 2_554 2_554
Cu3 P1 P3 84.30(4) 2_564 2_554
Cu1 P1 P3 137.90(4) . 2_554
Cu2 P1 P3 80.17(3) . 2_554
Th1 P1 P3 149.05(4) 2_565 2_554
Th1 P1 P3 103.539(19) 2 2_554
P2 P1 P3 151.041(14) . 2_554
P3 P1 P3 113.44(3) . 2_554
P1 P1 P3 118.470(12) 1_565 2_554
P1 P1 P3 61.530(12) 1_545 2_554
P1 P1 P3 104.34(3) 5_556 2_554
P1 P1 P3 134.68(5) 5_566 2_554
P2 P1 P3 54.54(3) 5_556 2_554
P2 P1 P3 82.79(3) 5_566 2_554
Cu5B P1 P3 40.3(6) . 2_564
Cu5A P1 P3 36.00(8) . 2_564
Cu1 P1 P3 114.19(4) 5_556 2_564
Cu1 P1 P3 69.51(3) 5_566 2_564
Cu3 P1 P3 84.30(4) 2_554 2_564
Cu3 P1 P3 32.11(2) 2_564 2_564
Cu1 P1 P3 137.90(4) . 2_564
Cu2 P1 P3 80.17(3) . 2_564
Th1 P1 P3 103.539(19) 2_565 2_564
Th1 P1 P3 149.05(4) 2 2_564
P2 P1 P3 151.041(14) . 2_564
P3 P1 P3 113.44(3) . 2_564
P1 P1 P3 61.530(12) 1_565 2_564
P1 P1 P3 118.470(12) 1_545 2_564
P1 P1 P3 134.68(5) 5_556 2_564
P1 P1 P3 104.34(3) 5_566 2_564
P2 P1 P3 82.79(3) 5_556 2_564
P2 P1 P3 54.54(3) 5_566 2_564
P3 P1 P3 56.94(2) 2_554 2_564
Cu5B P1 P2 91.7(7) . 2_564
Cu5A P1 P2 85.70(12) . 2_564
Cu1 P1 P2 149.41(4) 5_556 2_564
Cu1 P1 P2 96.08(2) 5_566 2_564
Cu3 P1 P2 84.80(4) 2_554 2_564
Cu3 P1 P2 33.54(2) 2_564 2_564
Cu1 P1 P2 139.94(4) . 2_564
Cu2 P1 P2 32.486(17) . 2_564
Th1 P1 P2 67.05(2) 2_565 2_564
Th1 P1 P2 103.27(4) 2 2_564
P2 P1 P2 109.59(3) . 2_564
P3 P1 P2 59.51(3) . 2_564
P1 P1 P2 61.733(12) 1_565 2_564
P1 P1 P2 118.267(12) 1_545 2_564
P1 P1 P2 171.13(6) 5_556 2_564
P1 P1 P2 122.375(15) 5_566 2_564
P2 P1 P2 131.98(3) 5_556 2_564
P2 P1 P2 102.548(18) 5_566 2_564
P3 P1 P2 82.14(3) 2_554 2_564
P3 P1 P2 53.96(3) 2_564 2_564
Cu5B P1 P2 91.7(7) . 2_554
Cu5A P1 P2 85.70(12) . 2_554
Cu1 P1 P2 96.08(2) 5_556 2_554
Cu1 P1 P2 149.41(4) 5_566 2_554
Cu3 P1 P2 33.54(2) 2_554 2_554
Cu3 P1 P2 84.80(4) 2_564 2_554
Cu1 P1 P2 139.94(4) . 2_554
Cu2 P1 P2 32.486(17) . 2_554
Th1 P1 P2 103.27(4) 2_565 2_554
Th1 P1 P2 67.05(2) 2 2_554
P2 P1 P2 109.59(3) . 2_554
P3 P1 P2 59.51(3) . 2_554
P1 P1 P2 118.267(12) 1_565 2_554
P1 P1 P2 61.733(12) 1_545 2_554
P1 P1 P2 122.375(15) 5_556 2_554
P1 P1 P2 171.13(6) 5_566 2_554
P2 P1 P2 102.548(18) 5_556 2_554
P2 P1 P2 131.98(3) 5_566 2_554
P3 P1 P2 53.96(3) 2_554 2_554
P3 P1 P2 82.14(3) 2_564 2_554
P2 P1 P2 56.53(2) 2_564 2_554
Cu5B P1 Th1 65.1(8) . 6_556
Cu5A P1 Th1 71.90(14) . 6_556
Cu1 P1 Th1 52.86(3) 5_556 6_556
Cu1 P1 Th1 52.86(3) 5_566 6_556
Cu3 P1 Th1 110.71(3) 2_554 6_556
Cu3 P1 Th1 110.71(3) 2_564 6_556
Cu1 P1 Th1 52.63(3) . 6_556
Cu2 P1 Th1 173.74(5) . 6_556
Th1 P1 Th1 112.14(3) 2_565 6_556
Th1 P1 Th1 112.14(3) 2 6_556
P2 P1 Th1 90.60(3) . 6_556
P3 P1 Th1 148.16(4) . 6_556
P1 P1 Th1 90.0 1_565 6_556
P1 P1 Th1 90.0 1_545 6_556
P1 P1 Th1 42.59(3) 5_556 6_556
P1 P1 Th1 42.59(3) 5_566 6_556
P2 P1 Th1 41.88(2) 5_556 6_556
P2 P1 Th1 41.88(2) 5_566 6_556
P3 P1 Th1 94.34(3) 2_554 6_556
P3 P1 Th1 94.34(3) 2_564 6_556
P2 P1 Th1 144.18(3) 2_564 6_556
P2 P1 Th1 144.18(3) 2_554 6_556
Cu5B P1 Th1 60.6(8) . .
Cu5A P1 Th1 53.82(13) . .
Cu1 P1 Th1 109.75(3) 5_556 .
Cu1 P1 Th1 109.75(3) 5_566 .
Cu3 P1 Th1 51.66(3) 2_554 .
Cu3 P1 Th1 51.66(3) 2_564 .
Cu1 P1 Th1 178.36(5) . .
Cu2 P1 Th1 48.01(2) . .
Th1 P1 Th1 108.20(3) 2_565 .
Th1 P1 Th1 108.20(3) 2 .
P2 P1 Th1 143.67(4) . .
P3 P1 Th1 86.12(3) . .
P1 P1 Th1 90.0 1_565 .
P1 P1 Th1 90.0 1_545 .
P1 P1 Th1 144.98(3) 5_556 .
P1 P1 Th1 144.98(3) 5_566 .
P2 P1 Th1 93.18(3) 5_556 .
P2 P1 Th1 93.18(3) 5_566 .
P3 P1 Th1 40.960(19) 2_554 .
P3 P1 Th1 40.960(19) 2_564 .
P2 P1 Th1 41.18(2) 2_564 .
P2 P1 Th1 41.18(2) 2_554 .
Th1 P1 Th1 125.73(3) 6_556 .
Cu5B P1 Cu5B 58.74(10) . 1_545
Cu5A P1 Cu5B 58.98(11) . 1_545
Cu1 P1 Cu5B 34.7(4) 5_556 1_545
Cu1 P1 Cu5B 122.7(3) 5_566 1_545
Cu3 P1 Cu5B 33.6(4) 2_554 1_545
Cu3 P1 Cu5B 120.5(3) 2_564 1_545
Cu1 P1 Cu5B 104.0(4) . 1_545
Cu2 P1 Cu5B 99.6(4) . 1_545
Th1 P1 Cu5B 161.83(14) 2_565 1_545
Th1 P1 Cu5B 80.33(10) 2 1_545
P2 P1 Cu5B 118.2(2) . 1_545
P3 P1 Cu5B 115.7(3) . 1_545
P1 P1 Cu5B 148.74(10) 1_565 1_545
P1 P1 Cu5B 31.26(10) 1_545 1_545
P1 P1 Cu5B 69.9(4) 5_556 1_545
P1 P1 Cu5B 118.2(4) 5_566 1_545
P2 P1 Cu5B 37.8(3) 5_556 1_545
P2 P1 Cu5B 91.4(2) 5_566 1_545
P3 P1 Cu5B 36.6(3) 2_554 1_545
P3 P1 Cu5B 90.7(2) 2_564 1_545
P2 P1 Cu5B 114.9(4) 2_564 1_545
P2 P1 Cu5B 67.1(4) 2_554 1_545
Th1 P1 Cu5B 77.4(4) 6_556 1_545
Th1 P1 Cu5B 75.3(4) . 1_545
Cu5B P1 Cu5B 58.74(10) . 1_565
Cu5A P1 Cu5B 58.98(11) . 1_565
Cu1 P1 Cu5B 122.7(3) 5_556 1_565
Cu1 P1 Cu5B 34.7(4) 5_566 1_565
Cu3 P1 Cu5B 120.5(3) 2_554 1_565
Cu3 P1 Cu5B 33.6(4) 2_564 1_565
Cu1 P1 Cu5B 104.0(4) . 1_565
Cu2 P1 Cu5B 99.6(4) . 1_565
Th1 P1 Cu5B 80.33(10) 2_565 1_565
Th1 P1 Cu5B 161.83(14) 2 1_565
P2 P1 Cu5B 118.2(2) . 1_565
P3 P1 Cu5B 115.7(3) . 1_565
P1 P1 Cu5B 31.26(10) 1_565 1_565
P1 P1 Cu5B 148.74(10) 1_545 1_565
P1 P1 Cu5B 118.2(4) 5_556 1_565
P1 P1 Cu5B 69.9(4) 5_566 1_565
P2 P1 Cu5B 91.4(2) 5_556 1_565
P2 P1 Cu5B 37.8(3) 5_566 1_565
P3 P1 Cu5B 90.7(2) 2_554 1_565
P3 P1 Cu5B 36.6(3) 2_564 1_565
P2 P1 Cu5B 67.1(4) 2_564 1_565
P2 P1 Cu5B 114.9(4) 2_554 1_565
Th1 P1 Cu5B 77.4(4) 6_556 1_565
Th1 P1 Cu5B 75.3(4) . 1_565
Cu5B P1 Cu5B 117.5(2) 1_545 1_565
Cu5B P1 Cu5A 58.91(7) . 1_545
Cu5A P1 Cu5A 58.66(3) . 1_545
Cu1 P1 Cu5A 38.08(7) 5_556 1_545
Cu1 P1 Cu5A 125.04(7) 5_566 1_545
Cu3 P1 Cu5A 30.15(7) 2_554 1_545
Cu3 P1 Cu5A 118.36(6) 2_564 1_545
Cu1 P1 Cu5A 107.15(7) . 1_545
Cu2 P1 Cu5A 96.12(7) . 1_545
Th1 P1 Cu5A 160.69(5) 2_565 1_545
Th1 P1 Cu5A 80.01(3) 2 1_545
P2 P1 Cu5A 119.74(4) . 1_545
P3 P1 Cu5A 113.46(6) . 1_545
P1 P1 Cu5A 148.66(3) 1_565 1_545
P1 P1 Cu5A 31.34(3) 1_545 1_545
P1 P1 Cu5A 73.13(6) 5_556 1_545
P1 P1 Cu5A 121.74(8) 5_566 1_545
P2 P1 Cu5A 40.67(6) 5_556 1_545
P2 P1 Cu5A 93.21(5) 5_566 1_545
P3 P1 Cu5A 34.12(5) 2_554 1_545
P3 P1 Cu5A 89.22(4) 2_564 1_545
P2 P1 Cu5A 111.44(7) 2_564 1_545
P2 P1 Cu5A 63.67(7) 2_554 1_545
Th1 P1 Cu5A 80.70(7) 6_556 1_545
Th1 P1 Cu5A 72.12(6) . 1_545
Cu5B P1 Cu5A 3.5(4) 1_545 1_545
Cu5B P1 Cu5A 117.52(8) 1_565 1_545
Cu5B P1 Cu5A 58.91(7) . 1_565
Cu5A P1 Cu5A 58.66(3) . 1_565
Cu1 P1 Cu5A 125.04(7) 5_556 1_565
Cu1 P1 Cu5A 38.08(7) 5_566 1_565
Cu3 P1 Cu5A 118.36(6) 2_554 1_565
Cu3 P1 Cu5A 30.15(7) 2_564 1_565
Cu1 P1 Cu5A 107.15(7) . 1_565
Cu2 P1 Cu5A 96.12(7) . 1_565
Th1 P1 Cu5A 80.01(3) 2_565 1_565
Th1 P1 Cu5A 160.69(5) 2 1_565
P2 P1 Cu5A 119.74(4) . 1_565
P3 P1 Cu5A 113.46(6) . 1_565
P1 P1 Cu5A 31.34(3) 1_565 1_565
P1 P1 Cu5A 148.66(3) 1_545 1_565
P1 P1 Cu5A 121.74(8) 5_556 1_565
P1 P1 Cu5A 73.13(6) 5_566 1_565
P2 P1 Cu5A 93.21(5) 5_556 1_565
P2 P1 Cu5A 40.67(6) 5_566 1_565
P3 P1 Cu5A 89.22(4) 2_554 1_565
P3 P1 Cu5A 34.12(5) 2_564 1_565
P2 P1 Cu5A 63.67(7) 2_564 1_565
P2 P1 Cu5A 111.44(7) 2_554 1_565
Th1 P1 Cu5A 80.70(7) 6_556 1_565
Th1 P1 Cu5A 72.12(6) . 1_565
Cu5B P1 Cu5A 117.52(8) 1_545 1_565
Cu5B P1 Cu5A 3.5(4) 1_565 1_565
Cu5A P1 Cu5A 117.32(7) 1_545 1_565
Cu5B P1 Cu1 104.6(4) . 1_565
Cu5A P1 Cu1 107.90(7) . 1_565
Cu1 P1 Cu1 118.61(4) 5_556 1_565
Cu1 P1 Cu1 30.62(2) 5_566 1_565
Cu3 P1 Cu1 174.28(4) 2_554 1_565
Cu3 P1 Cu1 71.152(16) 2_564 1_565
Cu1 P1 Cu1 57.172(15) . 1_565
Cu2 P1 Cu1 111.97(2) . 1_565
Th1 P1 Cu1 44.916(13) 2_565 1_565
Th1 P1 Cu1 113.02(3) 2 1_565
P2 P1 Cu1 64.698(18) . 1_565
P3 P1 Cu1 92.99(2) . 1_565
P1 P1 Cu1 32.828(15) 1_565 1_565
P1 P1 Cu1 147.172(15) 1_545 1_565
P1 P1 Cu1 87.30(3) 5_556 1_565
P1 P1 Cu1 31.763(11) 5_566 1_565
P2 P1 Cu1 110.92(3) 5_556 1_565
P2 P1 Cu1 63.619(18) 5_566 1_565
P3 P1 Cu1 143.40(3) 2_554 1_565
P3 P1 Cu1 90.097(14) 2_564 1_565
P2 P1 Cu1 90.974(14) 2_564 1_565
P2 P1 Cu1 144.38(3) 2_554 1_565
Th1 P1 Cu1 70.790(18) 6_556 1_565
Th1 P1 Cu1 122.813(15) . 1_565
Cu5B P1 Cu1 148.1(4) 1_545 1_565
Cu5B P1 Cu1 54.0(3) 1_565 1_565
Cu5A P1 Cu1 151.35(7) 1_545 1_565
Cu5A P1 Cu1 56.09(5) 1_565 1_565
Cu5B P1 Cu1 104.6(4) . 1_545
Cu5A P1 Cu1 107.90(7) . 1_545
Cu1 P1 Cu1 30.62(2) 5_556 1_545
Cu1 P1 Cu1 118.61(4) 5_566 1_545
Cu3 P1 Cu1 71.152(16) 2_554 1_545
Cu3 P1 Cu1 174.28(4) 2_564 1_545
Cu1 P1 Cu1 57.172(15) . 1_545
Cu2 P1 Cu1 111.97(2) . 1_545
Th1 P1 Cu1 113.02(3) 2_565 1_545
Th1 P1 Cu1 44.916(13) 2 1_545
P2 P1 Cu1 64.698(18) . 1_545
P3 P1 Cu1 92.99(2) . 1_545
P1 P1 Cu1 147.172(15) 1_565 1_545
P1 P1 Cu1 32.828(15) 1_545 1_545
P1 P1 Cu1 31.763(11) 5_556 1_545
P1 P1 Cu1 87.30(3) 5_566 1_545
P2 P1 Cu1 63.619(18) 5_556 1_545
P2 P1 Cu1 110.92(3) 5_566 1_545
P3 P1 Cu1 90.096(14) 2_554 1_545
P3 P1 Cu1 143.40(3) 2_564 1_545
P2 P1 Cu1 144.38(3) 2_564 1_545
P2 P1 Cu1 90.974(14) 2_554 1_545
Th1 P1 Cu1 70.790(18) 6_556 1_545
Th1 P1 Cu1 122.813(15) . 1_545
Cu5B P1 Cu1 54.0(3) 1_545 1_545
Cu5B P1 Cu1 148.1(4) 1_565 1_545
Cu5A P1 Cu1 56.09(5) 1_545 1_545
Cu5A P1 Cu1 151.35(7) 1_565 1_545
Cu1 P1 Cu1 114.34(3) 1_565 1_545
Cu5B P1 Cu4 122.4(7) . 5_666
Cu5A P1 Cu4 116.39(12) . 5_666
Cu1 P1 Cu4 151.04(3) 5_556 5_666
Cu1 P1 Cu4 101.94(2) 5_566 5_666
Cu3 P1 Cu4 95.96(4) 2_554 5_666
Cu3 P1 Cu4 56.38(3) 2_564 5_666
Cu1 P1 Cu4 113.58(4) . 5_666
Cu2 P1 Cu4 30.006(14) . 5_666
Th1 P1 Cu4 43.472(18) 2_565 5_666
Th1 P1 Cu4 79.78(3) 2 5_666
P2 P1 Cu4 79.28(3) . 5_666
P3 P1 Cu4 31.819(15) . 5_666
P1 P1 Cu4 65.218(7) 1_565 5_666
P1 P1 Cu4 114.782(7) 1_545 5_666
P1 P1 Cu4 140.47(5) 5_556 5_666
P1 P1 Cu4 111.76(3) 5_566 5_666
P2 P1 Cu4 160.99(4) 5_556 5_666
P2 P1 Cu4 123.075(15) 5_566 5_666
P3 P1 Cu4 106.69(3) 2_554 5_666
P3 P1 Cu4 83.54(3) 2_564 5_666
P2 P1 Cu4 30.70(2) 2_564 5_666
P2 P1 Cu4 62.43(2) 2_554 5_666
Th1 P1 Cu4 152.943(15) 6_556 5_666
Th1 P1 Cu4 67.88(2) . 5_666
Cu5B P1 Cu4 129.5(4) 1_545 5_666
Cu5B P1 Cu4 85.4(3) 1_565 5_666
Cu5A P1 Cu4 126.10(7) 1_545 5_666
Cu5A P1 Cu4 82.72(6) 1_565 5_666
Cu1 P1 Cu4 82.222(14) 1_565 5_666
Cu1 P1 Cu4 124.69(3) 1_545 5_666
Cu5B P1 Cu4 122.4(7) . 5_656
Cu5A P1 Cu4 116.39(12) . 5_656
Cu1 P1 Cu4 101.94(2) 5_556 5_656
Cu1 P1 Cu4 151.04(3) 5_566 5_656
Cu3 P1 Cu4 56.38(3) 2_554 5_656
Cu3 P1 Cu4 95.96(4) 2_564 5_656
Cu1 P1 Cu4 113.58(4) . 5_656
Cu2 P1 Cu4 30.006(14) . 5_656
Th1 P1 Cu4 79.78(3) 2_565 5_656
Th1 P1 Cu4 43.472(18) 2 5_656
P2 P1 Cu4 79.28(3) . 5_656
P3 P1 Cu4 31.819(15) . 5_656
P1 P1 Cu4 114.782(7) 1_565 5_656
P1 P1 Cu4 65.218(7) 1_545 5_656
P1 P1 Cu4 111.76(3) 5_556 5_656
P1 P1 Cu4 140.47(5) 5_566 5_656
P2 P1 Cu4 123.075(15) 5_556 5_656
P2 P1 Cu4 160.99(4) 5_566 5_656
P3 P1 Cu4 83.54(3) 2_554 5_656
P3 P1 Cu4 106.69(3) 2_564 5_656
P2 P1 Cu4 62.43(2) 2_564 5_656
P2 P1 Cu4 30.70(2) 2_554 5_656
Th1 P1 Cu4 152.943(15) 6_556 5_656
Th1 P1 Cu4 67.88(2) . 5_656
Cu5B P1 Cu4 85.4(3) 1_545 5_656
Cu5B P1 Cu4 129.5(4) 1_565 5_656
Cu5A P1 Cu4 82.72(6) 1_545 5_656
Cu5A P1 Cu4 126.10(7) 1_565 5_656
Cu1 P1 Cu4 124.69(3) 1_565 5_656
Cu1 P1 Cu4 82.222(14) 1_545 5_656
Cu4 P1 Cu4 49.564(15) 5_666 5_656
Cu5B P1 Cu2 100.2(4) . 1_565
Cu5A P1 Cu2 96.54(8) . 1_565
Cu1 P1 Cu2 174.24(4) 5_556 1_565
Cu1 P1 Cu2 70.682(17) 5_566 1_565
Cu3 P1 Cu2 115.24(4) 2_554 1_565
Cu3 P1 Cu2 28.55(2) 2_564 1_565
Cu1 P1 Cu2 112.52(2) . 1_565
Cu2 P1 Cu2 56.284(15) . 1_565
Th1 P1 Cu2 44.578(13) 2_565 1_565
Th1 P1 Cu2 112.07(3) 2 1_565
P2 P1 Cu2 93.14(2) . 1_565
P3 P1 Cu2 64.102(18) . 1_565
P1 P1 Cu2 33.716(15) 1_565 1_565
P1 P1 Cu2 146.284(15) 1_545 1_565
P1 P1 Cu2 146.38(4) 5_556 1_565
P1 P1 Cu2 92.165(12) 5_566 1_565
P2 P1 Cu2 141.18(3) 5_556 1_565
P2 P1 Cu2 89.193(15) 5_566 1_565
P3 P1 Cu2 107.56(3) 2_554 1_565
P3 P1 Cu2 60.573(18) 2_564 1_565
P2 P1 Cu2 30.442(13) 2_564 1_565
P2 P1 Cu2 85.74(2) 2_554 1_565
Th1 P1 Cu2 123.488(15) 6_556 1_565
Th1 P1 Cu2 68.201(17) . 1_565
Cu5B P1 Cu2 143.4(4) 1_545 1_565
Cu5B P1 Cu2 51.8(3) 1_565 1_565
Cu5A P1 Cu2 140.32(7) 1_545 1_565
Cu5A P1 Cu2 49.37(5) 1_565 1_565
Cu1 P1 Cu2 60.572(10) 1_565 1_565
Cu1 P1 Cu2 155.04(3) 1_545 1_565
Cu4 P1 Cu2 33.969(11) 5_666 1_565
Cu4 P1 Cu2 82.41(2) 5_656 1_565
Cu5B P1 Cu2 100.2(4) . 1_545
Cu5A P1 Cu2 96.54(8) . 1_545
Cu1 P1 Cu2 70.682(17) 5_556 1_545
Cu1 P1 Cu2 174.24(4) 5_566 1_545
Cu3 P1 Cu2 28.55(2) 2_554 1_545
Cu3 P1 Cu2 115.24(4) 2_564 1_545
Cu1 P1 Cu2 112.52(2) . 1_545
Cu2 P1 Cu2 56.284(15) . 1_545
Th1 P1 Cu2 112.07(3) 2_565 1_545
Th1 P1 Cu2 44.578(13) 2 1_545
P2 P1 Cu2 93.14(2) . 1_545
P3 P1 Cu2 64.102(18) . 1_545
P1 P1 Cu2 146.284(15) 1_565 1_545
P1 P1 Cu2 33.716(15) 1_545 1_545
P1 P1 Cu2 92.165(12) 5_556 1_545
P1 P1 Cu2 146.38(4) 5_566 1_545
P2 P1 Cu2 89.193(15) 5_556 1_545
P2 P1 Cu2 141.18(3) 5_566 1_545
P3 P1 Cu2 60.573(18) 2_554 1_545
P3 P1 Cu2 107.56(3) 2_564 1_545
P2 P1 Cu2 85.74(2) 2_564 1_545
P2 P1 Cu2 30.442(13) 2_554 1_545
Th1 P1 Cu2 123.488(15) 6_556 1_545
Th1 P1 Cu2 68.201(17) . 1_545
Cu5B P1 Cu2 51.8(3) 1_545 1_545
Cu5B P1 Cu2 143.4(4) 1_565 1_545
Cu5A P1 Cu2 49.37(5) 1_545 1_545
Cu5A P1 Cu2 140.32(7) 1_565 1_545
Cu1 P1 Cu2 155.04(3) 1_565 1_545
Cu1 P1 Cu2 60.572(10) 1_545 1_545
Cu4 P1 Cu2 82.41(2) 5_666 1_545
Cu4 P1 Cu2 33.969(11) 5_656 1_545
Cu2 P1 Cu2 112.57(3) 1_565 1_545
Cu5B P1 Cu2 24.7(8) . 6_556
Cu5A P1 Cu2 31.55(13) . 6_556
Cu1 P1 Cu2 61.85(3) 5_556 6_556
Cu1 P1 Cu2 61.85(3) 5_566 6_556
Cu3 P1 Cu2 86.53(3) 2_554 6_556
Cu3 P1 Cu2 86.53(3) 2_564 6_556
Cu1 P1 Cu2 92.99(4) . 6_556
Cu2 P1 Cu2 133.38(4) . 6_556
Th1 P1 Cu2 135.39(2) 2_565 6_556
Th1 P1 Cu2 135.39(2) 2 6_556
P2 P1 Cu2 130.95(4) . 6_556
P3 P1 Cu2 171.49(4) . 6_556
P1 P1 Cu2 90.0 1_565 6_556
P1 P1 Cu2 90.0 1_545 6_556
P1 P1 Cu2 75.48(4) 5_556 6_556
P1 P1 Cu2 75.48(4) 5_566 6_556
P2 P1 Cu2 29.551(13) 5_556 6_556
P2 P1 Cu2 29.551(13) 5_566 6_556
P3 P1 Cu2 59.37(2) 2_554 6_556
P3 P1 Cu2 59.37(2) 2_564 6_556
P2 P1 Cu2 113.28(3) 2_564 6_556
P2 P1 Cu2 113.28(3) 2_554 6_556
Th1 P1 Cu2 40.355(14) 6_556 6_556
Th1 P1 Cu2 85.37(2) . 6_556
Cu5B P1 Cu2 61.9(2) 1_545 6_556
Cu5B P1 Cu2 61.9(2) 1_565 6_556
Cu5A P1 Cu2 63.69(5) 1_545 6_556
Cu5A P1 Cu2 63.69(5) 1_565 6_556
Cu1 P1 Cu2 91.62(2) 1_565 6_556
Cu1 P1 Cu2 91.62(2) 1_545 6_556
Cu4 P1 Cu2 142.47(2) 5_666 6_556
Cu4 P1 Cu2 142.47(2) 5_656 6_556
Cu2 P1 Cu2 112.412(17) 1_565 6_556
Cu2 P1 Cu2 112.412(18) 1_545 6_556
Cu5B P1 Cu4 20.1(8) . 6_556
Cu5A P1 Cu4 13.32(13) . 6_556
Cu1 P1 Cu4 86.09(3) 5_556 6_556
Cu1 P1 Cu4 86.09(3) 5_566 6_556
Cu3 P1 Cu4 61.41(3) 2_554 6_556
Cu3 P1 Cu4 61.41(3) 2_564 6_556
Cu1 P1 Cu4 137.86(4) . 6_556
Cu2 P1 Cu4 88.51(3) . 6_556
Th1 P1 Cu4 133.23(2) 2_565 6_556
Th1 P1 Cu4 133.23(2) 2 6_556
P2 P1 Cu4 175.82(4) . 6_556
P3 P1 Cu4 126.62(4) . 6_556
P1 P1 Cu4 90.0 1_565 6_556
P1 P1 Cu4 90.0 1_545 6_556
P1 P1 Cu4 114.60(4) 5_556 6_556
P1 P1 Cu4 114.60(4) 5_566 6_556
P2 P1 Cu4 58.16(2) 5_556 6_556
P2 P1 Cu4 58.16(2) 5_566 6_556
P3 P1 Cu4 29.950(13) 2_554 6_556
P3 P1 Cu4 29.950(13) 2_564 6_556
P2 P1 Cu4 74.03(3) 2_564 6_556
P2 P1 Cu4 74.03(3) 2_554 6_556
Th1 P1 Cu4 85.22(2) 6_556 6_556
Th1 P1 Cu4 40.504(13) . 6_556
Cu5B P1 Cu4 60.84(19) 1_545 6_556
Cu5B P1 Cu4 60.84(19) 1_565 6_556
Cu5A P1 Cu4 59.59(4) 1_545 6_556
Cu5A P1 Cu4 59.59(4) 1_565 6_556
Cu1 P1 Cu4 113.702(18) 1_565 6_556
Cu1 P1 Cu4 113.702(18) 1_545 6_556
Cu4 P1 Cu4 104.49(3) 5_666 6_556
Cu4 P1 Cu4 104.49(3) 5_656 6_556
Cu2 P1 Cu4 89.175(19) 1_565 6_556
Cu2 P1 Cu4 89.175(19) 1_545 6_556
Cu2 P1 Cu4 44.870(15) 6_556 6_556
Cu5B P1 Cu4 23.40(5) . 2_554
Cu5A P1 Cu4 24.68(4) . 2_554
Cu1 P1 Cu4 54.79(3) 5_556 2_554
Cu1 P1 Cu4 93.17(4) 5_566 2_554
Cu3 P1 Cu4 54.10(3) 2_554 2_554
Cu3 P1 Cu4 92.03(4) 2_564 2_554
Cu1 P1 Cu4 114.01(4) . 2_554
Cu2 P1 Cu4 108.35(4) . 2_554
Th1 P1 Cu4 162.25(2) 2_565 2_554
Th1 P1 Cu4 115.713(11) 2 2_554
P2 P1 Cu4 145.80(3) . 2_554
P3 P1 Cu4 141.26(3) . 2_554
P1 P1 Cu4 113.356(7) 1_565 2_554
P1 P1 Cu4 66.645(7) 1_545 2_554
P1 P1 Cu4 84.56(3) 5_556 2_554
P1 P1 Cu4 106.50(4) 5_566 2_554
P2 P1 Cu4 28.77(2) 5_556 2_554
P2 P1 Cu4 60.10(2) 5_566 2_554
P3 P1 Cu4 28.49(2) 2_554 2_554
P3 P1 Cu4 59.94(2) 2_564 2_554
P2 P1 Cu4 103.58(3) 2_564 2_554
P2 P1 Cu4 81.91(3) 2_554 2_554
Th1 P1 Cu4 65.981(18) 6_556 2_554
Th1 P1 Cu4 64.512(18) . 2_554
Cu5B P1 Cu4 35.40(10) 1_545 2_554
Cu5B P1 Cu4 82.10(10) 1_565 2_554
Cu5A P1 Cu4 35.79(4) 1_545 2_554
Cu5A P1 Cu4 82.30(4) 1_565 2_554
Cu1 P1 Cu4 123.62(3) 1_565 2_554
Cu1 P1 Cu4 83.541(15) 1_545 2_554
Cu4 P1 Cu4 132.38(3) 5_666 2_554
Cu4 P1 Cu4 109.980(19) 5_656 2_554
Cu2 P1 Cu4 120.30(3) 1_565 2_554
Cu2 P1 Cu4 81.084(14) 1_545 2_554
Cu2 P1 Cu4 32.539(11) 6_556 2_554
Cu4 P1 Cu4 31.359(12) 6_556 2_554
Cu5B P1 Cu4 23.40(5) . 2_564
Cu5A P1 Cu4 24.68(4) . 2_564
Cu1 P1 Cu4 93.17(4) 5_556 2_564
Cu1 P1 Cu4 54.79(3) 5_566 2_564
Cu3 P1 Cu4 92.03(4) 2_554 2_564
Cu3 P1 Cu4 54.10(3) 2_564 2_564
Cu1 P1 Cu4 114.01(4) . 2_564
Cu2 P1 Cu4 108.35(4) . 2_564
Th1 P1 Cu4 115.713(11) 2_565 2_564
Th1 P1 Cu4 162.25(2) 2 2_564
P2 P1 Cu4 145.80(3) . 2_564
P3 P1 Cu4 141.26(3) . 2_564
P1 P1 Cu4 66.645(7) 1_565 2_564
P1 P1 Cu4 113.356(7) 1_545 2_564
P1 P1 Cu4 106.50(4) 5_556 2_564
P1 P1 Cu4 84.56(3) 5_566 2_564
P2 P1 Cu4 60.10(2) 5_556 2_564
P2 P1 Cu4 28.77(2) 5_566 2_564
P3 P1 Cu4 59.94(2) 2_554 2_564
P3 P1 Cu4 28.49(2) 2_564 2_564
P2 P1 Cu4 81.91(3) 2_564 2_564
P2 P1 Cu4 103.58(3) 2_554 2_564
Th1 P1 Cu4 65.981(18) 6_556 2_564
Th1 P1 Cu4 64.512(18) . 2_564
Cu5B P1 Cu4 82.10(10) 1_545 2_564
Cu5B P1 Cu4 35.40(10) 1_565 2_564
Cu5A P1 Cu4 82.30(4) 1_545 2_564
Cu5A P1 Cu4 35.79(4) 1_565 2_564
Cu1 P1 Cu4 83.541(15) 1_565 2_564
Cu1 P1 Cu4 123.62(3) 1_545 2_564
Cu4 P1 Cu4 109.980(19) 5_666 2_564
Cu4 P1 Cu4 132.38(3) 5_656 2_564
Cu2 P1 Cu4 81.084(14) 1_565 2_564
Cu2 P1 Cu4 120.30(3) 1_545 2_564
Cu2 P1 Cu4 32.539(11) 6_556 2_564
Cu4 P1 Cu4 31.359(12) 6_556 2_564
Cu4 P1 Cu4 46.711(13) 2_554 2_564
Cu5B P1 Cu3 174.9(8) . .
Cu5A P1 Cu3 168.12(14) . .
Cu1 P1 Cu3 108.50(3) 5_556 .
Cu1 P1 Cu3 108.50(3) 5_566 .
Cu3 P1 Cu3 105.36(3) 2_554 .
Cu3 P1 Cu3 105.36(3) 2_564 .
Cu1 P1 Cu3 67.34(3) . .
Cu2 P1 Cu3 66.29(3) . .
Th1 P1 Cu3 40.846(16) 2_565 .
Th1 P1 Cu3 40.846(16) 2 .
P2 P1 Cu3 29.37(2) . .
P3 P1 Cu3 28.18(2) . .
P1 P1 Cu3 90.0 1_565 .
P1 P1 Cu3 90.0 1_545 .
P1 P1 Cu3 87.29(4) 5_556 .
P1 P1 Cu3 87.29(4) 5_566 .
P2 P1 Cu3 140.96(3) 5_556 .
P2 P1 Cu3 140.96(3) 5_566 .
P3 P1 Cu3 136.13(3) 2_554 .
P3 P1 Cu3 136.13(3) 2_564 .
P2 P1 Cu3 83.84(3) 2_564 .
P2 P1 Cu3 83.84(3) 2_554 .
Th1 P1 Cu3 119.97(3) 6_556 .
Th1 P1 Cu3 114.30(3) . .
Cu5B P1 Cu3 121.13(11) 1_545 .
Cu5B P1 Cu3 121.13(11) 1_565 .
Cu5A P1 Cu3 120.60(4) 1_545 .
Cu5A P1 Cu3 120.60(4) 1_565 .
Cu1 P1 Cu3 77.944(18) 1_565 .
Cu1 P1 Cu3 77.944(18) 1_545 .
Cu4 P1 Cu3 53.277(17) 5_666 .
Cu4 P1 Cu3 53.277(17) 5_656 .
Cu2 P1 Cu3 77.103(19) 1_565 .
Cu2 P1 Cu3 77.103(19) 1_545 .
Cu2 P1 Cu3 160.33(3) 6_556 .
Cu4 P1 Cu3 154.80(3) 6_556 .
Cu4 P1 Cu3 156.376(8) 2_554 .
Cu4 P1 Cu3 156.376(8) 2_564 .
Cu5B P1 Cu5B 125.4(5) . 5_566
Cu5A P1 Cu5B 131.28(18) . 5_566
Cu1 P1 Cu5B 94.8(2) 5_556 5_566
Cu1 P1 Cu5B 57.18(11) 5_566 5_566
Cu3 P1 Cu5B 150.69(9) 2_554 5_566
Cu3 P1 Cu5B 104.84(15) 2_564 5_566
Cu1 P1 Cu5B 25.6(2) . 5_566
Cu2 P1 Cu5B 119.5(3) . 5_566
Th1 P1 Cu5B 49.7(3) 2_565 5_566
Th1 P1 Cu5B 82.37(10) 2 5_566
P2 P1 Cu5B 34.73(15) . 5_566
P3 P1 Cu5B 84.7(3) . 5_566
P1 P1 Cu5B 66.88(12) 1_565 5_566
P1 P1 Cu5B 113.12(13) 1_545 5_566
P1 P1 Cu5B 59.6(2) 5_556 5_566
P1 P1 Cu5B 28.2(2) 5_566 5_566
P2 P1 Cu5B 105.8(3) 5_556 5_566
P2 P1 Cu5B 84.14(19) 5_566 5_566
P3 P1 Cu5B 160.3(3) 2_554 5_566
P3 P1 Cu5B 124.54(6) 2_564 5_566
P2 P1 Cu5B 115.2(3) 2_564 5_566
P2 P1 Cu5B 142.9(2) 2_554 5_566
Th1 P1 Cu5B 66.2(3) 6_556 5_566
Th1 P1 Cu5B 155.0(2) . 5_566
Cu5B P1 Cu5B 129.50(18) 1_545 5_566
Cu5B P1 Cu5B 88.0(3) 1_565 5_566
Cu5A P1 Cu5B 132.7(2) 1_545 5_566
Cu5A P1 Cu5B 90.45(7) 1_565 5_566
Cu1 P1 Cu5B 35.03(8) 1_565 5_566
Cu1 P1 Cu5B 80.85(15) 1_545 5_566
Cu4 P1 Cu5B 92.8(3) 5_666 5_566
Cu4 P1 Cu5B 112.2(2) 5_656 5_566
Cu2 P1 Cu5B 86.9(2) 1_565 5_566
Cu2 P1 Cu5B 126.84(9) 1_545 5_566
Cu2 P1 Cu5B 103.1(3) 6_556 5_566
Cu4 P1 Cu5B 142.15(17) 6_556 5_566
Cu4 P1 Cu5B 132.1(3) 2_554 5_566
Cu4 P1 Cu5B 111.08(15) 2_564 5_566
Cu3 P1 Cu5B 59.1(2) . 5_566
Cu2 P2 Cu2 110.26(5) 2_565 2
Cu2 P2 Cu4 70.05(3) 2_565 6_557
Cu2 P2 Cu4 70.05(3) 2 6_557
Cu2 P2 Cu1 123.90(3) 2_565 .
Cu2 P2 Cu1 123.90(3) 2 .
Cu4 P2 Cu1 113.96(5) 6_557 .
Cu2 P2 Cu3 69.85(3) 2_565 .
Cu2 P2 Cu3 69.85(3) 2 .
Cu4 P2 Cu3 106.31(5) 6_557 .
Cu1 P2 Cu3 139.72(6) . .
Cu2 P2 Cu5B 135.3(5) 2_565 5_556
Cu2 P2 Cu5B 65.4(3) 2 5_556
Cu4 P2 Cu5B 67.0(4) 6_557 5_556
Cu1 P2 Cu5B 66.41(18) . 5_556
Cu3 P2 Cu5B 134.2(4) . 5_556
Cu2 P2 Cu5B 65.4(3) 2_565 5_566
Cu2 P2 Cu5B 135.3(5) 2 5_566
Cu4 P2 Cu5B 67.0(4) 6_557 5_566
Cu1 P2 Cu5B 66.41(18) . 5_566
Cu3 P2 Cu5B 134.2(4) . 5_566
Cu5B P2 Cu5B 86.8(9) 5_556 5_566
Cu2 P2 Th1 141.09(5) 2_565 2
Cu2 P2 Th1 71.87(2) 2 2
Cu4 P2 Th1 138.279(17) 6_557 2
Cu1 P2 Th1 74.88(3) . 2
Cu3 P2 Th1 75.29(3) . 2
Cu5B P2 Th1 82.2(5) 5_556 2
Cu5B P2 Th1 141.0(2) 5_566 2
Cu2 P2 Th1 71.87(2) 2_565 2_565
Cu2 P2 Th1 141.09(5) 2 2_565
Cu4 P2 Th1 138.279(17) 6_557 2_565
Cu1 P2 Th1 74.88(3) . 2_565
Cu3 P2 Th1 75.29(3) . 2_565
Cu5B P2 Th1 141.0(2) 5_556 2_565
Cu5B P2 Th1 82.2(5) 5_566 2_565
Th1 P2 Th1 83.20(3) 2 2_565
Cu2 P2 Cu5A 131.87(8) 2_565 5_556
Cu2 P2 Cu5A 67.37(6) 2 5_556
Cu4 P2 Cu5A 64.20(7) 6_557 5_556
Cu1 P2 Cu5A 66.38(6) . 5_556
Cu3 P2 Cu5A 136.78(6) . 5_556
Cu5B P2 Cu5A 3.8(5) 5_556 5_556
Cu5B P2 Cu5A 83.3(5) 5_566 5_556
Th1 P2 Cu5A 85.89(7) 2 5_556
Th1 P2 Cu5A 141.25(7) 2_565 5_556
Cu2 P2 Cu5A 67.37(6) 2_565 5_566
Cu2 P2 Cu5A 131.87(8) 2 5_566
Cu4 P2 Cu5A 64.20(7) 6_557 5_566
Cu1 P2 Cu5A 66.38(6) . 5_566
Cu3 P2 Cu5A 136.78(6) . 5_566
Cu5B P2 Cu5A 83.3(5) 5_556 5_566
Cu5B P2 Cu5A 3.8(5) 5_566 5_566
Th1 P2 Cu5A 141.25(7) 2 5_566
Th1 P2 Cu5A 85.89(7) 2_565 5_566
Cu5A P2 Cu5A 79.77(13) 5_556 5_566
Cu2 P2 P3 91.14(4) 2_565 .
Cu2 P2 P3 91.14(4) 2 .
Cu4 P2 P3 145.34(5) 6_557 .
Cu1 P2 P3 100.69(4) . .
Cu3 P2 P3 39.03(3) . .
Cu5B P2 P3 132.1(5) 5_556 .
Cu5B P2 P3 132.1(5) 5_566 .
Th1 P2 P3 50.19(2) 2 .
Th1 P2 P3 50.19(2) 2_565 .
Cu5A P2 P3 135.84(7) 5_556 .
Cu5A P2 P3 135.84(7) 5_566 .
Cu2 P2 P3 90.49(4) 2_565 6_557
Cu2 P2 P3 90.49(4) 2 6_557
Cu4 P2 P3 37.50(3) 6_557 6_557
Cu1 P2 P3 76.47(4) . 6_557
Cu3 P2 P3 143.81(5) . 6_557
Cu5B P2 P3 46.9(5) 5_556 6_557
Cu5B P2 P3 46.9(5) 5_566 6_557
Th1 P2 P3 128.34(3) 2 6_557
Th1 P2 P3 128.34(3) 2_565 6_557
Cu5A P2 P3 43.11(7) 5_556 6_557
Cu5A P2 P3 43.11(7) 5_566 6_557
P3 P2 P3 177.16(4) . 6_557
Cu2 P2 P1 120.70(3) 2_565 .
Cu2 P2 P1 120.70(3) 2 .
Cu4 P2 P1 153.39(5) 6_557 .
Cu1 P2 P1 39.43(3) . .
Cu3 P2 P1 100.30(4) . .
Cu5B P2 P1 94.3(3) 5_556 .
Cu5B P2 P1 94.3(3) 5_566 .
Th1 P2 P1 49.71(2) 2 .
Th1 P2 P1 49.71(2) 2_565 .
Cu5A P2 P1 96.09(7) 5_556 .
Cu5A P2 P1 96.09(7) 5_566 .
P3 P2 P1 61.27(3) . .
P3 P2 P1 115.89(4) 6_557 .
Cu2 P2 P2 34.87(3) 2_565 1_565
Cu2 P2 P2 145.13(3) 2 1_565
Cu4 P2 P2 90.0 6_557 1_565
Cu1 P2 P2 90.0 . 1_565
Cu3 P2 P2 90.0 . 1_565
Cu5B P2 P2 133.4(5) 5_556 1_565
Cu5B P2 P2 46.6(5) 5_566 1_565
Th1 P2 P2 131.598(16) 2 1_565
Th1 P2 P2 48.402(17) 2_565 1_565
Cu5A P2 P2 129.89(7) 5_556 1_565
Cu5A P2 P2 50.11(7) 5_566 1_565
P3 P2 P2 90.0 . 1_565
P3 P2 P2 90.0 6_557 1_565
P1 P2 P2 90.0 . 1_565
Cu2 P2 P2 145.13(3) 2_565 1_545
Cu2 P2 P2 34.87(3) 2 1_545
Cu4 P2 P2 90.0 6_557 1_545
Cu1 P2 P2 90.0 . 1_545
Cu3 P2 P2 90.0 . 1_545
Cu5B P2 P2 46.6(5) 5_556 1_545
Cu5B P2 P2 133.4(5) 5_566 1_545
Th1 P2 P2 48.402(17) 2 1_545
Th1 P2 P2 131.598(17) 2_565 1_545
Cu5A P2 P2 50.11(7) 5_556 1_545
Cu5A P2 P2 129.89(7) 5_566 1_545
P3 P2 P2 90.0 . 1_545
P3 P2 P2 90.0 6_557 1_545
P1 P2 P2 90.0 . 1_545
P2 P2 P2 180.0 1_565 1_545
Cu2 P2 P3 34.72(3) 2_565 2_565
Cu2 P2 P3 89.09(4) 2 2_565
Cu4 P2 P3 35.39(2) 6_557 2_565
Cu1 P2 P3 127.70(4) . 2_565
Cu3 P2 P3 86.25(4) . 2_565
Cu5B P2 P3 101.9(4) 5_556 2_565
Cu5B P2 P3 62.0(2) 5_566 2_565
Th1 P2 P3 156.99(4) 2 2_565
Th1 P2 P3 105.557(16) 2_565 2_565
Cu5A P2 P3 98.86(7) 5_556 2_565
Cu5A P2 P3 61.58(6) 5_566 2_565
P3 P2 P3 119.75(3) . 2_565
P3 P2 P3 62.61(3) 6_557 2_565
P1 P2 P3 150.031(15) . 2_565
P2 P2 P3 60.580(12) 1_565 2_565
P2 P2 P3 119.419(12) 1_545 2_565
Cu2 P2 P3 89.09(4) 2_565 2
Cu2 P2 P3 34.72(3) 2 2
Cu4 P2 P3 35.39(2) 6_557 2
Cu1 P2 P3 127.70(4) . 2
Cu3 P2 P3 86.25(4) . 2
Cu5B P2 P3 62.0(2) 5_556 2
Cu5B P2 P3 101.9(4) 5_566 2
Th1 P2 P3 105.557(16) 2 2
Th1 P2 P3 156.99(4) 2_565 2
Cu5A P2 P3 61.58(6) 5_556 2
Cu5A P2 P3 98.86(7) 5_566 2
P3 P2 P3 119.75(3) . 2
P3 P2 P3 62.61(3) 6_557 2
P1 P2 P3 150.031(15) . 2
P2 P2 P3 119.419(12) 1_565 2
P2 P2 P3 60.581(12) 1_545 2
P3 P2 P3 58.84(2) 2_565 2
Cu2 P2 Cu3 109.96(3) 2_565 6_557
Cu2 P2 Cu3 109.96(3) 2 6_557
Cu4 P2 Cu3 73.30(3) 6_557 6_557
Cu1 P2 Cu3 40.66(3) . 6_557
Cu3 P2 Cu3 179.61(5) . 6_557
Cu5B P2 Cu3 45.7(4) 5_556 6_557
Cu5B P2 Cu3 45.7(4) 5_566 6_557
Th1 P2 Cu3 105.00(3) 2 6_557
Th1 P2 Cu3 105.00(3) 2_565 6_557
Cu5A P2 Cu3 43.09(6) 5_556 6_557
Cu5A P2 Cu3 43.09(6) 5_566 6_557
P3 P2 Cu3 141.36(4) . 6_557
P3 P2 Cu3 35.80(2) 6_557 6_557
P1 P2 Cu3 80.09(3) . 6_557
P2 P2 Cu3 90.0 1_565 6_557
P2 P2 Cu3 90.0 1_545 6_557
P3 P2 Cu3 93.41(3) 2_565 6_557
P3 P2 Cu3 93.41(3) 2 6_557
Cu2 P2 Th1 55.13(3) 2_565 1_556
Cu2 P2 Th1 55.13(3) 2 1_556
Cu4 P2 Th1 53.07(3) 6_557 1_556
Cu1 P2 Th1 167.04(5) . 1_556
Cu3 P2 Th1 53.24(3) . 1_556
Cu5B P2 Th1 104.7(2) 5_556 1_556
Cu5B P2 Th1 104.7(2) 5_566 1_556
Th1 P2 Th1 114.30(3) 2 1_556
Th1 P2 Th1 114.30(3) 2_565 1_556
Cu5A P2 Th1 104.10(6) 5_556 1_556
Cu5A P2 Th1 104.10(6) 5_566 1_556
P3 P2 Th1 92.27(3) . 1_556
P3 P2 Th1 90.57(3) 6_557 1_556
P1 P2 Th1 153.54(4) . 1_556
P2 P2 Th1 90.0 1_565 1_556
P2 P2 Th1 90.0 1_545 1_556
P3 P2 Th1 42.69(2) 2_565 1_556
P3 P2 Th1 42.69(2) 2 1_556
Cu3 P2 Th1 126.37(3) 6_557 1_556
Cu2 P2 P1 145.49(4) 2_565 5_556
Cu2 P2 P1 92.38(2) 2 5_556
Cu4 P2 P1 95.36(4) 6_557 5_556
Cu1 P2 P1 33.216(19) . 5_556
Cu3 P2 P1 144.35(3) . 5_556
Cu5B P2 P1 34.3(2) 5_556 5_556
Cu5B P2 P1 80.2(3) 5_566 5_556
Th1 P2 P1 69.77(2) 2 5_556
Th1 P2 P1 106.70(4) 2_565 5_556
Cu5A P2 P1 35.17(6) 5_556 5_556
Cu5A P2 P1 78.12(6) 5_566 5_556
P3 P2 P1 114.85(3) . 5_556
P3 P2 P1 62.74(3) 6_557 5_556
P1 P2 P1 61.64(3) . 5_556
P2 P2 P1 118.478(12) 1_565 5_556
P2 P2 P1 61.523(12) 1_545 5_556
P3 P2 P1 125.34(4) 2_565 5_556
P3 P2 P1 96.32(3) 2 5_556
Cu3 P2 P1 35.872(18) 6_557 5_556
Th1 P2 P1 139.01(3) 1_556 5_556
Cu2 P2 P1 92.38(2) 2_565 5_566
Cu2 P2 P1 145.49(4) 2 5_566
Cu4 P2 P1 95.36(4) 6_557 5_566
Cu1 P2 P1 33.216(19) . 5_566
Cu3 P2 P1 144.35(3) . 5_566
Cu5B P2 P1 80.2(3) 5_556 5_566
Cu5B P2 P1 34.3(2) 5_566 5_566
Th1 P2 P1 106.70(4) 2 5_566
Th1 P2 P1 69.77(2) 2_565 5_566
Cu5A P2 P1 78.12(6) 5_556 5_566
Cu5A P2 P1 35.17(6) 5_566 5_566
P3 P2 P1 114.85(3) . 5_566
P3 P2 P1 62.74(3) 6_557 5_566
P1 P2 P1 61.64(3) . 5_566
P2 P2 P1 61.523(12) 1_565 5_566
P2 P2 P1 118.478(12) 1_545 5_566
P3 P2 P1 96.32(3) 2_565 5_566
P3 P2 P1 125.34(4) 2 5_566
Cu3 P2 P1 35.872(18) 6_557 5_566
Th1 P2 P1 139.01(3) 1_556 5_566
P1 P2 P1 56.96(2) 5_556 5_566
Cu2 P2 P1 36.02(3) 2_565 2_565
Cu2 P2 P1 88.18(4) 2 2_565
Cu4 P2 P1 87.17(4) 6_557 2_565
Cu1 P2 P1 145.45(3) . 2_565
Cu3 P2 P1 33.891(19) . 2_565
Cu5B P2 P1 147.6(2) 5_556 2_565
Cu5B P2 P1 101.1(3) 5_566 2_565
Th1 P2 P1 108.10(4) 2 2_565
Th1 P2 P1 71.44(2) 2_565 2_565
Cu5A P2 P1 146.92(7) 5_556 2_565
Cu5A P2 P1 103.33(6) 5_566 2_565
P3 P2 P1 62.65(3) . 2_565
P3 P2 P1 119.74(4) 6_557 2_565
P1 P2 P1 115.98(4) . 2_565
P2 P2 P1 61.733(12) 1_565 2_565
P2 P2 P1 118.267(12) 1_545 2_565
P3 P2 P1 57.14(3) 2_565 2_565
P3 P2 P1 85.56(3) 2 2_565
Cu3 P2 P1 145.90(2) 6_557 2_565
Th1 P2 P1 42.89(2) 1_556 2_565
P1 P2 P1 177.45(4) 5_556 2_565
P1 P2 P1 123.188(9) 5_566 2_565
Cu2 P2 P1 88.18(4) 2_565 2
Cu2 P2 P1 36.02(3) 2 2
Cu4 P2 P1 87.17(4) 6_557 2
Cu1 P2 P1 145.45(3) . 2
Cu3 P2 P1 33.891(19) . 2
Cu5B P2 P1 101.1(3) 5_556 2
Cu5B P2 P1 147.6(2) 5_566 2
Th1 P2 P1 71.44(2) 2 2
Th1 P2 P1 108.10(4) 2_565 2
Cu5A P2 P1 103.33(6) 5_556 2
Cu5A P2 P1 146.92(7) 5_566 2
P3 P2 P1 62.65(3) . 2
P3 P2 P1 119.74(4) 6_557 2
P1 P2 P1 115.98(4) . 2
P2 P2 P1 118.267(12) 1_565 2
P2 P2 P1 61.733(12) 1_545 2
P3 P2 P1 85.56(3) 2_565 2
P3 P2 P1 57.14(3) 2 2
Cu3 P2 P1 145.90(2) 6_557 2
Th1 P2 P1 42.89(2) 1_556 2
P1 P2 P1 123.188(8) 5_556 2
P1 P2 P1 177.45(4) 5_566 2
P1 P2 P1 56.53(2) 2_565 2
Cu2 P2 Cu4 56.89(3) 2_565 2_565
Cu2 P2 Cu4 100.14(4) 2 2_565
Cu4 P2 Cu4 30.098(16) 6_557 2_565
Cu1 P2 Cu4 97.58(4) . 2_565
Cu3 P2 Cu4 118.26(4) . 2_565
Cu5B P2 Cu4 79.5(5) 5_556 2_565
Cu5B P2 Cu4 38.0(4) 5_566 2_565
Th1 P2 Cu4 161.65(3) 2 2_565
Th1 P2 Cu4 111.382(12) 2_565 2_565
Cu5A P2 Cu4 75.76(7) 5_556 2_565
Cu5A P2 Cu4 35.84(6) 5_566 2_565
P3 P2 Cu4 148.02(2) . 2_565
P3 P2 Cu4 33.634(16) 6_557 2_565
P1 P2 Cu4 131.76(3) . 2_565
P2 P2 Cu4 63.881(8) 1_565 2_565
P2 P2 Cu4 116.119(8) 1_545 2_565
P3 P2 Cu4 32.02(2) 2_565 2_565
P3 P2 Cu4 65.46(2) 2 2_565
Cu3 P2 Cu4 61.40(2) 6_557 2_565
Th1 P2 Cu4 70.86(2) 1_556 2_565
P1 P2 Cu4 94.63(3) 5_556 2_565
P1 P2 Cu4 70.18(2) 5_566 2_565
P1 P2 Cu4 87.71(3) 2_565 2_565
P1 P2 Cu4 112.15(4) 2 2_565
Cu2 P2 Cu4 100.14(4) 2_565 2
Cu2 P2 Cu4 56.89(3) 2 2
Cu4 P2 Cu4 30.098(16) 6_557 2
Cu1 P2 Cu4 97.58(4) . 2
Cu3 P2 Cu4 118.26(4) . 2
Cu5B P2 Cu4 38.0(4) 5_556 2
Cu5B P2 Cu4 79.5(5) 5_566 2
Th1 P2 Cu4 111.382(12) 2 2
Th1 P2 Cu4 161.65(3) 2_565 2
Cu5A P2 Cu4 35.84(6) 5_556 2
Cu5A P2 Cu4 75.76(7) 5_566 2
P3 P2 Cu4 148.02(2) . 2
P3 P2 Cu4 33.634(16) 6_557 2
P1 P2 Cu4 131.76(3) . 2
P2 P2 Cu4 116.119(8) 1_565 2
P2 P2 Cu4 63.881(8) 1_545 2
P3 P2 Cu4 65.46(2) 2_565 2
P3 P2 Cu4 32.02(2) 2 2
Cu3 P2 Cu4 61.40(2) 6_557 2
Th1 P2 Cu4 70.86(2) 1_556 2
P1 P2 Cu4 70.18(2) 5_556 2
P1 P2 Cu4 94.63(3) 5_566 2
P1 P2 Cu4 112.15(4) 2_565 2
P1 P2 Cu4 87.71(3) 2 2
Cu4 P2 Cu4 52.237(16) 2_565 2
Cu2 P2 Cu4 28.58(2) 2_565 6_567
Cu2 P2 Cu4 121.53(4) 2 6_567
Cu4 P2 Cu4 58.629(15) 6_557 6_567
Cu1 P2 Cu4 102.21(2) . 6_567
Cu3 P2 Cu4 98.41(2) . 6_567
Cu5B P2 Cu4 112.5(5) 5_556 6_567
Cu5B P2 Cu4 37.8(2) 5_566 6_567
Th1 P2 Cu4 162.82(3) 2 6_567
Th1 P2 Cu4 79.729(8) 2_565 6_567
Cu5A P2 Cu4 108.72(7) 5_556 6_567
Cu5A P2 Cu4 39.27(6) 5_566 6_567
P3 P2 Cu4 115.354(19) . 6_567
P3 P2 Cu4 65.606(18) 6_557 6_567
P1 P2 Cu4 117.738(18) . 6_567
P2 P2 Cu4 31.371(15) 1_565 6_567
P2 P2 Cu4 148.629(15) 1_545 6_567
P3 P2 Cu4 32.458(14) 2_565 6_567
P3 P2 Cu4 89.71(3) 2 6_567
Cu3 P2 Cu4 81.397(19) 6_557 6_567
Th1 P2 Cu4 71.773(18) 1_556 6_567
P1 P2 Cu4 117.11(3) 5_556 6_567
P1 P2 Cu4 68.991(18) 5_566 6_567
P1 P2 Cu4 64.529(18) 2_565 6_567
P1 P2 Cu4 112.25(3) 2 6_567
Cu4 P2 Cu4 34.283(12) 2_565 6_567
Cu4 P2 Cu4 85.73(2) 2 6_567
Cu2 P2 Cu4 121.53(4) 2_565 6_547
Cu2 P2 Cu4 28.58(2) 2 6_547
Cu4 P2 Cu4 58.629(15) 6_557 6_547
Cu1 P2 Cu4 102.21(2) . 6_547
Cu3 P2 Cu4 98.41(2) . 6_547
Cu5B P2 Cu4 37.8(2) 5_556 6_547
Cu5B P2 Cu4 112.5(5) 5_566 6_547
Th1 P2 Cu4 79.729(8) 2 6_547
Th1 P2 Cu4 162.82(3) 2_565 6_547
Cu5A P2 Cu4 39.27(6) 5_556 6_547
Cu5A P2 Cu4 108.72(7) 5_566 6_547
P3 P2 Cu4 115.354(19) . 6_547
P3 P2 Cu4 65.606(18) 6_557 6_547
P1 P2 Cu4 117.738(18) . 6_547
P2 P2 Cu4 148.629(15) 1_565 6_547
P2 P2 Cu4 31.371(15) 1_545 6_547
P3 P2 Cu4 89.71(3) 2_565 6_547
P3 P2 Cu4 32.458(14) 2 6_547
Cu3 P2 Cu4 81.397(19) 6_557 6_547
Th1 P2 Cu4 71.773(18) 1_556 6_547
P1 P2 Cu4 68.991(18) 5_556 6_547
P1 P2 Cu4 117.11(3) 5_566 6_547
P1 P2 Cu4 112.25(3) 2_565 6_547
P1 P2 Cu4 64.529(18) 2 6_547
Cu4 P2 Cu4 85.73(2) 2_565 6_547
Cu4 P2 Cu4 34.283(12) 2 6_547
Cu4 P2 Cu4 117.26(3) 6_567 6_547
Cu2 P2 Cu5A 57.23(4) 2_565 2_565
Cu2 P2 Cu5A 98.90(5) 2 2_565
Cu4 P2 Cu5A 118.18(6) 6_557 2_565
Cu1 P2 Cu5A 120.95(6) . 2_565
Cu3 P2 Cu5A 29.05(4) . 2_565
Cu5B P2 Cu5A 161.7(5) 5_556 2_565
Cu5B P2 Cu5A 111.5(4) 5_566 2_565
Th1 P2 Cu5A 83.88(4) 2 2_565
Th1 P2 Cu5A 47.94(5) 2_565 2_565
Cu5A P2 Cu5A 164.98(9) 5_556 2_565
Cu5A P2 Cu5A 114.95(4) 5_566 2_565
P3 P2 Cu5A 34.12(3) . 2_565
P3 P2 Cu5A 147.67(4) 6_557 2_565
P1 P2 Cu5A 85.63(5) . 2_565
P2 P2 Cu5A 64.90(3) 1_565 2_565
P2 P2 Cu5A 115.10(3) 1_545 2_565
P3 P2 Cu5A 86.54(4) 2_565 2_565
P3 P2 Cu5A 110.88(6) 2 2_565
Cu3 P2 Cu5A 151.14(4) 6_557 2_565
Th1 P2 Cu5A 70.49(5) 1_556 2_565
P1 P2 Cu5A 146.46(5) 5_556 2_565
P1 P2 Cu5A 115.40(5) 5_566 2_565
P1 P2 Cu5A 31.01(5) 2_565 2_565
P1 P2 Cu5A 62.92(5) 2 2_565
Cu4 P2 Cu5A 114.04(3) 2_565 2_565
Cu4 P2 Cu5A 141.34(6) 2 2_565
Cu4 P2 Cu5A 83.32(3) 6_567 2_565
Cu4 P2 Cu5A 127.45(5) 6_547 2_565
Cu2 P2 Cu5A 98.90(5) 2_565 2
Cu2 P2 Cu5A 57.23(4) 2 2
Cu4 P2 Cu5A 118.18(6) 6_557 2
Cu1 P2 Cu5A 120.95(6) . 2
Cu3 P2 Cu5A 29.05(4) . 2
Cu5B P2 Cu5A 111.5(4) 5_556 2
Cu5B P2 Cu5A 161.7(5) 5_566 2
Th1 P2 Cu5A 47.94(5) 2 2
Th1 P2 Cu5A 83.88(4) 2_565 2
Cu5A P2 Cu5A 114.95(4) 5_556 2
Cu5A P2 Cu5A 164.98(9) 5_566 2
P3 P2 Cu5A 34.12(3) . 2
P3 P2 Cu5A 147.67(4) 6_557 2
P1 P2 Cu5A 85.63(5) . 2
P2 P2 Cu5A 115.10(3) 1_565 2
P2 P2 Cu5A 64.90(3) 1_545 2
P3 P2 Cu5A 110.88(6) 2_565 2
P3 P2 Cu5A 86.54(4) 2 2
Cu3 P2 Cu5A 151.14(4) 6_557 2
Th1 P2 Cu5A 70.49(5) 1_556 2
P1 P2 Cu5A 115.40(5) 5_556 2
P1 P2 Cu5A 146.46(5) 5_566 2
P1 P2 Cu5A 62.92(5) 2_565 2
P1 P2 Cu5A 31.01(5) 2 2
Cu4 P2 Cu5A 141.34(6) 2_565 2
Cu4 P2 Cu5A 114.04(3) 2 2
Cu4 P2 Cu5A 127.45(5) 6_567 2
Cu4 P2 Cu5A 83.32(3) 6_547 2
Cu5A P2 Cu5A 50.20(5) 2_565 2
Cu2 P2 Cu1 172.46(5) 2_565 1_545
Cu2 P2 Cu1 66.413(18) 2 1_545
Cu4 P2 Cu1 102.43(3) 6_557 1_545
Cu1 P2 Cu1 57.996(15) . 1_545
Cu3 P2 Cu1 113.85(2) . 1_545
Cu5B P2 Cu1 37.4(5) 5_556 1_545
Cu5B P2 Cu1 111.8(3) 5_566 1_545
Th1 P2 Cu1 45.470(13) 2 1_545
Th1 P2 Cu1 115.13(3) 2_565 1_545
Cu5A P2 Cu1 40.88(7) 5_556 1_545
Cu5A P2 Cu1 109.36(6) 5_566 1_545
P3 P2 Cu1 95.64(2) . 1_545
P3 P2 Cu1 82.88(2) 6_557 1_545
P1 P2 Cu1 65.834(18) . 1_545
P2 P2 Cu1 147.996(15) 1_565 1_545
P2 P2 Cu1 32.004(15) 1_545 1_545
P3 P2 Cu1 137.78(3) 2_565 1_545
P3 P2 Cu1 84.694(16) 2 1_545
Cu3 P2 Cu1 66.297(17) 6_557 1_545
Th1 P2 Cu1 121.096(15) 1_556 1_545
P1 P2 Cu1 32.034(13) 5_556 1_545
P1 P2 Cu1 87.76(2) 5_566 1_545
P1 P2 Cu1 146.94(3) 2_565 1_545
P1 P2 Cu1 92.000(13) 2 1_545
Cu4 P2 Cu1 116.31(3) 2_565 1_545
Cu4 P2 Cu1 72.339(15) 2 1_545
Cu4 P2 Cu1 146.73(3) 6_567 1_545
Cu4 P2 Cu1 52.267(11) 6_547 1_545
Cu5A P2 Cu1 129.22(3) 2_565 1_545
Cu5A P2 Cu1 85.00(4) 2 1_545
Cu2 P2 Cu1 66.413(18) 2_565 1_565
Cu2 P2 Cu1 172.46(5) 2 1_565
Cu4 P2 Cu1 102.43(3) 6_557 1_565
Cu1 P2 Cu1 57.996(15) . 1_565
Cu3 P2 Cu1 113.85(2) . 1_565
Cu5B P2 Cu1 111.8(3) 5_556 1_565
Cu5B P2 Cu1 37.4(5) 5_566 1_565
Th1 P2 Cu1 115.13(3) 2 1_565
Th1 P2 Cu1 45.470(13) 2_565 1_565
Cu5A P2 Cu1 109.36(6) 5_556 1_565
Cu5A P2 Cu1 40.88(7) 5_566 1_565
P3 P2 Cu1 95.64(2) . 1_565
P3 P2 Cu1 82.88(2) 6_557 1_565
P1 P2 Cu1 65.834(18) . 1_565
P2 P2 Cu1 32.004(15) 1_565 1_565
P2 P2 Cu1 147.996(15) 1_545 1_565
P3 P2 Cu1 84.694(16) 2_565 1_565
P3 P2 Cu1 137.78(3) 2 1_565
Cu3 P2 Cu1 66.297(17) 6_557 1_565
Th1 P2 Cu1 121.096(15) 1_556 1_565
P1 P2 Cu1 87.76(2) 5_556 1_565
P1 P2 Cu1 32.035(13) 5_566 1_565
P1 P2 Cu1 92.000(13) 2_565 1_565
P1 P2 Cu1 146.94(3) 2 1_565
Cu4 P2 Cu1 72.339(15) 2_565 1_565
Cu4 P2 Cu1 116.31(3) 2 1_565
Cu4 P2 Cu1 52.267(11) 6_567 1_565
Cu4 P2 Cu1 146.73(3) 6_547 1_565
Cu5A P2 Cu1 85.00(4) 2_565 1_565
Cu5A P2 Cu1 129.22(4) 2 1_565
Cu1 P2 Cu1 115.99(3) 1_545 1_565
Cu2 P2 Cu3 28.65(2) 2_565 1_565
Cu2 P2 Cu3 120.64(4) 2 1_565
Cu4 P2 Cu3 98.63(3) 6_557 1_565
Cu1 P2 Cu3 114.05(2) . 1_565
Cu3 P2 Cu3 57.716(14) . 1_565
Cu5B P2 Cu3 162.4(5) 5_556 1_565
Cu5B P2 Cu3 78.0(4) 5_566 1_565
Th1 P2 Cu3 115.19(3) 2 1_565
Th1 P2 Cu3 45.818(13) 2_565 1_565
Cu5A P2 Cu3 158.65(7) 5_556 1_565
Cu5A P2 Cu3 81.20(6) 5_566 1_565
P3 P2 Cu3 65.487(18) . 1_565
P3 P2 Cu3 115.535(19) 6_557 1_565
P1 P2 Cu3 95.48(2) . 1_565
P2 P2 Cu3 32.283(14) 1_565 1_565
P2 P2 Cu3 147.716(14) 1_545 1_565
P3 P2 Cu3 63.242(18) 2_565 1_565
P3 P2 Cu3 112.35(3) 2 1_565
Cu3 P2 Cu3 122.283(14) 6_557 1_565
Th1 P2 Cu3 71.359(17) 1_556 1_565
P1 P2 Cu3 146.84(3) 5_556 1_565
P1 P2 Cu3 91.772(13) 5_566 1_565
P1 P2 Cu3 32.463(13) 2_565 1_565
P1 P2 Cu3 87.54(2) 2 1_565
Cu4 P2 Cu3 83.149(14) 2_565 1_565
Cu4 P2 Cu3 128.69(3) 2 1_565
Cu4 P2 Cu3 49.929(11) 6_567 1_565
Cu4 P2 Cu3 143.12(3) 6_547 1_565
Cu5A P2 Cu3 34.35(2) 2_565 1_565
Cu5A P2 Cu3 83.78(4) 2 1_565
Cu1 P2 Cu3 158.89(3) 1_545 1_565
Cu1 P2 Cu3 59.936(10) 1_565 1_565
Cu2 P2 Cu3 120.64(4) 2_565 1_545
Cu2 P2 Cu3 28.65(2) 2 1_545
Cu4 P2 Cu3 98.63(3) 6_557 1_545
Cu1 P2 Cu3 114.05(2) . 1_545
Cu3 P2 Cu3 57.716(14) . 1_545
Cu5B P2 Cu3 78.0(4) 5_556 1_545
Cu5B P2 Cu3 162.4(5) 5_566 1_545
Th1 P2 Cu3 45.818(13) 2 1_545
Th1 P2 Cu3 115.19(3) 2_565 1_545
Cu5A P2 Cu3 81.20(6) 5_556 1_545
Cu5A P2 Cu3 158.65(8) 5_566 1_545
P3 P2 Cu3 65.487(18) . 1_545
P3 P2 Cu3 115.535(19) 6_557 1_545
P1 P2 Cu3 95.48(2) . 1_545
P2 P2 Cu3 147.716(14) 1_565 1_545
P2 P2 Cu3 32.283(14) 1_545 1_545
P3 P2 Cu3 112.35(3) 2_565 1_545
P3 P2 Cu3 63.242(18) 2 1_545
Cu3 P2 Cu3 122.283(14) 6_557 1_545
Th1 P2 Cu3 71.359(17) 1_556 1_545
P1 P2 Cu3 91.772(13) 5_556 1_545
P1 P2 Cu3 146.84(3) 5_566 1_545
P1 P2 Cu3 87.54(2) 2_565 1_545
P1 P2 Cu3 32.463(13) 2 1_545
Cu4 P2 Cu3 128.69(3) 2_565 1_545
Cu4 P2 Cu3 83.149(14) 2 1_545
Cu4 P2 Cu3 143.12(3) 6_567 1_545
Cu4 P2 Cu3 49.929(11) 6_547 1_545
Cu5A P2 Cu3 83.78(4) 2_565 1_545
Cu5A P2 Cu3 34.35(2) 2 1_545
Cu1 P2 Cu3 59.936(10) 1_545 1_545
Cu1 P2 Cu3 158.89(3) 1_565 1_545
Cu3 P2 Cu3 115.43(3) 1_565 1_545
Cu2 P2 Cu1 149.47(3) 2_565 5_556
Cu2 P2 Cu1 99.77(2) 2 5_556
Cu4 P2 Cu1 128.01(4) 6_557 5_556
Cu1 P2 Cu1 30.866(18) . 5_556
Cu3 P2 Cu1 117.77(4) . 5_556
Cu5B P2 Cu1 62.9(3) 5_556 5_556
Cu5B P2 Cu1 97.09(18) 5_566 5_556
Th1 P2 Cu1 44.867(18) 2 5_556
Th1 P2 Cu1 81.43(3) 2_565 5_556
Cu5A P2 Cu1 64.98(6) 5_556 5_556
Cu5A P2 Cu1 96.76(6) 5_566 5_556
P3 P2 Cu1 82.64(3) . 5_556
P3 P2 Cu1 94.78(3) 6_557 5_556
P1 P2 Cu1 31.926(16) . 5_556
P2 P2 Cu1 114.933(7) 1_565 5_556
P2 P2 Cu1 65.068(7) 1_545 5_556
P3 P2 Cu1 155.97(4) 2_565 5_556
P3 P2 Cu1 119.946(17) 2 5_556
Cu3 P2 Cu1 62.58(2) 6_557 5_556
Th1 P2 Cu1 154.434(10) 1_556 5_556
P1 P2 Cu1 32.83(2) 5_556 5_556
P1 P2 Cu1 64.01(2) 5_566 5_556
P1 P2 Cu1 144.62(4) 2_565 5_556
P1 P2 Cu1 114.59(2) 2 5_556
Cu4 P2 Cu1 123.95(3) 2_565 5_556
Cu4 P2 Cu1 100.80(2) 2 5_556
Cu4 P2 Cu1 132.88(3) 6_567 5_556
Cu4 P2 Cu1 87.745(13) 6_547 5_556
Cu5A P2 Cu1 113.72(5) 2_565 5_556
Cu5A P2 Cu1 92.56(5) 2 5_556
Cu1 P2 Cu1 35.669(12) 1_545 5_556
Cu1 P2 Cu1 84.41(2) 1_565 5_556
Cu3 P2 Cu1 127.24(3) 1_565 5_556
Cu3 P2 Cu1 83.825(14) 1_545 5_556
Cu2 P2 Cu1 99.77(2) 2_565 5_566
Cu2 P2 Cu1 149.47(3) 2 5_566
Cu4 P2 Cu1 128.01(4) 6_557 5_566
Cu1 P2 Cu1 30.866(18) . 5_566
Cu3 P2 Cu1 117.77(4) . 5_566
Cu5B P2 Cu1 97.09(17) 5_556 5_566
Cu5B P2 Cu1 62.9(3) 5_566 5_566
Th1 P2 Cu1 81.43(3) 2 5_566
Th1 P2 Cu1 44.867(18) 2_565 5_566
Cu5A P2 Cu1 96.76(6) 5_556 5_566
Cu5A P2 Cu1 64.98(6) 5_566 5_566
P3 P2 Cu1 82.64(3) . 5_566
P3 P2 Cu1 94.78(3) 6_557 5_566
P1 P2 Cu1 31.926(16) . 5_566
P2 P2 Cu1 65.068(7) 1_565 5_566
P2 P2 Cu1 114.933(7) 1_545 5_566
P3 P2 Cu1 119.946(17) 2_565 5_566
P3 P2 Cu1 155.97(4) 2 5_566
Cu3 P2 Cu1 62.58(2) 6_557 5_566
Th1 P2 Cu1 154.434(10) 1_556 5_566
P1 P2 Cu1 64.01(2) 5_556 5_566
P1 P2 Cu1 32.83(2) 5_566 5_566
P1 P2 Cu1 114.59(2) 2_565 5_566
P1 P2 Cu1 144.62(4) 2 5_566
Cu4 P2 Cu1 100.80(2) 2_565 5_566
Cu4 P2 Cu1 123.95(3) 2 5_566
Cu4 P2 Cu1 87.745(13) 6_567 5_566
Cu4 P2 Cu1 132.88(3) 6_547 5_566
Cu5A P2 Cu1 92.56(5) 2_565 5_566
Cu5A P2 Cu1 113.72(5) 2 5_566
Cu1 P2 Cu1 84.41(2) 1_545 5_566
Cu1 P2 Cu1 35.669(12) 1_565 5_566
Cu3 P2 Cu1 83.825(14) 1_565 5_566
Cu3 P2 Cu1 127.24(3) 1_545 5_566
Cu1 P2 Cu1 49.865(15) 5_556 5_566
Cu2 P2 Cu5B 56.96(9) 2_565 2_565
Cu2 P2 Cu5B 96.9(2) 2 2_565
Cu4 P2 Cu5B 116.6(2) 6_557 2_565
Cu1 P2 Cu5B 123.1(3) . 2_565
Cu3 P2 Cu5B 27.0(2) . 2_565
Cu5B P2 Cu5B 160.3(6) 5_556 2_565
Cu5B P2 Cu5B 112.6(3) 5_566 2_565
Th1 P2 Cu5B 84.14(9) 2 2_565
Th1 P2 Cu5B 50.2(3) 2_565 2_565
Cu5A P2 Cu5B 163.4(2) 5_556 2_565
Cu5A P2 Cu5B 116.01(11) 5_566 2_565
P3 P2 Cu5B 34.75(12) . 2_565
P3 P2 Cu5B 147.19(11) 6_557 2_565
P1 P2 Cu5B 87.5(2) . 2_565
P2 P2 Cu5B 66.09(14) 1_565 2_565
P2 P2 Cu5B 113.91(14) 1_545 2_565
P3 P2 Cu5B 85.50(16) 2_565 2_565
P3 P2 Cu5B 108.7(3) 2 2_565
Cu3 P2 Cu5B 153.1(2) 6_557 2_565
Th1 P2 Cu5B 68.4(3) 1_556 2_565
P1 P2 Cu5B 148.0(2) 5_556 2_565
P1 P2 Cu5B 117.5(3) 5_566 2_565
P1 P2 Cu5B 29.5(2) 2_565 2_565
P1 P2 Cu5B 60.9(2) 2 2_565
Cu4 P2 Cu5B 113.61(10) 2_565 2_565
Cu4 P2 Cu5B 139.2(3) 2 2_565
Cu4 P2 Cu5B 83.52(7) 6_567 2_565
Cu4 P2 Cu5B 125.4(2) 6_547 2_565
Cu5A P2 Cu5B 2.2(3) 2_565 2_565
Cu5A P2 Cu5B 49.06(15) 2 2_565
Cu1 P2 Cu5B 129.29(7) 1_545 2_565
Cu1 P2 Cu5B 86.9(2) 1_565 2_565
Cu3 P2 Cu5B 35.08(10) 1_565 2_565
Cu3 P2 Cu5B 82.36(17) 1_545 2_565
Cu1 P2 Cu5B 115.2(2) 5_556 2_565
Cu1 P2 Cu5B 94.8(3) 5_566 2_565
Cu2 P2 Cu5B 96.9(2) 2_565 2
Cu2 P2 Cu5B 56.96(9) 2 2
Cu4 P2 Cu5B 116.6(2) 6_557 2
Cu1 P2 Cu5B 123.1(3) . 2
Cu3 P2 Cu5B 27.0(2) . 2
Cu5B P2 Cu5B 112.6(3) 5_556 2
Cu5B P2 Cu5B 160.3(6) 5_566 2
Th1 P2 Cu5B 50.2(3) 2 2
Th1 P2 Cu5B 84.14(9) 2_565 2
Cu5A P2 Cu5B 116.01(11) 5_556 2
Cu5A P2 Cu5B 163.4(2) 5_566 2
P3 P2 Cu5B 34.75(12) . 2
P3 P2 Cu5B 147.19(11) 6_557 2
P1 P2 Cu5B 87.5(2) . 2
P2 P2 Cu5B 113.91(14) 1_565 2
P2 P2 Cu5B 66.09(14) 1_545 2
P3 P2 Cu5B 108.7(3) 2_565 2
P3 P2 Cu5B 85.50(16) 2 2
Cu3 P2 Cu5B 153.1(2) 6_557 2
Th1 P2 Cu5B 68.4(3) 1_556 2
P1 P2 Cu5B 117.5(3) 5_556 2
P1 P2 Cu5B 148.0(2) 5_566 2
P1 P2 Cu5B 60.9(2) 2_565 2
P1 P2 Cu5B 29.5(2) 2 2
Cu4 P2 Cu5B 139.2(3) 2_565 2
Cu4 P2 Cu5B 113.61(10) 2 2
Cu4 P2 Cu5B 125.4(2) 6_567 2
Cu4 P2 Cu5B 83.52(7) 6_547 2
Cu5A P2 Cu5B 49.06(15) 2_565 2
Cu5A P2 Cu5B 2.2(3) 2 2
Cu1 P2 Cu5B 86.9(2) 1_545 2
Cu1 P2 Cu5B 129.29(8) 1_565 2
Cu3 P2 Cu5B 82.36(17) 1_565 2
Cu3 P2 Cu5B 35.08(10) 1_545 2
Cu1 P2 Cu5B 94.8(3) 5_556 2
Cu1 P2 Cu5B 115.2(2) 5_566 2
Cu5B P2 Cu5B 47.8(3) 2_565 2
Cu2 P2 Cu2 107.19(3) 2_565 .
Cu2 P2 Cu2 107.19(3) 2 .
Cu4 P2 Cu2 174.48(5) 6_557 .
Cu1 P2 Cu2 71.56(3) . .
Cu3 P2 Cu2 68.16(3) . .
Cu5B P2 Cu2 116.6(4) 5_556 .
Cu5B P2 Cu2 116.6(4) 5_566 .
Th1 P2 Cu2 41.636(17) 2 .
Th1 P2 Cu2 41.636(17) 2_565 .
Cu5A P2 Cu2 119.61(7) 5_556 .
Cu5A P2 Cu2 119.61(7) 5_566 .
P3 P2 Cu2 29.13(2) . .
P3 P2 Cu2 148.03(4) 6_557 .
P1 P2 Cu2 32.13(2) . .
P2 P2 Cu2 90.0 1_565 .
P2 P2 Cu2 90.0 1_545 .
P3 P2 Cu2 141.44(3) 2_565 .
P3 P2 Cu2 141.44(3) 2 .
Cu3 P2 Cu2 112.22(3) 6_557 .
Th1 P2 Cu2 121.41(3) 1_556 .
P1 P2 Cu2 89.50(3) 5_556 .
P1 P2 Cu2 89.50(3) 5_566 .
P1 P2 Cu2 87.97(3) 2_565 .
P1 P2 Cu2 87.97(3) 2 .
Cu4 P2 Cu2 152.162(14) 2_565 .
Cu4 P2 Cu2 152.162(13) 2 .
Cu4 P2 Cu2 121.209(15) 6_567 .
Cu4 P2 Cu2 121.209(15) 6_547 .
Cu5A P2 Cu2 57.01(4) 2_565 .
Cu5A P2 Cu2 57.01(4) 2 .
Cu1 P2 Cu2 80.348(19) 1_545 .
Cu1 P2 Cu2 80.348(19) 1_565 .
Cu3 P2 Cu2 78.542(19) 1_565 .
Cu3 P2 Cu2 78.542(19) 1_545 .
Cu1 P2 Cu2 56.709(17) 5_556 .
Cu1 P2 Cu2 56.709(17) 5_566 .
Cu5B P2 Cu2 58.5(2) 2_565 .
Cu5B P2 Cu2 58.5(2) 2 .
Cu2 P2 Cu5A 65.46(4) 2_565 1_556
Cu2 P2 Cu5A 65.46(4) 2 1_556
Cu4 P2 Cu5A 9.96(6) 6_557 1_556
Cu1 P2 Cu5A 123.92(7) . 1_556
Cu3 P2 Cu5A 96.36(7) . 1_556
Cu5B P2 Cu5A 73.8(3) 5_556 1_556
Cu5B P2 Cu5A 73.8(3) 5_566 1_556
Th1 P2 Cu5A 136.65(2) 2 1_556
Th1 P2 Cu5A 136.65(2) 2_565 1_556
Cu5A P2 Cu5A 71.37(7) 5_556 1_556
Cu5A P2 Cu5A 71.37(7) 5_566 1_556
P3 P2 Cu5A 135.39(7) . 1_556
P3 P2 Cu5A 47.45(6) 6_557 1_556
P1 P2 Cu5A 163.35(7) . 1_556
P2 P2 Cu5A 90.0 1_565 1_556
P2 P2 Cu5A 90.0 1_545 1_556
P3 P2 Cu5A 31.13(2) 2_565 1_556
P3 P2 Cu5A 31.13(2) 2 1_556
Cu3 P2 Cu5A 83.26(6) 6_557 1_556
Th1 P2 Cu5A 43.12(6) 1_556 1_556
P1 P2 Cu5A 104.07(6) 5_556 1_556
P1 P2 Cu5A 104.07(6) 5_566 1_556
P1 P2 Cu5A 78.42(6) 2_565 1_556
P1 P2 Cu5A 78.42(6) 2 1_556
Cu4 P2 Cu5A 35.84(4) 2_565 1_556
Cu4 P2 Cu5A 35.84(4) 2 1_556
Cu4 P2 Cu5A 59.154(16) 6_567 1_556
Cu4 P2 Cu5A 59.154(16) 6_547 1_556
Cu5A P2 Cu5A 109.36(6) 2_565 1_556
Cu5A P2 Cu5A 109.36(6) 2 1_556
Cu1 P2 Cu5A 107.20(3) 1_545 1_556
Cu1 P2 Cu5A 107.20(3) 1_565 1_556
Cu3 P2 Cu5A 93.39(4) 1_565 1_556
Cu3 P2 Cu5A 93.39(3) 1_545 1_556
Cu1 P2 Cu5A 136.19(5) 5_556 1_556
Cu1 P2 Cu5A 136.19(5) 5_566 1_556
Cu5B P2 Cu5A 107.7(2) 2_565 1_556
Cu5B P2 Cu5A 107.7(2) 2 1_556
Cu2 P2 Cu5A 164.52(6) . 1_556
Cu4 P3 Cu3 115.20(5) . .
Cu4 P3 Cu2 101.63(5) . .
Cu3 P3 Cu2 143.18(6) . .
Cu4 P3 Cu4 66.94(3) . 5_656
Cu3 P3 Cu4 125.91(3) . 5_656
Cu2 P3 Cu4 67.95(3) . 5_656
Cu4 P3 Cu4 66.94(3) . 5_666
Cu3 P3 Cu4 125.91(3) . 5_666
Cu2 P3 Cu4 67.95(3) . 5_666
Cu4 P3 Cu4 105.23(5) 5_656 5_666
Cu4 P3 Cu5A 72.74(10) . 2_565
Cu3 P3 Cu5A 66.31(7) . 2_565
Cu2 P3 Cu5A 129.16(7) . 2_565
Cu4 P3 Cu5A 139.04(12) 5_656 2_565
Cu4 P3 Cu5A 63.51(6) 5_666 2_565
Cu4 P3 Cu5A 72.74(10) . 2
Cu3 P3 Cu5A 66.31(7) . 2
Cu2 P3 Cu5A 129.16(7) . 2
Cu4 P3 Cu5A 63.51(6) 5_656 2
Cu4 P3 Cu5A 139.04(12) 5_666 2
Cu5A P3 Cu5A 98.21(17) 2_565 2
Cu4 P3 Cu5B 68.7(5) . 2_565
Cu3 P3 Cu5B 66.86(19) . 2_565
Cu2 P3 Cu5B 131.7(3) . 2_565
Cu4 P3 Cu5B 134.6(5) 5_656 2_565
Cu4 P3 Cu5B 64.9(2) 5_666 2_565
Cu5A P3 Cu5B 4.8(5) 2_565 2_565
Cu5A P3 Cu5B 94.3(5) 2 2_565
Cu4 P3 Cu5B 68.7(5) . 2
Cu3 P3 Cu5B 66.86(19) . 2
Cu2 P3 Cu5B 131.7(3) . 2
Cu4 P3 Cu5B 64.9(2) 5_656 2
Cu4 P3 Cu5B 134.6(5) 5_666 2
Cu5A P3 Cu5B 94.3(5) 2_565 2
Cu5A P3 Cu5B 4.8(5) 2 2
Cu5B P3 Cu5B 90.3(9) 2_565 2
Cu4 P3 Th1 137.463(18) . 2
Cu3 P3 Th1 76.88(3) . 2
Cu2 P3 Th1 75.97(3) . 2
Cu4 P3 Th1 73.29(2) 5_656 2
Cu4 P3 Th1 140.89(5) 5_666 2
Cu5A P3 Th1 141.30(9) 2_565 2
Cu5A P3 Th1 76.63(10) 2 2
Cu5B P3 Th1 143.1(2) 2_565 2
Cu5B P3 Th1 81.4(5) 2 2
Cu4 P3 Th1 137.463(18) . 2_565
Cu3 P3 Th1 76.88(3) . 2_565
Cu2 P3 Th1 75.97(3) . 2_565
Cu4 P3 Th1 140.89(5) 5_656 2_565
Cu4 P3 Th1 73.29(2) 5_666 2_565
Cu5A P3 Th1 76.63(10) 2_565 2_565
Cu5A P3 Th1 141.30(9) 2 2_565
Cu5B P3 Th1 81.4(5) 2_565 2_565
Cu5B P3 Th1 143.1(2) 2 2_565
Th1 P3 Th1 84.02(3) 2 2_565
Cu4 P3 Cu5B 50.4(5) . 6_656
Cu3 P3 Cu5B 165.6(5) . 6_656
Cu2 P3 Cu5B 51.2(5) . 6_656
Cu4 P3 Cu5B 52.62(3) 5_656 6_656
Cu4 P3 Cu5B 52.62(3) 5_666 6_656
Cu5A P3 Cu5B 105.1(3) 2_565 6_656
Cu5A P3 Cu5B 105.1(3) 2 6_656
Cu5B P3 Cu5B 103.6(3) 2_565 6_656
Cu5B P3 Cu5B 103.6(3) 2 6_656
Th1 P3 Cu5B 113.3(4) 2 6_656
Th1 P3 Cu5B 113.3(4) 2_565 6_656
Cu4 P3 Cu5A 45.99(9) . 6_656
Cu3 P3 Cu5A 161.19(10) . 6_656
Cu2 P3 Cu5A 55.63(9) . 6_656
Cu4 P3 Cu5A 52.71(3) 5_656 6_656
Cu4 P3 Cu5A 52.71(3) 5_666 6_656
Cu5A P3 Cu5A 102.33(8) 2_565 6_656
Cu5A P3 Cu5A 102.33(8) 2 6_656
Cu5B P3 Cu5A 100.5(2) 2_565 6_656
Cu5B P3 Cu5A 100.5(2) 2 6_656
Th1 P3 Cu5A 116.29(6) 2 6_656
Th1 P3 Cu5A 116.29(6) 2_565 6_656
Cu5B P3 Cu5A 4.4(5) 6_656 6_656
Cu4 P3 P2 155.80(5) . .
Cu3 P3 P2 40.60(3) . .
Cu2 P3 P2 102.58(5) . .
Cu4 P3 P2 123.19(3) 5_656 .
Cu4 P3 P2 123.19(3) 5_666 .
Cu5A P3 P2 91.80(9) 2_565 .
Cu5A P3 P2 91.80(9) 2 .
Cu5B P3 P2 94.8(4) 2_565 .
Cu5B P3 P2 94.8(4) 2 .
Th1 P3 P2 50.75(2) 2 .
Th1 P3 P2 50.75(2) 2_565 .
Cu5B P3 P2 153.8(5) 6_656 .
Cu5A P3 P2 158.21(9) 6_656 .
Cu4 P3 P2 37.87(3) . 6_657
Cu3 P3 P2 77.33(4) . 6_657
Cu2 P3 P2 139.49(5) . 6_657
Cu4 P3 P2 88.60(4) 5_656 6_657
Cu4 P3 P2 88.60(4) 5_666 6_657
Cu5A P3 P2 53.67(10) 2_565 6_657
Cu5A P3 P2 53.67(10) 2 6_657
Cu5B P3 P2 48.9(5) 2_565 6_657
Cu5B P3 P2 48.9(6) 2 6_657
Th1 P3 P2 129.83(3) 2 6_657
Th1 P3 P2 129.83(3) 2_565 6_657
Cu5B P3 P2 88.2(5) 6_656 6_657
Cu5A P3 P2 83.86(9) 6_656 6_657
P2 P3 P2 117.93(3) . 6_657
Cu4 P3 P1 143.02(5) . .
Cu3 P3 P1 101.78(5) . .
Cu2 P3 P1 41.40(3) . .
Cu4 P3 P1 91.94(4) 5_656 .
Cu4 P3 P1 91.94(4) 5_666 .
Cu5A P3 P1 126.02(10) 2_565 .
Cu5A P3 P1 126.02(10) 2 .
Cu5B P3 P1 130.8(5) 2_565 .
Cu5B P3 P1 130.8(6) 2 .
Th1 P3 P1 49.74(2) 2 .
Th1 P3 P1 49.74(2) 2_565 .
Cu5B P3 P1 92.6(5) 6_656 .
Cu5A P3 P1 97.03(9) 6_656 .
P2 P3 P1 61.18(4) . .
P2 P3 P1 179.11(5) 6_657 .
Cu4 P3 P3 90.0 . 1_565
Cu3 P3 P3 90.0 . 1_565
Cu2 P3 P3 90.0 . 1_565
Cu4 P3 P3 142.62(3) 5_656 1_565
Cu4 P3 P3 37.38(3) 5_666 1_565
Cu5A P3 P3 40.90(8) 2_565 1_565
Cu5A P3 P3 139.10(8) 2 1_565
Cu5B P3 P3 44.9(5) 2_565 1_565
Cu5B P3 P3 135.1(5) 2 1_565
Th1 P3 P3 132.008(17) 2 1_565
Th1 P3 P3 47.991(17) 2_565 1_565
Cu5B P3 P3 90.000(1) 6_656 1_565
Cu5A P3 P3 90.0 6_656 1_565
P2 P3 P3 90.0 . 1_565
P2 P3 P3 90.0 6_657 1_565
P1 P3 P3 90.0 . 1_565
Cu4 P3 P3 90.0 . 1_545
Cu3 P3 P3 90.0 . 1_545
Cu2 P3 P3 90.0 . 1_545
Cu4 P3 P3 37.38(3) 5_656 1_545
Cu4 P3 P3 142.62(3) 5_666 1_545
Cu5A P3 P3 139.10(8) 2_565 1_545
Cu5A P3 P3 40.90(8) 2 1_545
Cu5B P3 P3 135.1(5) 2_565 1_545
Cu5B P3 P3 44.9(5) 2 1_545
Th1 P3 P3 47.991(17) 2 1_545
Th1 P3 P3 132.008(17) 2_565 1_545
Cu5B P3 P3 90.000(1) 6_656 1_545
Cu5A P3 P3 90.0 6_656 1_545
P2 P3 P3 90.0 . 1_545
P2 P3 P3 90.0 6_657 1_545
P1 P3 P3 90.0 . 1_545
P3 P3 P3 180.0 1_565 1_545
Cu4 P3 Cu1 74.58(4) . 6_657
Cu3 P3 Cu1 40.62(3) . 6_657
Cu2 P3 Cu1 176.20(5) . 6_657
Cu4 P3 Cu1 110.06(3) 5_656 6_657
Cu4 P3 Cu1 110.06(3) 5_666 6_657
Cu5A P3 Cu1 50.10(7) 2_565 6_657
Cu5A P3 Cu1 50.10(7) 2 6_657
Cu5B P3 Cu1 47.2(4) 2_565 6_657
Cu5B P3 Cu1 47.2(4) 2 6_657
Th1 P3 Cu1 106.76(3) 2 6_657
Th1 P3 Cu1 106.76(3) 2_565 6_657
Cu5B P3 Cu1 125.0(5) 6_656 6_657
Cu5A P3 Cu1 120.57(9) 6_656 6_657
P2 P3 Cu1 81.22(3) . 6_657
P2 P3 Cu1 36.71(2) 6_657 6_657
P1 P3 Cu1 142.40(4) . 6_657
P3 P3 Cu1 90.0 1_565 6_657
P3 P3 Cu1 90.0 1_545 6_657
Cu4 P3 P2 84.79(4) . 2_554
Cu3 P3 P2 145.34(3) . 2_554
Cu2 P3 P2 33.878(18) . 2_554
Cu4 P3 P2 34.13(3) 5_656 2_554
Cu4 P3 P2 87.30(4) 5_666 2_554
Cu5A P3 P2 148.20(8) 2_565 2_554
Cu5A P3 P2 96.16(6) 2 2_554
Cu5B P3 P2 147.1(2) 2_565 2_554
Cu5B P3 P2 98.2(3) 2 2_554
Th1 P3 P2 69.83(2) 2 2_554
Th1 P3 P2 108.22(4) 2_565 2_554
Cu5B P3 P2 43.5(4) 6_656 2_554
Cu5A P3 P2 46.67(6) 6_656 2_554
P2 P3 P2 115.97(3) . 2_554
P2 P3 P2 117.39(3) 6_657 2_554
P1 P3 P2 63.35(3) . 2_554
P3 P3 P2 119.420(12) 1_565 2_554
P3 P3 P2 60.581(12) 1_545 2_554
Cu1 P3 P2 144.19(3) 6_657 2_554
Cu4 P3 P2 84.79(4) . 2_564
Cu3 P3 P2 145.34(3) . 2_564
Cu2 P3 P2 33.878(18) . 2_564
Cu4 P3 P2 87.30(4) 5_656 2_564
Cu4 P3 P2 34.13(3) 5_666 2_564
Cu5A P3 P2 96.16(6) 2_565 2_564
Cu5A P3 P2 148.20(8) 2 2_564
Cu5B P3 P2 98.2(3) 2_565 2_564
Cu5B P3 P2 147.1(2) 2 2_564
Th1 P3 P2 108.22(4) 2 2_564
Th1 P3 P2 69.83(2) 2_565 2_564
Cu5B P3 P2 43.5(4) 6_656 2_564
Cu5A P3 P2 46.67(6) 6_656 2_564
P2 P3 P2 115.97(3) . 2_564
P2 P3 P2 117.39(3) 6_657 2_564
P1 P3 P2 63.35(3) . 2_564
P3 P3 P2 60.581(12) 1_565 2_564
P3 P3 P2 119.420(12) 1_545 2_564
Cu1 P3 P2 144.19(3) 6_657 2_564
P2 P3 P2 58.84(2) 2_554 2_564
Cu4 P3 P3 34.22(2) . 5_666
Cu3 P3 P3 127.49(5) . 5_666
Cu2 P3 P3 83.62(4) . 5_666
Cu4 P3 P3 86.01(4) 5_656 5_666
Cu4 P3 P3 32.713(17) 5_666 5_666
Cu5A P3 P3 63.45(8) 2_565 5_666
Cu5A P3 P3 106.70(11) 2 5_666
Cu5B P3 P3 61.8(2) 2_565 5_666
Cu5B P3 P3 102.5(5) 2 5_666
Th1 P3 P3 155.11(5) 2 5_666
Th1 P3 P3 104.892(14) 2_565 5_666
Cu5B P3 P3 41.8(4) 6_656 5_666
Cu5A P3 P3 38.88(6) 6_656 5_666
P2 P3 P3 150.507(19) . 5_666
P2 P3 P3 61.40(4) 6_657 5_666
P1 P3 P3 119.34(4) . 5_666
P3 P3 P3 60.941(18) 1_565 5_666
P3 P3 P3 119.060(18) 1_545 5_666
Cu1 P3 P3 93.07(4) 6_657 5_666
P2 P3 P3 85.29(4) 2_554 5_666
P2 P3 P3 55.99(3) 2_564 5_666
Cu4 P3 P3 34.22(2) . 5_656
Cu3 P3 P3 127.49(5) . 5_656
Cu2 P3 P3 83.62(4) . 5_656
Cu4 P3 P3 32.713(17) 5_656 5_656
Cu4 P3 P3 86.01(4) 5_666 5_656
Cu5A P3 P3 106.70(11) 2_565 5_656
Cu5A P3 P3 63.45(8) 2 5_656
Cu5B P3 P3 102.5(5) 2_565 5_656
Cu5B P3 P3 61.8(2) 2 5_656
Th1 P3 P3 104.892(14) 2 5_656
Th1 P3 P3 155.11(5) 2_565 5_656
Cu5B P3 P3 41.8(4) 6_656 5_656
Cu5A P3 P3 38.88(6) 6_656 5_656
P2 P3 P3 150.507(19) . 5_656
P2 P3 P3 61.40(4) 6_657 5_656
P1 P3 P3 119.34(4) . 5_656
P3 P3 P3 119.060(18) 1_565 5_656
P3 P3 P3 60.941(18) 1_545 5_656
Cu1 P3 P3 93.07(4) 6_657 5_656
P2 P3 P3 55.99(3) 2_554 5_656
P2 P3 P3 85.29(4) 2_564 5_656
P3 P3 P3 58.12(4) 5_666 5_656
Cu4 P3 P1 95.65(4) . 2_565
Cu3 P3 P1 33.659(19) . 2_565
Cu2 P3 P1 146.69(3) . 2_565
Cu4 P3 P1 145.34(4) 5_656 2_565
Cu4 P3 P1 93.73(2) 5_666 2_565
Cu5A P3 P1 32.76(7) 2_565 2_565
Cu5A P3 P1 83.09(7) 2 2_565
Cu5B P3 P1 33.8(2) 2_565 2_565
Cu5B P3 P1 81.1(3) 2 2_565
Th1 P3 P1 109.28(4) 2 2_565
Th1 P3 P1 72.07(2) 2_565 2_565
Cu5B P3 P1 137.4(4) 6_656 2_565
Cu5A P3 P1 134.16(7) 6_656 2_565
P2 P3 P1 63.39(3) . 2_565
P2 P3 P1 62.72(3) 6_657 2_565
P1 P3 P1 116.53(3) . 2_565
P3 P3 P1 61.530(12) 1_565 2_565
P3 P3 P1 118.470(12) 1_545 2_565
Cu1 P3 P1 35.326(17) 6_657 2_565
P2 P3 P1 178.97(3) 2_554 2_565
P2 P3 P1 122.109(13) 2_564 2_565
P3 P3 P1 95.60(3) 5_666 2_565
P3 P3 P1 124.10(5) 5_656 2_565
Cu4 P3 P1 95.65(4) . 2
Cu3 P3 P1 33.659(19) . 2
Cu2 P3 P1 146.69(3) . 2
Cu4 P3 P1 93.73(2) 5_656 2
Cu4 P3 P1 145.34(4) 5_666 2
Cu5A P3 P1 83.09(7) 2_565 2
Cu5A P3 P1 32.76(7) 2 2
Cu5B P3 P1 81.1(3) 2_565 2
Cu5B P3 P1 33.8(2) 2 2
Th1 P3 P1 72.07(2) 2 2
Th1 P3 P1 109.28(4) 2_565 2
Cu5B P3 P1 137.4(4) 6_656 2
Cu5A P3 P1 134.16(7) 6_656 2
P2 P3 P1 63.39(3) . 2
P2 P3 P1 62.72(3) 6_657 2
P1 P3 P1 116.53(3) . 2
P3 P3 P1 118.470(12) 1_565 2
P3 P3 P1 61.530(12) 1_545 2
Cu1 P3 P1 35.326(17) 6_657 2
P2 P3 P1 122.109(13) 2_554 2
P2 P3 P1 178.97(3) 2_564 2
P3 P3 P1 124.10(5) 5_666 2
P3 P3 P1 95.60(3) 5_656 2
P1 P3 P1 56.94(2) 2_565 2
Cu4 P3 Cu2 31.248(16) . 5_666
Cu3 P3 Cu2 96.43(4) . 5_666
Cu2 P3 Cu2 116.42(4) . 5_666
Cu4 P3 Cu2 98.17(4) 5_656 5_666
Cu4 P3 Cu2 56.39(3) 5_666 5_666
Cu5A P3 Cu2 41.67(10) 2_565 5_666
Cu5A P3 Cu2 85.11(11) 2 5_666
Cu5B P3 Cu2 37.9(4) 2_565 5_666
Cu5B P3 Cu2 80.3(6) 2 5_666
Th1 P3 Cu2 161.72(3) 2 5_666
Th1 P3 Cu2 111.329(12) 2_565 5_666
Cu5B P3 Cu2 70.7(5) 6_656 5_666
Cu5A P3 Cu2 66.81(8) 6_656 5_666
P2 P3 Cu2 131.73(3) . 5_666
P2 P3 Cu2 32.239(16) 6_657 5_666
P1 P3 Cu2 148.26(2) . 5_666
P3 P3 Cu2 64.044(8) 1_565 5_666
P3 P3 Cu2 115.957(8) 1_545 5_666
Cu1 P3 Cu2 60.28(2) 6_657 5_666
P2 P3 Cu2 112.24(3) 2_554 5_666
P2 P3 Cu2 87.05(3) 2_564 5_666
P3 P3 Cu2 32.80(2) 5_666 5_666
P3 P3 Cu2 65.46(3) 5_656 5_666
P1 P3 Cu2 68.43(2) 2_565 5_666
P1 P3 Cu2 92.85(3) 2 5_666
Cu4 P3 Cu2 31.248(16) . 5_656
Cu3 P3 Cu2 96.43(4) . 5_656
Cu2 P3 Cu2 116.42(4) . 5_656
Cu4 P3 Cu2 56.39(3) 5_656 5_656
Cu4 P3 Cu2 98.17(4) 5_666 5_656
Cu5A P3 Cu2 85.11(11) 2_565 5_656
Cu5A P3 Cu2 41.67(10) 2 5_656
Cu5B P3 Cu2 80.3(5) 2_565 5_656
Cu5B P3 Cu2 37.9(4) 2 5_656
Th1 P3 Cu2 111.329(12) 2 5_656
Th1 P3 Cu2 161.72(3) 2_565 5_656
Cu5B P3 Cu2 70.7(5) 6_656 5_656
Cu5A P3 Cu2 66.81(8) 6_656 5_656
P2 P3 Cu2 131.73(3) . 5_656
P2 P3 Cu2 32.239(16) 6_657 5_656
P1 P3 Cu2 148.26(2) . 5_656
P3 P3 Cu2 115.957(8) 1_565 5_656
P3 P3 Cu2 64.044(8) 1_545 5_656
Cu1 P3 Cu2 60.28(2) 6_657 5_656
P2 P3 Cu2 87.05(3) 2_554 5_656
P2 P3 Cu2 112.24(3) 2_564 5_656
P3 P3 Cu2 65.46(3) 5_666 5_656
P3 P3 Cu2 32.80(2) 5_656 5_656
P1 P3 Cu2 92.85(3) 2_565 5_656
P1 P3 Cu2 68.43(2) 2 5_656
Cu2 P3 Cu2 51.913(16) 5_666 5_656
Cu4 P3 Cu2 130.30(4) . 2_565
Cu3 P3 Cu2 32.790(17) . 2_565
Cu2 P3 Cu2 118.79(4) . 2_565
Cu4 P3 Cu2 152.97(3) 5_656 2_565
Cu4 P3 Cu2 101.28(2) 5_666 2_565
Cu5A P3 Cu2 59.78(9) 2_565 2_565
Cu5A P3 Cu2 99.09(7) 2 2_565
Cu5B P3 Cu2 63.0(4) 2_565 2_565
Cu5B P3 Cu2 99.60(18) 2 2_565
Th1 P3 Cu2 82.88(3) 2 2_565
Th1 P3 Cu2 44.809(17) 2_565 2_565
Cu5B P3 Cu2 153.34(12) 6_656 2_565
Cu5A P3 Cu2 153.988(10) 6_656 2_565
P2 P3 Cu2 32.214(15) . 2_565
P2 P3 Cu2 97.31(3) 6_657 2_565
P1 P3 Cu2 81.90(3) . 2_565
P3 P3 Cu2 64.058(8) 1_565 2_565
P3 P3 Cu2 115.941(8) 1_545 2_565
Cu1 P3 Cu2 64.52(2) 6_657 2_565
P2 P3 Cu2 144.57(4) 2_554 2_565
P2 P3 Cu2 112.65(2) 2_564 2_565
P3 P3 Cu2 119.97(2) 5_666 2_565
P3 P3 Cu2 157.58(5) 5_656 2_565
P1 P3 Cu2 35.12(2) 2_565 2_565
P1 P3 Cu2 66.36(2) 2 2_565
Cu2 P3 Cu2 100.811(18) 5_666 2_565
Cu2 P3 Cu2 124.79(3) 5_656 2_565
Cu4 P3 Cu2 130.30(4) . 2
Cu3 P3 Cu2 32.790(17) . 2
Cu2 P3 Cu2 118.79(4) . 2
Cu4 P3 Cu2 101.28(2) 5_656 2
Cu4 P3 Cu2 152.97(3) 5_666 2
Cu5A P3 Cu2 99.09(7) 2_565 2
Cu5A P3 Cu2 59.78(9) 2 2
Cu5B P3 Cu2 99.60(18) 2_565 2
Cu5B P3 Cu2 63.0(4) 2 2
Th1 P3 Cu2 44.809(17) 2 2
Th1 P3 Cu2 82.88(3) 2_565 2
Cu5B P3 Cu2 153.34(12) 6_656 2
Cu5A P3 Cu2 153.988(10) 6_656 2
P2 P3 Cu2 32.214(15) . 2
P2 P3 Cu2 97.31(3) 6_657 2
P1 P3 Cu2 81.90(3) . 2
P3 P3 Cu2 115.941(8) 1_565 2
P3 P3 Cu2 64.058(8) 1_545 2
Cu1 P3 Cu2 64.52(2) 6_657 2
P2 P3 Cu2 112.65(2) 2_554 2
P2 P3 Cu2 144.57(4) 2_564 2
P3 P3 Cu2 157.58(5) 5_666 2
P3 P3 Cu2 119.97(2) 5_656 2
P1 P3 Cu2 66.36(2) 2_565 2
P1 P3 Cu2 35.12(2) 2 2
Cu2 P3 Cu2 124.79(3) 5_666 2
Cu2 P3 Cu2 100.811(18) 5_656 2
Cu2 P3 Cu2 51.883(15) 2_565 2
Cu4 P3 Cu3 117.63(4) . 2_554
Cu3 P3 Cu3 120.22(4) . 2_554
Cu2 P3 Cu3 31.560(16) . 2_554
Cu4 P3 Cu3 58.71(3) 5_656 2_554
Cu4 P3 Cu3 99.45(4) 5_666 2_554
Cu5A P3 Cu3 156.17(9) 2_565 2_554
Cu5A P3 Cu3 105.34(9) 2 2_554
Cu5B P3 Cu3 160.4(5) 2_565 2_554
Cu5B P3 Cu3 109.4(5) 2 2_554
Th1 P3 Cu3 45.264(17) 2 2_554
Th1 P3 Cu3 82.64(3) 2_565 2_554
Cu5B P3 Cu3 72.5(5) 6_656 2_554
Cu5A P3 Cu3 76.42(8) 6_656 2_554
P2 P3 Cu3 83.95(3) . 2_554
P2 P3 Cu3 147.30(3) 6_657 2_554
P1 P3 Cu3 33.243(16) . 2_554
P3 P3 Cu3 115.477(7) 1_565 2_554
P3 P3 Cu3 64.522(7) 1_545 2_554
Cu1 P3 Cu3 150.455(18) 6_657 2_554
P2 P3 Cu3 32.84(2) 2_554 2_554
P2 P3 Cu3 65.32(2) 2_564 2_554
P3 P3 Cu3 111.89(4) 5_666 2_554
P3 P3 Cu3 87.41(3) 5_656 2_554
P1 P3 Cu3 146.71(4) 2_565 2_554
P1 P3 Cu3 115.20(2) 2 2_554
Cu2 P3 Cu3 143.17(3) 5_666 2_554
Cu2 P3 Cu3 115.078(17) 5_656 2_554
Cu2 P3 Cu3 111.84(3) 2_565 2_554
Cu2 P3 Cu3 89.76(2) 2 2_554
Cu4 P3 Cu3 117.63(4) . 2_564
Cu3 P3 Cu3 120.22(4) . 2_564
Cu2 P3 Cu3 31.560(16) . 2_564
Cu4 P3 Cu3 99.45(4) 5_656 2_564
Cu4 P3 Cu3 58.71(3) 5_666 2_564
Cu5A P3 Cu3 105.34(9) 2_565 2_564
Cu5A P3 Cu3 156.17(9) 2 2_564
Cu5B P3 Cu3 109.4(5) 2_565 2_564
Cu5B P3 Cu3 160.4(5) 2 2_564
Th1 P3 Cu3 82.64(3) 2 2_564
Th1 P3 Cu3 45.264(17) 2_565 2_564
Cu5B P3 Cu3 72.5(5) 6_656 2_564
Cu5A P3 Cu3 76.42(8) 6_656 2_564
P2 P3 Cu3 83.95(3) . 2_564
P2 P3 Cu3 147.30(3) 6_657 2_564
P1 P3 Cu3 33.243(16) . 2_564
P3 P3 Cu3 64.522(8) 1_565 2_564
P3 P3 Cu3 115.477(7) 1_545 2_564
Cu1 P3 Cu3 150.455(18) 6_657 2_564
P2 P3 Cu3 65.32(2) 2_554 2_564
P2 P3 Cu3 32.84(2) 2_564 2_564
P3 P3 Cu3 87.41(3) 5_666 2_564
P3 P3 Cu3 111.89(4) 5_656 2_564
P1 P3 Cu3 115.20(2) 2_565 2_564
P1 P3 Cu3 146.71(4) 2 2_564
Cu2 P3 Cu3 115.078(17) 5_666 2_564
Cu2 P3 Cu3 143.17(3) 5_656 2_564
Cu2 P3 Cu3 89.76(2) 2_565 2_564
Cu2 P3 Cu3 111.84(3) 2 2_564
Cu3 P3 Cu3 50.955(15) 2_554 2_564
Cu4 P3 Cu4 58.841(15) . 1_565
Cu3 P3 Cu4 102.73(2) . 1_565
Cu2 P3 Cu4 95.98(2) . 1_565
Cu4 P3 Cu4 118.51(4) 5_656 1_565
Cu4 P3 Cu4 28.04(2) 5_666 1_565
Cu5A P3 Cu4 36.84(6) 2_565 1_565
Cu5A P3 Cu4 119.56(11) 2 1_565
Cu5B P3 Cu4 37.4(2) 2_565 1_565
Cu5B P3 Cu4 114.8(6) 2 1_565
Th1 P3 Cu4 162.54(3) 2 1_565
Th1 P3 Cu4 78.963(8) 2_565 1_565
Cu5B P3 Cu4 70.7(2) 6_656 1_565
Cu5A P3 Cu4 68.93(4) 6_656 1_565
P2 P3 Cu4 118.160(17) . 1_565
P2 P3 Cu4 65.891(18) 6_657 1_565
P1 P3 Cu4 114.416(19) . 1_565
P3 P3 Cu4 31.159(15) 1_565 1_565
P3 P3 Cu4 148.841(15) 1_545 1_565
Cu1 P3 Cu4 82.09(2) 6_657 1_565
P2 P3 Cu4 111.92(3) 2_554 1_565
P2 P3 Cu4 62.139(18) 2_564 1_565
P3 P3 Cu4 32.492(10) 5_666 1_565
P3 P3 Cu4 89.30(3) 5_656 1_565
P1 P3 Cu4 69.087(18) 2_565 1_565
P1 P3 Cu4 117.32(3) 2 1_565
Cu2 P3 Cu4 35.224(11) 5_666 1_565
Cu2 P3 Cu4 86.11(2) 5_656 1_565
Cu2 P3 Cu4 87.726(13) 2_565 1_565
Cu2 P3 Cu4 135.15(2) 2 1_565
Cu3 P3 Cu4 127.45(3) 2_554 1_565
Cu3 P3 Cu4 82.638(13) 2_564 1_565
Cu4 P3 Cu4 58.841(15) . 1_545
Cu3 P3 Cu4 102.73(2) . 1_545
Cu2 P3 Cu4 95.98(2) . 1_545
Cu4 P3 Cu4 28.04(2) 5_656 1_545
Cu4 P3 Cu4 118.51(4) 5_666 1_545
Cu5A P3 Cu4 119.56(11) 2_565 1_545
Cu5A P3 Cu4 36.84(6) 2 1_545
Cu5B P3 Cu4 114.8(5) 2_565 1_545
Cu5B P3 Cu4 37.4(2) 2 1_545
Th1 P3 Cu4 78.963(8) 2 1_545
Th1 P3 Cu4 162.54(3) 2_565 1_545
Cu5B P3 Cu4 70.7(2) 6_656 1_545
Cu5A P3 Cu4 68.93(4) 6_656 1_545
P2 P3 Cu4 118.160(17) . 1_545
P2 P3 Cu4 65.891(18) 6_657 1_545
P1 P3 Cu4 114.416(19) . 1_545
P3 P3 Cu4 148.841(15) 1_565 1_545
P3 P3 Cu4 31.159(15) 1_545 1_545
Cu1 P3 Cu4 82.09(2) 6_657 1_545
P2 P3 Cu4 62.139(18) 2_554 1_545
P2 P3 Cu4 111.92(3) 2_564 1_545
P3 P3 Cu4 89.30(3) 5_666 1_545
P3 P3 Cu4 32.492(10) 5_656 1_545
P1 P3 Cu4 117.32(3) 2_565 1_545
P1 P3 Cu4 69.087(18) 2 1_545
Cu2 P3 Cu4 86.11(2) 5_666 1_545
Cu2 P3 Cu4 35.224(11) 5_656 1_545
Cu2 P3 Cu4 135.15(2) 2_565 1_545
Cu2 P3 Cu4 87.726(12) 2 1_545
Cu3 P3 Cu4 82.638(13) 2_554 1_545
Cu3 P3 Cu4 127.45(3) 2_564 1_545
Cu4 P3 Cu4 117.68(3) 1_565 1_545
Cu4 P3 Cu3 102.83(2) . 1_565
Cu3 P3 Cu3 58.560(14) . 1_565
Cu2 P3 Cu3 114.68(2) . 1_565
Cu4 P3 Cu3 169.69(5) 5_656 1_565
Cu4 P3 Cu3 68.162(17) 5_666 1_565
Cu5A P3 Cu3 31.30(10) 2_565 1_565
Cu5A P3 Cu3 115.81(7) 2 1_565
Cu5B P3 Cu3 35.9(5) 2_565 1_565
Cu5B P3 Cu3 113.6(3) 2 1_565
Th1 P3 Cu3 116.91(3) 2 1_565
Th1 P3 Cu3 46.420(12) 2_565 1_565
Cu5B P3 Cu3 120.34(8) 6_656 1_565
Cu5A P3 Cu3 119.59(2) 6_656 1_565
P2 P3 Cu3 66.669(18) . 1_565
P2 P3 Cu3 83.43(2) 6_657 1_565
P1 P3 Cu3 96.11(2) . 1_565
P3 P3 Cu3 31.440(14) 1_565 1_565
P3 P3 Cu3 148.560(14) 1_545 1_565
Cu1 P3 Cu3 66.676(16) 6_657 1_565
P2 P3 Cu3 148.01(3) 2_554 1_565
P2 P3 Cu3 90.570(13) 2_564 1_565
P3 P3 Cu3 84.436(14) 5_666 1_565
P3 P3 Cu3 137.04(4) 5_656 1_565
P1 P3 Cu3 32.768(13) 2_565 1_565
P1 P3 Cu3 88.43(2) 2 1_565
Cu2 P3 Cu3 71.640(15) 5_666 1_565
Cu2 P3 Cu3 115.59(3) 5_656 1_565
Cu2 P3 Cu3 35.736(11) 2_565 1_565
Cu2 P3 Cu3 86.26(2) 2 1_565
Cu3 P3 Cu3 129.02(3) 2_554 1_565
Cu3 P3 Cu3 84.006(12) 2_564 1_565
Cu4 P3 Cu3 52.034(11) 1_565 1_565
Cu4 P3 Cu3 147.67(3) 1_545 1_565
Cu4 P3 Cu3 102.83(2) . 1_545
Cu3 P3 Cu3 58.560(14) . 1_545
Cu2 P3 Cu3 114.68(2) . 1_545
Cu4 P3 Cu3 68.162(16) 5_656 1_545
Cu4 P3 Cu3 169.69(5) 5_666 1_545
Cu5A P3 Cu3 115.81(7) 2_565 1_545
Cu5A P3 Cu3 31.30(10) 2 1_545
Cu5B P3 Cu3 113.6(3) 2_565 1_545
Cu5B P3 Cu3 35.9(5) 2 1_545
Th1 P3 Cu3 46.420(12) 2 1_545
Th1 P3 Cu3 116.91(3) 2_565 1_545
Cu5B P3 Cu3 120.34(8) 6_656 1_545
Cu5A P3 Cu3 119.59(2) 6_656 1_545
P2 P3 Cu3 66.669(18) . 1_545
P2 P3 Cu3 83.43(2) 6_657 1_545
P1 P3 Cu3 96.11(2) . 1_545
P3 P3 Cu3 148.560(14) 1_565 1_545
P3 P3 Cu3 31.440(14) 1_545 1_545
Cu1 P3 Cu3 66.676(16) 6_657 1_545
P2 P3 Cu3 90.570(13) 2_554 1_545
P2 P3 Cu3 148.01(3) 2_564 1_545
P3 P3 Cu3 137.04(4) 5_666 1_545
P3 P3 Cu3 84.436(14) 5_656 1_545
P1 P3 Cu3 88.43(2) 2_565 1_545
P1 P3 Cu3 32.768(13) 2 1_545
Cu2 P3 Cu3 115.59(3) 5_666 1_545
Cu2 P3 Cu3 71.640(15) 5_656 1_545
Cu2 P3 Cu3 86.26(2) 2_565 1_545
Cu2 P3 Cu3 35.736(11) 2 1_545
Cu3 P3 Cu3 84.006(12) 2_554 1_545
Cu3 P3 Cu3 129.02(3) 2_564 1_545
Cu4 P3 Cu3 147.67(3) 1_565 1_545
Cu4 P3 Cu3 52.034(11) 1_545 1_545
Cu3 P3 Cu3 117.12(3) 1_565 1_545
Cu4 P3 Cu2 96.11(2) . 1_545
Cu3 P3 Cu2 115.03(2) . 1_545
Cu2 P3 Cu2 58.088(14) . 1_545
Cu4 P3 Cu2 29.20(2) 5_656 1_545
Cu4 P3 Cu2 118.43(4) 5_666 1_545
Cu5A P3 Cu2 167.27(11) 2_565 1_545
Cu5A P3 Cu2 72.07(8) 2 1_545
Cu5B P3 Cu2 162.5(6) 2_565 1_545
Cu5B P3 Cu2 75.5(4) 2 1_545
Th1 P3 Cu2 45.875(12) 2 1_545
Th1 P3 Cu2 116.10(3) 2_565 1_545
Cu5B P3 Cu2 70.7(2) 6_656 1_545
Cu5A P3 Cu2 72.64(4) 6_656 1_545
P2 P3 Cu2 96.61(2) . 1_545
P2 P3 Cu2 113.70(2) 6_657 1_545
P1 P3 Cu2 66.638(18) . 1_545
P3 P3 Cu2 148.088(14) 1_565 1_545
P3 P3 Cu2 31.912(14) 1_545 1_545
Cu1 P3 Cu2 121.834(14) 6_657 1_545
P2 P3 Cu2 31.148(13) 2_554 1_545
P2 P3 Cu2 88.74(2) 2_564 1_545
P3 P3 Cu2 110.71(4) 5_666 1_545
P3 P3 Cu2 61.897(18) 5_656 1_545
P1 P3 Cu2 147.83(3) 2_565 1_545
P1 P3 Cu2 92.129(12) 2 1_545
Cu2 P3 Cu2 127.36(3) 5_666 1_545
Cu2 P3 Cu2 82.166(16) 5_656 1_545
Cu2 P3 Cu2 128.75(3) 2_565 1_545
Cu2 P3 Cu2 83.295(12) 2 1_545
Cu3 P3 Cu2 35.356(11) 2_554 1_545
Cu3 P3 Cu2 85.11(2) 2_564 1_545
Cu4 P3 Cu2 141.40(3) 1_565 1_545
Cu4 P3 Cu2 47.834(11) 1_545 1_545
Cu3 P3 Cu2 160.90(3) 1_565 1_545
Cu3 P3 Cu2 59.767(10) 1_545 1_545
Cu4 P3 Cu2 96.11(2) . 1_565
Cu3 P3 Cu2 115.03(2) . 1_565
Cu2 P3 Cu2 58.088(14) . 1_565
Cu4 P3 Cu2 118.43(4) 5_656 1_565
Cu4 P3 Cu2 29.20(2) 5_666 1_565
Cu5A P3 Cu2 72.07(8) 2_565 1_565
Cu5A P3 Cu2 167.27(11) 2 1_565
Cu5B P3 Cu2 75.5(4) 2_565 1_565
Cu5B P3 Cu2 162.5(6) 2 1_565
Th1 P3 Cu2 116.10(3) 2 1_565
Th1 P3 Cu2 45.876(12) 2_565 1_565
Cu5B P3 Cu2 70.7(2) 6_656 1_565
Cu5A P3 Cu2 72.64(4) 6_656 1_565
P2 P3 Cu2 96.61(2) . 1_565
P2 P3 Cu2 113.70(2) 6_657 1_565
P1 P3 Cu2 66.638(18) . 1_565
P3 P3 Cu2 31.912(14) 1_565 1_565
P3 P3 Cu2 148.088(14) 1_545 1_565
Cu1 P3 Cu2 121.834(14) 6_657 1_565
P2 P3 Cu2 88.74(2) 2_554 1_565
P2 P3 Cu2 31.148(13) 2_564 1_565
P3 P3 Cu2 61.897(18) 5_666 1_565
P3 P3 Cu2 110.70(4) 5_656 1_565
P1 P3 Cu2 92.129(12) 2_565 1_565
P1 P3 Cu2 147.83(3) 2 1_565
Cu2 P3 Cu2 82.166(16) 5_666 1_565
Cu2 P3 Cu2 127.36(3) 5_656 1_565
Cu2 P3 Cu2 83.295(12) 2_565 1_565
Cu2 P3 Cu2 128.75(3) 2 1_565
Cu3 P3 Cu2 85.11(2) 2_554 1_565
Cu3 P3 Cu2 35.356(11) 2_564 1_565
Cu4 P3 Cu2 47.834(11) 1_565 1_565
Cu4 P3 Cu2 141.40(3) 1_545 1_565
Cu3 P3 Cu2 59.767(10) 1_565 1_565
Cu3 P3 Cu2 160.90(3) 1_545 1_565
Cu2 P3 Cu2 116.18(3) 1_545 1_565
Cu4 P3 Cu1 174.37(5) . .
Cu3 P3 Cu1 70.43(3) . .
Cu2 P3 Cu1 72.74(3) . .
Cu4 P3 Cu1 110.14(3) 5_656 .
Cu4 P3 Cu1 110.14(3) 5_666 .
Cu5A P3 Cu1 110.64(10) 2_565 .
Cu5A P3 Cu1 110.64(10) 2 .
Cu5B P3 Cu1 114.9(5) 2_565 .
Cu5B P3 Cu1 114.9(5) 2 .
Th1 P3 Cu1 42.039(17) 2 .
Th1 P3 Cu1 42.039(17) 2_565 .
Cu5B P3 Cu1 124.0(5) 6_656 .
Cu5A P3 Cu1 128.38(9) 6_656 .
P2 P3 Cu1 29.83(2) . .
P2 P3 Cu1 147.77(4) 6_657 .
P1 P3 Cu1 31.35(2) . .
P3 P3 Cu1 90.0 1_565 .
P3 P3 Cu1 90.0 1_545 .
Cu1 P3 Cu1 111.05(3) 6_657 .
P2 P3 Cu1 90.31(3) 2_554 .
P2 P3 Cu1 90.31(3) 2_564 .
P3 P3 Cu1 142.66(3) 5_666 .
P3 P3 Cu1 142.66(3) 5_656 .
P1 P3 Cu1 89.29(3) 2_565 .
P1 P3 Cu1 89.29(3) 2 .
Cu2 P3 Cu1 151.417(15) 5_666 .
Cu2 P3 Cu1 151.417(15) 5_656 .
Cu2 P3 Cu1 54.381(17) 2_565 .
Cu2 P3 Cu1 54.381(17) 2 .
Cu3 P3 Cu1 57.486(18) 2_554 .
Cu3 P3 Cu1 57.486(18) 2_564 .
Cu4 P3 Cu1 120.992(15) 1_565 .
Cu4 P3 Cu1 120.992(15) 1_545 .
Cu3 P3 Cu1 79.939(19) 1_565 .
Cu3 P3 Cu1 79.939(19) 1_545 .
Cu2 P3 Cu1 80.978(19) 1_545 .
Cu2 P3 Cu1 80.978(19) 1_565 .
Cu4 P3 Cu5B 64.2(3) . 6_646
Cu3 P3 Cu5B 131.36(13) . 6_646
Cu2 P3 Cu5B 64.7(3) . 6_646
Cu4 P3 Cu5B 5.65(7) 5_656 6_646
Cu4 P3 Cu5B 99.60(8) 5_666 6_646
Cu5A P3 Cu5B 136.9(3) 2_565 6_646
Cu5A P3 Cu5B 68.0(2) 2 6_646
Cu5B P3 Cu5B 132.70(17) 2_565 6_646
Cu5B P3 Cu5B 69.0(5) 2 6_646
Th1 P3 Cu5B 77.3(3) 2 6_646
Th1 P3 Cu5B 139.4(4) 2_565 6_646
Cu5B P3 Cu5B 46.98(7) 6_656 6_646
Cu5A P3 Cu5B 47.14(9) 6_656 6_646
P2 P3 Cu5B 127.8(2) . 6_646
P2 P3 Cu5B 88.8(4) 6_657 6_646
P1 P3 Cu5B 91.8(4) . 6_646
P3 P3 Cu5B 136.98(7) 1_565 6_646
P3 P3 Cu5B 43.02(7) 1_545 6_646
Cu1 P3 Cu5B 113.0(3) 6_657 6_646
P2 P3 Cu5B 31.4(3) 2_554 6_646
P2 P3 Cu5B 82.20(18) 2_564 6_646
P3 P3 Cu5B 81.2(2) 5_666 6_646
P3 P3 Cu5B 30.2(3) 5_656 6_646
P1 P3 Cu5B 148.3(3) 2_565 6_646
P1 P3 Cu5B 98.83(18) 2 6_646
Cu2 P3 Cu5B 95.4(3) 5_666 6_646
Cu2 P3 Cu5B 56.9(4) 5_656 6_646
Cu2 P3 Cu5B 158.37(14) 2_565 6_646
Cu2 P3 Cu5B 106.85(9) 2 6_646
Cu3 P3 Cu5B 58.7(4) 2_554 6_646
Cu3 P3 Cu5B 96.3(3) 2_564 6_646
Cu4 P3 Cu5B 113.61(19) 1_565 6_646
Cu4 P3 Cu5B 31.7(3) 1_545 6_646
Cu3 P3 Cu5B 165.6(2) 1_565 6_646
Cu3 P3 Cu5B 73.79(8) 1_545 6_646
Cu2 P3 Cu5B 32.2(3) 1_545 6_646
Cu2 P3 Cu5B 113.26(17) 1_565 6_646
Cu1 P3 Cu5B 112.4(3) . 6_646
Cu4 P3 Cu5B 64.2(3) . 6_666
Cu3 P3 Cu5B 131.36(13) . 6_666
Cu2 P3 Cu5B 64.7(3) . 6_666
Cu4 P3 Cu5B 99.60(8) 5_656 6_666
Cu4 P3 Cu5B 5.65(7) 5_666 6_666
Cu5A P3 Cu5B 68.0(2) 2_565 6_666
Cu5A P3 Cu5B 136.9(3) 2 6_666
Cu5B P3 Cu5B 69.0(5) 2_565 6_666
Cu5B P3 Cu5B 132.70(17) 2 6_666
Th1 P3 Cu5B 139.4(4) 2 6_666
Th1 P3 Cu5B 77.3(3) 2_565 6_666
Cu5B P3 Cu5B 46.98(7) 6_656 6_666
Cu5A P3 Cu5B 47.14(9) 6_656 6_666
P2 P3 Cu5B 127.8(2) . 6_666
P2 P3 Cu5B 88.8(4) 6_657 6_666
P1 P3 Cu5B 91.8(4) . 6_666
P3 P3 Cu5B 43.02(7) 1_565 6_666
P3 P3 Cu5B 136.98(7) 1_545 6_666
Cu1 P3 Cu5B 113.0(3) 6_657 6_666
P2 P3 Cu5B 82.20(18) 2_554 6_666
P2 P3 Cu5B 31.4(3) 2_564 6_666
P3 P3 Cu5B 30.2(3) 5_666 6_666
P3 P3 Cu5B 81.2(2) 5_656 6_666
P1 P3 Cu5B 98.83(18) 2_565 6_666
P1 P3 Cu5B 148.3(3) 2 6_666
Cu2 P3 Cu5B 56.9(4) 5_666 6_666
Cu2 P3 Cu5B 95.4(3) 5_656 6_666
Cu2 P3 Cu5B 106.85(9) 2_565 6_666
Cu2 P3 Cu5B 158.37(14) 2 6_666
Cu3 P3 Cu5B 96.3(3) 2_554 6_666
Cu3 P3 Cu5B 58.7(4) 2_564 6_666
Cu4 P3 Cu5B 31.7(3) 1_565 6_666
Cu4 P3 Cu5B 113.61(19) 1_545 6_666
Cu3 P3 Cu5B 73.79(8) 1_565 6_666
Cu3 P3 Cu5B 165.6(2) 1_545 6_666
Cu2 P3 Cu5B 113.26(17) 1_545 6_666
Cu2 P3 Cu5B 32.2(3) 1_565 6_666
Cu1 P3 Cu5B 112.4(3) . 6_666
Cu5B P3 Cu5B 93.96(15) 6_646 6_666
loop_
_geom_bond_atom_site_label_1
_geom_bond_atom_site_label_2
_geom_bond_distance
_geom_bond_site_symmetry_2
Th1 P3 2.8963(10) 2_554
Th1 P3 2.8963(10) 2_564
Th1 P2 2.9196(10) 2_564
Th1 P2 2.9196(10) 2_554
Th1 P1 2.9636(10) 2_554
Th1 P1 2.9636(10) 2_564
Th1 Cu2 3.1324(6) .
Th1 Cu4 3.2055(6) 6_556
Th1 Cu3 3.2127(6) 1_554
Th1 Cu1 3.2614(6) 6_656
Th1 Cu1 3.2714(5) 2_564
Th1 Cu1 3.2714(5) 2_554
Th1 Cu2 3.2904(5) 2_554
Th1 Cu2 3.2904(5) 2_564
Th1 Cu3 3.2999(5) 2_564
Th1 Cu3 3.2999(5) 2_554
Th1 Cu5A 3.395(5) .
Th1 Cu5B 3.68(3) .
Th1 Cu5B 3.77(3) 6_656
Th1 Th1 3.87660(10) 1_545
Th1 Th1 3.87660(10) 1_565
Th1 P2 4.0096(13) 1_554
Th1 Cu5A 4.049(5) 6_656
Th1 P1 4.1036(13) 6_656
Th1 P1 4.2036(13) .
Th1 Cu4 4.8874(6) 2_554
Th1 Cu4 4.8874(6) 2_564
Th1 Cu4 4.9408(6) 5_666
Th1 Cu4 4.9408(6) 5_656
Th1 Cu5A 4.972(3) 2_554
Th1 Cu5A 4.972(3) 2_564
Th1 Cu5B 4.983(8) 2_554
Th1 Cu5B 4.983(8) 2_564
Th1 Cu2 4.9840(4) 1_565
Th1 Cu2 4.9840(4) 1_545
Th1 Cu4 5.0302(4) 6_546
Th1 Cu4 5.0302(4) 6_566
Th1 Cu3 5.0348(4) 1_544
Th1 Cu3 5.0348(4) 1_564
Th1 Cu1 5.0661(4) 6_666
Cu1 P2 2.4228(14) .
Cu1 P1 2.4322(9) 5_556
Cu1 P1 2.4322(9) 5_566
Cu1 P1 2.5010(14) .
Cu1 Cu3 2.6393(9) 6_557
Cu1 Cu1 2.8084(9) 5_556
Cu1 Cu1 2.8084(9) 5_566
Cu1 Cu5B 2.890(16) 5_566
Cu1 Cu5B 2.890(16) 5_556
Cu1 Cu5A 3.023(3) 5_566
Cu1 Cu5A 3.023(3) 5_556
Cu1 Th1 3.2614(6) 6_556
Cu1 Th1 3.2715(5) 2_565
Cu1 Th1 3.2715(5) 2
Cu1 Cu1 3.87660(10) 1_565
Cu1 Cu1 3.87660(10) 1_545
Cu1 P3 3.9403(13) 6_557
Cu1 Cu4 4.0135(9) 6_557
Cu1 Cu5B 4.16(2) .
Cu1 Cu2 4.2233(8) 2_565
Cu1 Cu2 4.2233(8) 2
Cu1 Cu5A 4.304(4) .
Cu1 Cu3 4.4749(8) 2_554
Cu1 Cu3 4.4749(8) 2_564
Cu1 Cu2 4.4873(8) 5_556
Cu1 Cu2 4.4873(8) 5_566
Cu1 P2 4.5714(7) 1_565
Cu1 P2 4.5714(7) 1_545
Cu1 Cu3 4.5740(9) .
Cu1 P2 4.5980(13) 5_556
Cu1 P2 4.5980(13) 5_566
Cu1 P1 4.6134(8) 1_545
Cu1 P1 4.6134(8) 1_565
Cu1 Cu2 4.6772(9) .
Cu1 Cu3 4.6898(5) 6_547
Cu1 Cu3 4.6898(5) 6_567
Cu1 P3 4.7856(14) .
Cu1 P2 4.9776(14) 6_557
Cu1 Th1 5.0660(4) 6_546
Cu1 Th1 5.0660(4) 6_566
Cu2 P2 2.3625(8) 2_554
Cu2 P2 2.3625(8) 2_564
Cu2 P3 2.4141(13) .
Cu2 P1 2.5869(15) .
Cu2 Cu4 2.7124(6) 5_666
Cu2 Cu4 2.7124(6) 5_656
Cu2 Cu3 2.7557(6) 2_554
Cu2 Cu3 2.7557(6) 2_564
Cu2 Cu5B 2.83(3) 6_656
Cu2 Cu5A 3.037(5) 6_656
Cu2 Th1 3.2904(5) 2_565
Cu2 Th1 3.2904(5) 2
Cu2 Cu4 3.6882(9) .
Cu2 Cu5A 3.843(4) .
Cu2 Cu2 3.87660(10) 1_565
Cu2 Cu2 3.87660(10) 1_545
Cu2 Cu5B 4.02(2) .
Cu2 Cu1 4.2233(8) 2_554
Cu2 Cu1 4.2233(8) 2_564
Cu2 P3 4.4285(13) 5_666
Cu2 P3 4.4285(13) 5_656
Cu2 P3 4.4309(12) 2_554
Cu2 P3 4.4309(12) 2_564
Cu2 Cu1 4.4873(8) 5_556
Cu2 Cu1 4.4873(8) 5_566
Cu2 Cu5A 4.497(4) 2_565
Cu2 Cu5A 4.497(4) 2
Cu2 Cu3 4.5393(9) .
Cu2 P3 4.5669(7) 1_565
Cu2 P3 4.5669(7) 1_545
Cu2 P1 4.6605(8) 1_545
Cu2 P1 4.6605(8) 1_565
Cu2 Cu5B 4.70(3) 2_565
Cu2 Cu5B 4.70(3) 2
Cu2 P1 4.7859(14) 6_656
Cu2 Cu5B 4.797(15) 6_666
Cu2 Cu5B 4.797(15) 6_646
Cu2 P2 4.8399(14) .
Cu3 P3 2.3700(13) .
Cu3 P2 2.4491(14) .
Cu3 P1 2.4714(9) 2_565
Cu3 P1 2.4714(9) 2
Cu3 Cu1 2.6394(9) 6_657
Cu3 Cu5A 2.704(3) 2_565
Cu3 Cu5A 2.704(3) 2
Cu3 Cu2 2.7557(6) 2
Cu3 Cu2 2.7557(6) 2_565
Cu3 Cu5B 2.829(17) 2_565
Cu3 Cu5B 2.829(17) 2
Cu3 Th1 3.2127(6) 1_556
Cu3 Th1 3.2999(5) 2
Cu3 Th1 3.2999(5) 2_565
Cu3 Cu4 3.8517(9) 6_557
Cu3 Cu3 3.87660(11) 1_565
Cu3 Cu3 3.87660(10) 1_545
Cu3 P2 3.9528(14) 6_657
Cu3 Cu4 3.9801(8) .
Cu3 Cu4 4.2836(8) 5_656
Cu3 Cu4 4.2836(8) 5_666
Cu3 Cu1 4.4749(8) 2_565
Cu3 Cu1 4.4749(8) 2
Cu3 P3 4.5060(12) 2_565
Cu3 P3 4.5060(12) 2
Cu3 P3 4.5437(7) 1_545
Cu3 P3 4.5437(7) 1_565
Cu3 P2 4.5854(7) 1_545
Cu3 P2 4.5854(7) 1_565
Cu3 Cu1 4.6898(5) 6_667
Cu3 Cu1 4.6898(5) 6_647
Cu3 Cu5B 4.86(3) 5_556
Cu3 Cu5B 4.86(3) 5_566
Cu3 P1 4.9126(14) .
Cu3 P1 5.0166(14) 6_657
Cu3 Th1 5.0348(4) 1_566
Cu3 Th1 5.0348(4) 1_546
Cu3 Cu5A 5.091(5) 5_556
Cu4 P3 2.3440(14) .
Cu4 P2 2.3636(14) 6_657
Cu4 P3 2.4394(8) 5_656
Cu4 P3 2.4394(8) 5_666
Cu4 Cu5A 2.635(4) 6_656
Cu4 Cu4 2.6391(8) 5_656
Cu4 Cu4 2.6391(8) 5_666
Cu4 Cu2 2.7124(6) 5_666
Cu4 Cu2 2.7124(6) 5_656
Cu4 Cu5B 2.79(2) 6_656
Cu4 Cu5B 2.885(7) 2_565
Cu4 Cu5B 2.885(7) 2
Cu4 Cu5A 2.916(2) 2_565
Cu4 Cu5A 2.916(2) 2
Cu4 Th1 3.2055(6) 6_656
Cu4 Cu3 3.8518(9) 6_657
Cu4 Cu4 3.87660(10) 1_565
Cu4 Cu4 3.87660(10) 1_545
Cu4 Cu1 4.0135(9) 6_657
Cu4 Cu3 4.2836(8) 5_656
Cu4 Cu3 4.2836(8) 5_666
Cu4 P2 4.4029(13) 2_554
Cu4 P2 4.4029(13) 2_564
Cu4 P3 4.5302(7) 1_545
Cu4 P3 4.5302(7) 1_565
Cu4 P2 4.5403(7) 6_667
Cu4 P2 4.5403(7) 6_647
Cu4 P1 4.6242(13) 5_666
Cu4 P1 4.6242(13) 5_656
Cu4 Cu5A 4.688(2) 6_646
Cu4 Cu5A 4.688(2) 6_666
Cu4 Cu5B 4.774(13) 6_646
Cu4 Cu5B 4.774(13) 6_666
Cu4 P1 4.8759(14) 6_656
Cu4 Th1 4.8874(6) 2
Cu4 Th1 4.8874(6) 2_565
Cu4 P1 4.8893(13) 2_565
Cu4 P1 4.8893(13) 2
Cu5A P1 2.361(3) .
Cu5A P3 2.564(3) 2_554
Cu5A P3 2.564(3) 2_564
Cu5A Cu4 2.635(4) 6_556
Cu5A Cu3 2.704(3) 2_564
Cu5A Cu3 2.704(3) 2_554
Cu5A Cu4 2.916(2) 2_554
Cu5A Cu4 2.916(2) 2_564
Cu5A P2 3.023(4) 5_556
Cu5A P2 3.023(4) 5_566
Cu5A Cu1 3.023(3) 5_566
Cu5A Cu1 3.023(3) 5_556
Cu5A Cu2 3.037(5) 6_556
Cu5A P3 3.654(3) 6_556
Cu5A Cu5A 3.87660(11) 1_565
Cu5A Cu5A 3.87660(10) 1_545
Cu5A Cu5B 3.887(2) 1_545
Cu5A Cu5B 3.887(2) 1_565
Cu5A Th1 4.049(5) 6_556
Cu5A Cu2 4.497(4) 2_554
Cu5A Cu2 4.497(4) 2_564
Cu5A P1 4.5389(17) 1_565
Cu5A P1 4.5389(17) 1_545
Cu5A P2 4.569(5) 2_564
Cu5A P2 4.569(5) 2_554
Cu5A Cu4 4.688(2) 6_546
Cu5A Cu4 4.688(2) 6_566
Cu5A Cu5A 4.892(5) 5
Cu5A Cu5A 4.892(5) 5_565
Cu5A Cu2 4.924(3) 6_546
Cu5A Cu2 4.924(3) 6_566
Cu5A P2 4.931(4) 1_554
Cu5A Cu5B 4.949(11) 5
Cu5A Cu5B 4.949(11) 5_565
Cu5A Th1 4.972(3) 2_565
Cu5A Th1 4.972(3) 2
Cu5A Cu3 5.091(5) 5_556
Cu5B P1 2.354(9) .
Cu5B P3 2.74(2) 2_554
Cu5B P3 2.74(2) 2_564
Cu5B Cu4 2.79(2) 6_556
Cu5B P2 2.82(2) 5_556
Cu5B P2 2.82(2) 5_566
Cu5B Cu2 2.83(3) 6_556
Cu5B Cu3 2.829(17) 2_564
Cu5B Cu3 2.829(17) 2_554
Cu5B Cu4 2.885(7) 2_554
Cu5B Cu4 2.885(7) 2_564
Cu5B Cu1 2.890(16) 5_566
Cu5B Cu1 2.890(16) 5_556
Cu5B P3 3.618(9) 6_556
Cu5B Th1 3.77(3) 6_556
Cu5B Cu5B 3.87660(11) 1_565
Cu5B Cu5B 3.87660(10) 1_545
Cu5B Cu5A 3.887(2) 1_565
Cu5B Cu5A 3.887(2) 1_545
Cu5B P1 4.535(5) 1_565
Cu5B P1 4.535(5) 1_545
Cu5B Cu2 4.70(3) 2_554
Cu5B Cu2 4.70(3) 2_564
Cu5B Cu4 4.774(13) 6_546
Cu5B Cu4 4.774(13) 6_566
Cu5B P2 4.78(3) 2_564
Cu5B P2 4.78(3) 2_554
Cu5B Cu2 4.797(15) 6_546
Cu5B Cu2 4.797(15) 6_566
Cu5B Cu3 4.86(3) 5_556
Cu5B Cu3 4.86(3) 5_566
Cu5B P1 4.94(2) 5_566
Cu5B P1 4.94(3) 5_556
Cu5B Cu5A 4.949(11) 5
Cu5B Cu5A 4.949(11) 5_565
Cu5B Th1 4.984(8) 2_565
Cu5B Th1 4.984(8) 2
P1 Cu1 2.4322(9) 5_556
P1 Cu1 2.4322(9) 5_566
P1 Cu3 2.4714(9) 2_554
P1 Cu3 2.4714(9) 2_564
P1 Th1 2.9636(10) 2_565
P1 Th1 2.9636(10) 2
P1 P2 3.8432(19) .
P1 P3 3.8464(18) .
P1 P1 3.87660(10) 1_565
P1 P1 3.87660(10) 1_545
P1 P1 4.056(2) 5_556
P1 P1 4.056(2) 5_566
P1 P2 4.0651(16) 5_556
P1 P2 4.0651(16) 5_566
P1 P3 4.0661(15) 2_554
P1 P3 4.0661(15) 2_564
P1 P2 4.0928(16) 2_564
P1 P2 4.0928(16) 2_554
P1 Th1 4.1036(13) 6_556
P1 Cu5B 4.535(5) 1_545
P1 Cu5B 4.535(5) 1_565
P1 Cu5A 4.5389(17) 1_545
P1 Cu5A 4.5389(17) 1_565
P1 Cu1 4.6134(8) 1_565
P1 Cu1 4.6134(8) 1_545
P1 Cu4 4.6241(13) 5_666
P1 Cu4 4.6241(13) 5_656
P1 Cu2 4.6605(8) 1_565
P1 Cu2 4.6605(8) 1_545
P1 Cu2 4.7859(14) 6_556
P1 Cu4 4.8759(14) 6_556
P1 Cu4 4.8893(13) 2_554
P1 Cu4 4.8893(13) 2_564
P1 Cu5B 4.94(2) 5_566
P2 Cu2 2.3625(8) 2_565
P2 Cu2 2.3625(8) 2
P2 Cu4 2.3636(14) 6_557
P2 Cu5B 2.82(2) 5_556
P2 Cu5B 2.82(2) 5_566
P2 Th1 2.9196(10) 2
P2 Th1 2.9196(10) 2_565
P2 Cu5A 3.023(4) 5_556
P2 Cu5A 3.023(4) 5_566
P2 P3 3.7019(18) .
P2 P3 3.7257(18) 6_557
P2 P2 3.87660(10) 1_565
P2 P2 3.87660(10) 1_545
P2 P3 3.9461(15) 2_565
P2 P3 3.9461(15) 2
P2 Cu3 3.9528(14) 6_557
P2 Th1 4.0096(13) 1_556
P2 P1 4.0651(16) 5_556
P2 P1 4.0651(16) 5_566
P2 P1 4.0929(16) 2_565
P2 P1 4.0929(16) 2
P2 Cu4 4.4029(13) 2_565
P2 Cu4 4.4029(13) 2
P2 Cu4 4.5403(7) 6_567
P2 Cu4 4.5403(7) 6_547
P2 Cu5A 4.569(5) 2_565
P2 Cu5A 4.569(5) 2
P2 Cu1 4.5714(7) 1_545
P2 Cu1 4.5714(7) 1_565
P2 Cu3 4.5854(7) 1_565
P2 Cu3 4.5854(7) 1_545
P2 Cu1 4.5980(13) 5_556
P2 Cu1 4.5980(13) 5_566
P2 Cu5B 4.78(3) 2_565
P2 Cu5B 4.78(3) 2
P2 Cu5A 4.931(4) 1_556
P3 Cu4 2.4394(8) 5_656
P3 Cu4 2.4394(8) 5_666
P3 Cu5A 2.564(3) 2_565
P3 Cu5A 2.564(3) 2
P3 Cu5B 2.74(2) 2_565
P3 Cu5B 2.74(2) 2
P3 Th1 2.8963(10) 2
P3 Th1 2.8963(10) 2_565
P3 Cu5B 3.618(9) 6_656
P3 Cu5A 3.654(3) 6_656
P3 P2 3.7257(18) 6_657
P3 P3 3.87660(11) 1_565
P3 P3 3.87660(10) 1_545
P3 Cu1 3.9403(13) 6_657
P3 P2 3.9460(15) 2_554
P3 P2 3.9460(15) 2_564
P3 P3 3.991(2) 5_666
P3 P3 3.991(2) 5_656
P3 P1 4.0661(15) 2_565
P3 P1 4.0661(15) 2
P3 Cu2 4.4285(13) 5_666
P3 Cu2 4.4285(13) 5_656
P3 Cu2 4.4309(12) 2_565
P3 Cu2 4.4309(12) 2
P3 Cu3 4.5060(12) 2_554
P3 Cu3 4.5060(12) 2_564
P3 Cu4 4.5301(7) 1_565
P3 Cu4 4.5301(7) 1_545
P3 Cu3 4.5437(7) 1_565
P3 Cu3 4.5437(7) 1_545
P3 Cu2 4.5668(7) 1_545
P3 Cu2 4.5668(7) 1_565
P3 Cu5B 5.302(6) 6_646
P3 Cu5B 5.302(6) 6_666
