#------------------------------------------------------------------------------
#$Date: 2017-08-23 06:06:28 +0300 (Wed, 23 Aug 2017) $
#$Revision: 199888 $
#$URL: file:///home/coder/svn-repositories/cod/cif/7/04/40/7044014.cif $
#------------------------------------------------------------------------------
#
# This file is available in the Crystallography Open Database (COD),
# http://www.crystallography.net/
#
# All data on this site have been placed in the public domain by the
# contributors.
#
data_7044014
loop_
_publ_author_name
'Owens-Baird, Bryan'
'Lee, Shannon'
'Kovnir, Kirill'
_publ_section_title
;
 Two-Dimensional Metal NaCu6.3Sb3 and Solid-State Transformations of
 Sodium Copper Antimonides
;
_journal_name_full               'Dalton Trans.'
_journal_paper_doi               10.1039/C7DT02329D
_journal_year                    2017
_chemical_formula_sum            'Cu6.35 Na Sb3'
_chemical_formula_weight         791.40
_space_group_crystal_system      hexagonal
_space_group_IT_number           194
_space_group_name_Hall           '-P 6c 2c'
_space_group_name_H-M_alt        'P 63/m m c'
_symmetry_space_group_name_Hall  '-P 6c 2c'
_symmetry_space_group_name_H-M   'P 63/m m c'
_atom_sites_solution_primary     direct
_atom_sites_solution_secondary   difmap
_audit_creation_method           SHELXL-2016/6
_cell_angle_alpha                90
_cell_angle_beta                 90
_cell_angle_gamma                120
_cell_formula_units_Z            2
_cell_length_a                   4.2166(2)
_cell_length_b                   4.2166(2)
_cell_length_c                   24.0406(10)
_cell_measurement_reflns_used    5900
_cell_measurement_temperature    100(2)
_cell_measurement_theta_max      30.480
_cell_measurement_theta_min      5.088
_cell_volume                     370.17(3)
_computing_cell_refinement       'SAINT (8.34a) (Bruker, 2013)'
_computing_data_collection       'Apex3 (2016.9) (Bruker, 2016)'
_computing_data_reduction        'SAINT (8.34a) (Bruker, 2013)'
_computing_molecular_graphics    'Bruker SHELXTL'
_computing_publication_material  'Bruker SHELXTL'
_computing_structure_refinement  'SHELXL-2016/6 (Sheldrick, 2016)'
_computing_structure_solution    'SHELXT (Sheldrick, 2014)'
_diffrn_ambient_temperature      100(2)
_diffrn_measured_fraction_theta_full 0.982
_diffrn_measured_fraction_theta_max 0.989
_diffrn_measurement_device_type  'Bruker Photon100 CMOS'
_diffrn_radiation_monochromator  Mirrors
_diffrn_radiation_type           MoK\a
_diffrn_radiation_wavelength     0.71073
_diffrn_reflns_av_R_equivalents  0.0359
_diffrn_reflns_av_unetI/netI     0.0144
_diffrn_reflns_Laue_measured_fraction_full 0.982
_diffrn_reflns_Laue_measured_fraction_max 0.989
_diffrn_reflns_limit_h_max       6
_diffrn_reflns_limit_h_min       -6
_diffrn_reflns_limit_k_max       6
_diffrn_reflns_limit_k_min       -6
_diffrn_reflns_limit_l_max       34
_diffrn_reflns_limit_l_min       -33
_diffrn_reflns_number            8175
_diffrn_reflns_point_group_measured_fraction_full 0.982
_diffrn_reflns_point_group_measured_fraction_max 0.989
_diffrn_reflns_theta_full        25.242
_diffrn_reflns_theta_max         30.479
_diffrn_reflns_theta_min         5.088
_diffrn_source                   Micro-source
_exptl_absorpt_coefficient_mu    28.551
_exptl_absorpt_correction_type   'Empirical, SADABS (multi-scan)'
_exptl_absorpt_process_details   'SADABS 2016/2 (Sheldrick, 2016)'
_exptl_crystal_colour            Black
_exptl_crystal_density_diffrn    7.100
_exptl_crystal_density_method    'not measured'
_exptl_crystal_description       Plate
_exptl_crystal_F_000             696
_exptl_crystal_size_max          0.070
_exptl_crystal_size_mid          0.070
_exptl_crystal_size_min          0.010
_exptl_transmission_factor_max   0.7461
_exptl_transmission_factor_min   0.3907
_refine_diff_density_max         1.935
_refine_diff_density_min         -1.263
_refine_diff_density_rms         0.297
_refine_ls_extinction_coef       0.0122(8)
_refine_ls_extinction_expression Fc^*^=kFc[1+0.001xFc^2^\l^3^/sin(2\q)]^-1/4^
_refine_ls_extinction_method     'SHELXL-2016/6 (Sheldrick 2016)'
_refine_ls_goodness_of_fit_ref   1.217
_refine_ls_hydrogen_treatment    undef
_refine_ls_matrix_type           full
_refine_ls_number_parameters     23
_refine_ls_number_reflns         265
_refine_ls_number_restraints     0
_refine_ls_restrained_S_all      1.217
_refine_ls_R_factor_all          0.0223
_refine_ls_R_factor_gt           0.0218
_refine_ls_shift/su_max          0.000
_refine_ls_shift/su_mean         0.000
_refine_ls_structure_factor_coef Fsqd
_refine_ls_weighting_details
'w=1/[\s^2^(Fo^2^)+(0.0199P)^2^+2.9509P] where P=(Fo^2^+2Fc^2^)/3'
_refine_ls_weighting_scheme      calc
_refine_ls_wR_factor_gt          0.0485
_refine_ls_wR_factor_ref         0.0490
_reflns_Friedel_coverage         0.000
_reflns_number_gt                263
_reflns_number_total             265
_reflns_threshold_expression     'I > 2\s(I)'
_cod_data_source_file            c7dt02329d1.cif
_cod_data_source_block           shelx
_cod_original_cell_volume        370.17(4)
_cod_database_code               7044014
_shelx_shelxl_version_number     2016/6
_shelx_space_group_comment
;
The symmetry employed for this shelxl refinement is uniquely defined
by the following loop, which should always be used as a source of
symmetry information in preference to the above space-group names.
They are only intended as comments.
;
_shelx_estimated_absorpt_t_min   0.240
_shelx_estimated_absorpt_t_max   0.763
_shelx_res_file
;

TITL mo_BOB_276_0m in P6(3)/mmc
    shelx.res
    created by SHELXL-2016/6 at 13:30:54 on 19-May-2017
CELL 0.71073   4.21660   4.21660  24.04060  90.0000  90.0000 120.0000
ZERR    2.00   0.00020   0.00020   0.00100   0.0000   0.0000   0.0000
LATT  1
SYMM -Y, X-Y, Z
SYMM -X+Y, -X, Z
SYMM -X, -Y, 0.5+Z
SYMM Y, -X+Y, 0.5+Z
SYMM X-Y, X, 0.5+Z
SYMM Y, X, -Z
SYMM X-Y, -Y, -Z
SYMM -X, -X+Y, -Z
SYMM -Y, -X, 0.5-Z
SYMM -X+Y, Y, 0.5-Z
SYMM X, X-Y, 0.5-Z
SFAC NA CU SB
UNIT 2 12.69 6
TEMP -173.140
size 0.07 0.07 0.01
acta
L.S. 14
BOND
FMAP 2
PLAN -20

WGHT    0.019900    2.950900
EXTI    0.012173
FVAR       0.08515   0.17149
SB1   3    0.040120    0.020060    0.250000    10.08333    0.04042    0.01342 =
         0.00294    0.00000    0.00000    0.02021
SB2   3    0.333333    0.666667    0.089368    10.16667    0.00417    0.00417 =
         0.00237    0.00000    0.00000    0.00208
CU1   2    0.666667    0.333333    0.359421    10.16667    0.00366    0.00366 =
         0.03570    0.00000    0.00000    0.00183
CU2   2    0.333333    0.666667    0.196866    10.16667    0.01534    0.01534 =
         0.00268    0.00000    0.00000    0.00767
CU3   2    0.000000    0.000000    0.139531    10.16667    0.00394    0.00394 =
         0.00630    0.00000    0.00000    0.00197
CU4   2    0.666667    0.333333    0.250000    20.16667    0.00552    0.00552 =
         0.00863    0.00000    0.00000    0.00276
NA1   1    0.000000    0.000000    0.000000    10.08333    0.01075    0.01075 =
         0.00674    0.00000    0.00000    0.00538
HKLF 4




REM  mo_BOB_276_0m in P6(3)/mmc
REM R1 =  0.0218 for     263 Fo > 4sig(Fo)  and  0.0223 for all     265 data
REM     23 parameters refined using      0 restraints

END

WGHT      0.0202      2.9316

REM Highest difference peak  1.935,  deepest hole -1.263,  1-sigma level  0.297
Q1    1  -0.3333  0.3333  0.3303  10.16667  0.05    1.94
Q2    1  -0.3333  0.3333  0.3005  10.16667  0.05    1.47
Q3    1  -0.3333  0.3333  0.0890  10.16667  0.05    1.34
Q4    1   0.3333 -0.3333 -0.0269  10.16667  0.05    1.22
Q5    1   0.0000  0.0000  0.2981  10.16667  0.05    1.13
Q6    1   0.0000  0.0000  0.0789  10.16667  0.05    1.04
Q7    1   0.3333 -0.3333  0.0388  10.16667  0.05    0.98
Q8    1   0.3333 -0.3333  0.2500  10.08333  0.05    0.95
Q9    1   0.3333 -0.3333  0.3569  10.16667  0.05    0.89
Q10   1   0.0000  0.0000  0.3891  10.16667  0.05    0.85
Q11   1   0.3333 -0.3333  0.0146  10.16667  0.05    0.78
Q12   1   0.2578  0.5156  0.2500  10.25000  0.05    0.76
Q13   1   0.0751  0.1503  0.3164  10.50000  0.05    0.71
Q14   1   0.3908  0.7816 -0.0609  10.50000  0.05    0.63
Q15   1   0.0647  1.1293  0.0396  10.50000  0.05    0.63
Q16   1   0.5164  1.0328  0.0815  10.50000  0.05    0.41
Q17   1   0.1230  0.2460  0.3932  10.50000  0.05    0.25
Q18   1  -0.1723 -0.3446  0.3598  10.50000  0.05    0.23
Q19   1   0.4411  0.8823 -0.0096  10.50000  0.05    0.15
Q20   1   0.2462  0.2134  0.2500  10.50000  0.05    0.15
;
_shelx_res_checksum              32072
_shelx_hkl_file
;
  -1   1   0    0.41    0.25
   0  -1   0    0.29    0.08
  -1   1   0    0.24    0.08
  -1   1   0    0.40    0.12
   0  -1   0    0.44    0.05
   1   0   0    0.27    0.07
   0  -1   0    0.49    0.05
  -1   0   0    0.38    0.04
   1  -1   0    0.19    0.07
   1  -1   0    0.31    0.22
   0   1   0    0.33    0.04
  -1   0   0    0.37    0.06
   1  -1   0    0.28    0.10
   0   1   0    0.36    0.09
  -1   2   0 1000.00   33.26
   0  -2   0    0.09    0.05
   2   0   0    0.02    0.12
   2   0   0    0.13    0.05
   0  -2   0    0.08    0.13
  -2   2   0    0.00    0.10
  -2   2   0   -0.09    0.17
   0   2   0   -0.19    0.14
   0   2   0    0.23    0.06
   2  -2   0    0.50    0.17
  -2   0   0    0.06    0.07
   0   2   0    0.08    0.07
   2  -2   0   -0.38    0.33
   1   2   0    0.49    0.09
   2  -3   0    0.42    0.19
   1   2   0    0.78    0.26
   1   2   0    0.34    0.08
   1   2   0    0.40    0.10
   2  -3   0    0.09    0.16
   2  -3   0    0.81    0.45
   3  -1   0    0.46    0.13
  -2   3   0    0.50    0.55
  -2   3   0    0.37    0.09
  -1  -2   0    0.33    0.09
  -1  -2   0    0.31    0.08
  -1  -2   0    0.51    0.19
  -2   3   0    0.22    0.14
   3  -1   0    0.23    0.11
   2   1   0    0.32    0.12
   1  -3   0    0.34    0.13
   2   1   0    0.37    0.10
  -3   2   0    0.42    0.19
   2   1   0    0.32    0.22
   1  -3   0    0.28    0.12
   1  -3   0    0.17    0.25
  -3   2   0    0.25    0.10
   3  -2   0    0.40    0.12
  -1   3   0    0.38    0.08
  -1   3   0    0.63    0.34
  -2  -1   0    0.70    0.18
  -1   3   0    0.27    0.10
  -2  -1   0    0.31    0.08
   3   0   0  598.04   21.32
   0  -3   0  634.68   21.36
   3   0   0  610.86   21.11
   3   0   0  597.47   21.10
  -3   3   0  661.84   21.06
  -3   3   0  710.94   21.31
   3  -3   0  693.27   21.47
   3  -3   0  677.92   21.33
   0   3   0  609.42   21.44
  -3   0   0  612.55   21.14
   0   3   0  594.89   21.17
   3  -3   0  648.03   21.12
   3  -3   0  657.83   22.11
   1   3   0    1.24    0.17
   1   3   0    1.20    0.20
   1   3   0    0.86    0.21
  -4   1   0    0.87    0.30
   3  -4   0    0.65    0.76
   3  -4   0    1.02    0.35
   3  -4   0    1.11    0.22
  -3   4   0    0.80    0.14
  -1  -3   0    0.79    0.18
  -1  -3   0    0.97    0.15
  -3   4   0    1.93    1.40
  -1  -3   0    1.47    0.37
   4  -1   0    0.83    0.20
   4  -1   0    0.65    0.17
  -1  -3   0    0.82    0.31
  -1  -3   0    1.02    0.20
  -3   4   0    0.89    0.27
   2   2   0  531.83   17.83
   2   2   0  489.12   17.79
  -4   2   0  526.61   17.77
   2  -4   0  557.66   17.98
  -4   2   0  521.36   18.04
   2  -4   0  566.75   18.02
   2  -4   0  565.35   18.53
  -2   4   0  532.42   18.08
  -2  -2   0  523.93   17.79
   4  -2   0  521.59   17.83
  -2  -2   0  568.99   18.01
   4  -2   0  538.99   19.76
  -2   4   0  551.46   17.90
  -2   4   0  523.72   17.76
  -2   4   0  535.45   19.26
  -2  -2   0  545.59   17.80
   4  -2   0  547.76   18.31
   3   1   0    0.73    0.18
   1  -4   0    0.88    0.23
   3   1   0    0.95    0.21
   1  -4   0    0.97    0.25
   1  -4   0    0.89    0.33
  -4   3   0    1.20    0.16
  -4   3   0    0.59    0.29
   1  -4   0    0.95    0.46
  -1   4   0    0.95    0.14
  -1   4   0    0.92    0.19
   4  -3   0    0.48    0.94
  -3  -1   0    1.13    0.38
  -3  -1   0    1.15    0.21
   4  -3   0    0.91    0.19
  -1   4   0    0.98    0.30
  -3  -1   0    0.98    0.20
   4   0   0    1.46    0.25
   0  -4   0    1.24    0.26
   0  -4   0    1.42    0.16
  -4   4   0    1.51    0.16
  -4   4   0    1.59    0.37
   0  -4   0    1.53    0.36
  -4   4   0    1.52    0.56
   4  -4   0    1.61    0.43
   4  -4   0    1.41    0.52
   0   4   0    1.46    0.17
   4  -4   0    0.80    0.93
  -4   0   0    1.56    0.33
   0   4   0    1.23    0.23
   4  -4   0    1.52    0.32
  -4   0   0    1.40    0.50
  -5   1   0  307.05   10.45
   1   4   0  309.49   10.37
   1   4   0  295.05   10.30
  -5   1   0  290.13   11.53
   4  -5   0  309.47   10.92
   1   4   0  312.52   10.32
   4  -5   0  320.14   10.31
   1   4   0  308.33   10.30
  -5   1   0  335.32   10.40
  -1  -4   0  302.57   10.64
  -1  -4   0  293.23   10.35
  -4   5   0  305.50   10.43
   5  -1   0  317.31   10.30
  -4   5   0  315.40   10.45
   5  -1   0  311.93   10.31
   5  -1   0  303.95   10.37
  -4   5   0  332.99   10.91
  -4   5   0  305.92   10.29
  -5   2   0    1.49    0.33
   3  -5   0    1.31    0.55
   2   3   0    1.24    0.26
  -5   2   0    1.09    0.53
   3  -5   0    1.09    0.42
  -5   2   0    1.41    0.26
   3  -5   0    1.04    0.30
  -3   5   0    1.18    0.16
   5  -2   0    1.71    0.66
   5  -2   0    0.83    0.18
  -2  -3   0    1.44    0.37
  -3   5   0    1.55    0.42
   5  -2   0   -0.25    1.68
   2  -5   0    1.02    0.42
   3   2   0    1.25    0.27
  -5   3   0    2.77    0.70
   2  -5   0    1.21    0.36
  -5   3   0    1.38    0.23
  -5   3   0    1.39    0.27
  -3  -2   0    2.26    0.59
   5  -3   0    1.19    0.25
   5  -3   0    1.08    0.77
  -2   5   0    1.09    0.16
  -2   5   0    0.75    0.29
  -3  -2   0    1.09    0.22
   5  -3   0    1.47    1.48
   1  -5   0  300.23   10.62
   4   1   0  301.93   10.17
  -5   4   0  315.36   10.66
   4   1   0  303.95   10.09
  -5   4   0  309.55   10.30
   1  -5   0  311.08   10.16
   4   1   0  309.47   10.16
  -5   4   0  306.68   10.23
   4   1   0  315.73   10.12
  -5   4   0  301.52   10.12
   5  -4   0  309.81   10.22
   5  -4   0  305.45   10.14
  -4  -1   0  283.79   10.41
   5  -4   0  308.89   10.79
  -4  -1   0  293.93   10.76
  -1   5   0  303.41   10.18
  -1   5   0  304.78   10.10
  -4  -1   0  277.72   10.29
  -1   5   0  312.04   10.15
   5  -4   0  306.54   10.17
   5   0   0    1.33    0.28
  -5   5   0    1.03    0.40
  -5   5   0    1.17    0.17
   5   0   0    1.33    0.23
   0  -5   0    1.56    0.48
  -5   5   0    0.79    0.35
  -5   5   0    0.78    0.29
   5   0   0    1.35    0.21
   5   0   0    1.35    0.26
  -5   0   0    1.05    0.30
   0   5   0    1.22    0.24
  -5   0   0    1.13    0.29
   5  -5   0    1.41    0.26
  -5   0   0    1.00    0.58
   0   5   0    1.30    0.26
   5  -5   0    1.03    0.22
   5  -5   0    1.06    0.23
   0   5   0    1.22    0.21
   5  -5   0    0.76    0.55
   3   3   0  226.99    7.64
   3  -6   0  223.88    8.38
   3  -6   0  243.09    7.69
   3   3   0  231.34    7.72
   3   3   0  216.48    7.59
  -6   3   0  233.52    7.83
   3  -6   0  228.22    7.65
  -6   3   0  236.21    8.29
  -3   6   0  230.70    7.61
  -3   6   0  230.90    7.71
  -3  -3   0  215.93    8.08
  -3  -3   0  229.11    7.74
  -3   6   0  230.08    7.81
   6  -3   0  218.23    7.68
  -3   6   0  232.49    7.74
  -3  -3   0  227.03    7.66
   6  -3   0  227.81    7.71
   6  -3   0  219.06    7.71
   0   1  -1   40.73    1.39
   0   1  -1   42.75    1.48
   0   1  -1   40.75    1.37
   1  -1  -1   37.16    1.50
   1  -1  -1   39.70    1.76
   1  -1  -1   40.71    1.48
  -1   1   1   39.82    1.46
  -1   1   1   38.58    1.52
  -1   1   1   38.66    1.77
   1   0   1   42.15    1.37
   1   0   1   41.70    1.42
   0  -1   1   41.05    1.37
   0  -1   1   40.61    1.38
   0  -1   1   42.49    1.46
   1   0  -1   40.99    1.40
   0  -1  -1   42.48    1.40
  -1   1  -1   41.35    1.78
   0  -1  -1   42.65    1.47
   0  -1  -1   42.08    1.41
   0   1   1   41.09    1.39
   1  -1   1   40.82    1.51
  -1   0   1   42.99    1.41
   0   1   1   41.41    1.48
   1  -1   1   41.30    1.75
  -1   0   1   40.94    1.40
   0   1   1   40.36    1.41
   1  -1   1   39.79    1.50
  -1   2  -1    0.26    0.21
   1  -2   1    0.32    0.18
   1   1   1    0.82    0.08
   1   1   1    0.99    0.09
  -1   3  -1   16.76    0.77
   3  -2  -1   16.85    0.70
  -1   3  -1   16.66    0.68
   3  -2  -1   15.78    1.50
  -2  -1  -1   17.96    0.66
   3  -2  -1   17.50    0.99
  -1   3  -1   17.29    0.63
  -2  -1  -1   17.92    0.66
  -1   3  -1   17.97    1.08
  -2  -1  -1   17.58    0.76
   2   1   1   17.32    0.67
   1  -3   1   16.00    0.96
   1  -3   1   17.17    0.74
   1  -3   1   16.65    0.71
  -3   2   1   16.40    0.65
   2   1   1   16.11    0.67
  -3   2   1   16.55    0.83
   2   1   1   16.53    0.83
   0   2  -1   26.96    0.96
   2  -2  -1   27.93    1.20
   2  -2  -1   27.15    1.59
   0   2  -1   23.61    1.22
  -2   0  -1   25.86    1.00
   0   2  -1   27.50    1.01
   2  -2  -1   28.73    1.15
   2   0   1   27.20    0.97
   2   0   1   25.54    1.14
   0  -2   1   27.34    0.98
   0  -2   1   29.03    0.99
  -2   2   1   27.60    1.10
   0  -2   1   26.97    1.13
  -2   1  -1    0.11    0.08
   1  -2  -1   -0.05    0.17
   1   1  -1    0.10    0.05
   1   1  -1    0.09    0.10
  -1   2   1    0.01    0.08
  -1  -1   1   -0.08    0.08
  -1   2   1   -0.02    0.20
  -1  -1   1    0.03    0.03
  -1   2   1    0.06    0.06
  -2   2  -1   26.66    1.12
  -2   2  -1   24.27    1.21
   2   0  -1   27.46    1.12
   0  -2  -1   27.51    0.99
   0  -2  -1   28.11    1.13
   0  -2  -1   28.57    0.98
   2   0  -1   28.14    0.99
   0   2   1   27.91    1.02
  -2   0   1   27.44    1.01
   0   2   1   27.68    0.96
   2  -2   1   28.76    1.61
   2  -2   1   26.12    1.21
   0   2   1   27.86    1.18
   3  -1  -1   17.03    0.90
  -2   3  -1   15.73    0.64
  -1  -2  -1   17.01    0.80
  -1  -2  -1   17.06    0.65
   3  -1  -1   17.47    0.71
  -2   3  -1   16.35    0.77
  -1  -2  -1   17.46    0.65
   3  -1  -1   16.83    0.71
  -2   3  -1   16.54    0.87
  -2   3  -1   16.63    1.37
   2  -3   1   17.68    0.84
   1   2   1   16.73    0.69
   2  -3   1   16.44    0.80
   2  -3   1   16.29    1.20
   1   2   1   17.04    0.68
   1   2   1   16.82    0.86
   1   2   1   17.42    0.63
  -2  -2  -1    0.37    0.11
  -2   4  -1    0.18    0.19
  -2   4  -1    0.15    0.28
  -2   4  -1    0.13    0.08
   4  -2  -1    0.84    0.43
  -2  -2  -1   -0.05    0.23
  -2   4  -1    0.40    0.74
   4  -2  -1    0.38    0.32
   4  -2  -1    0.10    1.25
   4  -2  -1   -0.10    0.13
  -4   2   1    0.29    0.10
   2   2   1    0.17    0.12
  -4   2   1    0.37    0.27
   2  -4   1   -0.23    0.49
   2   2   1    0.12    0.13
   2  -4   1    0.65    0.25
   2  -4   1    0.15    0.22
   5  -3  -1   11.02    2.06
  -3  -2  -1    4.82    0.66
  -2   5  -1    4.48    0.29
   5  -3  -1    4.98    0.37
  -3  -2  -1    5.24    0.35
  -2   5  -1    4.71    0.47
   5  -3  -1    4.84    1.11
   2  -5   1    5.02    0.60
  -5   3   1    6.25    0.45
  -5   3   1    4.24    0.81
  -5   3   1    5.46    0.34
   2  -5   1    4.88    0.34
   3   2   1    5.15    0.36
   2  -5   1    4.22    0.66
  -1   4  -1   12.14    0.55
  -3  -1  -1   10.44    0.57
  -3  -1  -1   11.77    0.55
   4  -3  -1   12.23    0.58
   4  -3  -1   11.04    1.74
  -1   4  -1   11.51    0.48
  -3  -1  -1   12.16    0.82
   4  -3  -1   12.75    0.93
  -1   4  -1   11.13    0.70
  -4   3   1   12.21    0.74
   3   1   1   12.07    0.56
   1  -4   1   11.44    0.62
   1  -4   1   11.54    0.61
  -4   3   1   12.13    0.50
   1  -4   1   11.62    0.98
   3   1   1   10.87    0.55
   3  -3  -1    0.24    0.14
   0   3  -1    0.35    0.32
   3  -3  -1    0.02    0.19
   3  -3  -1    0.49    0.66
   0   3  -1    0.26    0.09
   0   3  -1    0.34    0.08
   3  -3  -1    0.08    0.24
   0   3  -1    0.08    0.12
   0  -3   1    0.16    0.24
   3   0   1   -0.19    0.22
  -3   3   1    0.18    0.08
   3   0   1    0.23    0.14
   0  -3   1    0.13    0.11
   1   2  -1   15.77    0.67
   1   2  -1   17.95    0.62
   2  -3  -1   15.84    1.23
   2  -3  -1   16.00    0.78
   2  -3  -1   17.80    0.85
   1   2  -1   16.56    0.87
   1   2  -1   16.87    0.64
   3  -1   1   16.93    0.71
  -1  -2   1   16.74    0.65
  -1  -2   1   17.31    0.65
  -2   3   1   16.46    1.39
  -1  -2   1   16.20    0.81
  -2   3   1   16.08    0.88
   3  -1   1   16.57    0.67
  -2   3   1   16.48    0.76
  -2   3   1   16.12    0.62
  -3   2  -1   16.38    0.84
   1  -3  -1   17.05    0.72
   1  -3  -1   16.68    0.95
   1  -3  -1   17.20    0.74
   2   1  -1   17.40    0.68
   2   1  -1   17.72    0.68
   2   1  -1   16.97    0.86
  -2  -1   1   16.93    0.78
   3  -2   1   16.92    1.54
  -1   3   1   17.00    0.68
  -2  -1   1   17.96    0.67
  -1   3   1   15.90    1.05
   3  -2   1   16.52    0.69
  -2  -1   1   17.97    0.67
  -1   3   1   17.81    0.63
  -1   3   1   16.59    0.78
  -3   3  -1    0.48    0.20
   0  -3  -1    0.23    0.10
   3   0  -1    0.25    0.14
   3   0  -1    0.35    0.24
   0  -3  -1    0.17    0.24
   0  -3  -1    0.80    0.15
  -3   0   1    0.80    0.18
   3  -3   1    0.43    0.13
   3  -3   1    0.51    0.24
   3  -3   1    0.10    0.56
   0   3   1    0.24    0.32
   3  -3   1    1.62    0.42
   0   3   1    0.15    0.13
   0   3   1    0.54    0.12
   4  -1  -1   12.64    0.58
  -1  -3  -1   12.15    0.55
  -3   4  -1   11.44    0.50
  -1  -3  -1   12.31    0.92
  -3   4  -1   13.82    2.15
  -1  -3  -1   12.33    0.79
  -3   4  -1   12.41    0.71
  -1  -3  -1   12.87    0.56
  -1  -3  -1   11.72    0.49
  -4   1   1   12.20    0.49
   1   3   1   12.01    0.55
   1   3   1   11.45    0.50
   3  -4   1   11.42    0.54
   3  -4   1   11.61    1.50
   5  -2  -1    5.81    1.07
  -3   5  -1    5.05    0.30
  -2  -3  -1    4.98    0.61
  -3   5  -1    5.81    0.61
   5  -2  -1    4.68    0.37
  -2  -3  -1    5.48    0.32
  -3   5  -1    5.42    0.54
  -5   2   1    5.30    0.42
   3  -5   1    5.97    0.39
  -5   2   1    5.37    0.86
   3  -5   1    5.13    0.85
   2   3   1    4.77    0.36
   3  -5   1    4.98    0.72
  -3   6  -1    0.19    0.21
  -3   6  -1   -0.01    0.27
   6  -3  -1    0.79    0.22
  -3  -3  -1    0.14    0.14
   6  -3  -1    0.12    0.17
   6  -3  -1    0.17    0.20
  -3   6  -1    0.25    0.31
  -3  -3  -1    0.35    0.42
  -3   6  -1    0.54    0.14
  -6   3   1    0.05    0.27
   3  -6   1   -0.27    0.49
   3   3   1    0.25    0.13
  -6   3   1    0.22    0.24
   3   3   1    0.03    0.19
   3  -6   1    0.71    0.21
   3  -6   1    0.24    0.16
  -6   3   1    0.40    0.52
  -1   5  -1    0.29    0.17
   5  -4  -1    0.54    0.16
   5  -4  -1    0.44    0.54
  -1   5  -1    0.25    0.34
  -1   5  -1    0.34    0.11
  -4  -1  -1   -0.23    0.26
   5  -4  -1    0.38    0.19
  -1   5  -1    0.84    0.22
  -4  -1  -1    0.05    0.28
  -4  -1  -1   -0.42    0.38
   5  -4  -1    0.23    0.17
   4   1   1    0.72    0.24
   4   1   1    0.21    0.16
  -5   4   1    0.77    0.48
  -5   4   1    0.03    0.24
   4   1   1    0.83    0.18
  -5   4   1    0.37    0.11
   1  -5   1    0.63    0.39
   4   1   1    0.31    0.13
   1  -5   1    0.40    0.18
  -5   4   1    0.31    0.35
   4  -4  -1    5.34    1.27
   4  -4  -1    5.61    0.39
   4  -4  -1    4.53    0.80
   0   4  -1    5.04    0.39
  -4   0  -1    3.60    0.71
   4  -4  -1    6.12    0.75
   0   4  -1    5.23    0.29
  -4   0  -1    4.98    0.42
   0  -4   1    5.07    0.28
   4   0   1    4.85    0.35
   0  -4   1    4.56    0.78
   0  -4   1    4.58    0.53
  -4   4   1    5.67    0.28
  -4   4   1    4.57    0.83
  -4   4   1    5.69    0.52
   0  -4   1    4.91    0.38
   1   3  -1   11.35    0.61
   1   3  -1   10.75    0.68
   1   3  -1   12.08    0.50
   3  -4  -1   12.00    1.48
   3  -4  -1   12.79    0.86
  -4   1  -1   11.25    0.66
   3  -4  -1   11.98    0.56
  -3   4   1   11.98    0.49
  -1  -3   1   12.52    0.80
  -1  -3   1   10.94    0.73
  -1  -3   1   11.95    0.54
   4  -1   1   11.31    0.60
   4  -1   1   11.41    0.55
  -1  -3   1   11.03    0.54
  -3   4   1   11.70    0.68
   2  -4  -1    0.22    0.52
   2  -4  -1    0.07    0.21
   2  -4  -1   -0.10    0.19
   2   2  -1    0.11    0.12
  -4   2  -1    0.18    0.10
   2   2  -1    0.15    0.13
  -4   2  -1    0.14    0.25
   4  -2   1    0.47    0.95
  -2  -2   1    0.03    0.10
   4  -2   1   -0.03    0.12
  -2  -2   1    0.11    0.09
  -2   4   1    0.38    0.18
  -2  -2   1    0.00    0.09
   4  -2   1   -0.12    0.34
  -2   4   1    0.22    0.26
  -2  -2   1    0.11    0.23
   1  -4  -1   12.12    0.76
   1  -4  -1   12.10    0.62
   1  -4  -1   11.88    0.62
  -4   3  -1   11.43    0.51
  -4   3  -1   12.24    0.75
   1  -4  -1   10.97    0.96
   3   1  -1   12.16    0.57
   1  -4  -1   12.68    0.59
   3   1  -1   11.68    0.58
  -1   4   1   11.43    0.71
   4  -3   1   12.46    0.94
   4  -3   1   11.75    0.57
  -3  -1   1   11.74    0.55
   4  -3   1   11.18    1.74
  -1   4   1   11.79    0.55
  -3  -1   1   12.04    0.54
  -3  -1   1   10.97    0.82
  -1   4   1   11.97    0.48
  -4   4  -1    5.42    0.53
  -4   4  -1    5.05    0.28
   0  -4  -1    4.13    0.75
   0  -4  -1    5.37    0.55
  -4   4  -1    5.41    0.79
   0  -4  -1    5.57    0.28
   4   0  -1    5.21    0.38
   0  -4  -1    5.17    0.38
  -4   0   1    5.60    0.41
   4  -4   1    5.47    0.83
   0   4   1    5.37    0.35
   4  -4   1    5.62    0.76
   4  -4   1    5.82    1.29
  -4   0   1    5.34    0.28
  -4   0   1    4.56    0.77
   0   4   1    4.82    0.27
   5  -1  -1    0.23    0.15
  -4   5  -1    0.32    0.11
  -4   5  -1    0.54    0.29
   5  -1  -1    0.28    0.13
  -4   5  -1    0.10    0.26
  -1  -4  -1    0.31    0.15
  -4   5  -1    0.65    0.58
   5  -1  -1    0.33    0.18
  -1  -4  -1    0.53    0.32
   1   4   1    0.19    0.16
   4  -5   1    0.84    0.23
   4  -5   1    0.31    0.45
  -5   1   1    0.20    0.63
   1   4   1    0.50    0.15
   1   4   1    0.02    0.16
   1   4   1    0.24    0.14
  -5   1   1    0.36    0.20
  -5   1   1    0.13    0.30
   5  -5  -1    6.44    0.38
   0   5  -1    6.42    0.36
   5  -5  -1    6.51    0.40
   0   5  -1    7.06    0.47
  -5   0  -1    6.39    0.49
  -5   0  -1    7.14    0.59
  -5   0  -1    5.80    0.94
   0   5  -1    6.40    0.41
   5  -5  -1    7.20    0.48
   5  -5  -1    7.03    1.25
   5   0   1    6.59    0.46
  -5   5   1    5.92    0.33
   5   0   1    6.08    0.38
   5   0   1    6.49    0.36
  -5   5   1    6.35    0.52
  -5   5   1    6.81    0.56
   5   0   1    6.37    0.41
  -5   5   1    7.27    0.99
   0  -5   1    6.20    0.72
  -5   5   1    5.97    0.61
   4  -5  -1    0.42    0.14
  -5   1  -1    0.34    0.20
  -5   1  -1    0.37    0.29
   1   4  -1    0.62    0.16
   1   4  -1    0.22    0.17
   1   4  -1    0.31    0.16
   1   4  -1    0.13    0.14
   4  -5  -1    0.16    0.47
   4  -5  -1    0.17    0.57
   5  -1   1    1.06    0.21
  -4   5   1    0.13    0.28
   5  -1   1    0.44    0.15
  -4   5   1   -0.06    0.57
  -1  -4   1    0.35    0.17
  -4   5   1   -0.24    0.27
  -1  -4   1    0.29    0.31
   5  -1   1    0.25    0.15
  -5   2  -1    4.73    0.37
  -5   2  -1    4.56    0.83
   3  -5  -1    5.80    0.41
  -5   2  -1    5.01    0.43
   2   3  -1    5.05    0.57
   3  -5  -1    5.36    0.39
   2   3  -1    4.61    0.36
   3  -5  -1    4.62    0.84
   3  -5  -1    5.17    0.72
  -2  -3   1    4.54    0.59
  -2  -3   1    4.92    0.30
  -3   5   1    5.44    0.52
   5  -2   1    4.74    0.36
   5  -2   1    3.95    1.08
   5  -2   1    3.45    1.96
  -3   5   1    5.10    0.28
  -3   5   1    5.50    0.64
   3   2  -1    4.57    0.39
  -5   3  -1    5.69    0.77
   2  -5  -1    4.55    0.68
  -5   3  -1    5.45    0.46
  -5   3  -1    5.52    0.72
  -5   3  -1    5.99    0.36
   2  -5  -1    4.55    0.66
  -2   5   1    4.77    0.28
  -3  -2   1    4.09    0.64
   5  -3   1    4.46    0.89
  -2   5   1    6.14    0.61
   5  -3   1    5.20    1.18
  -3  -2   1    4.77    0.34
   5  -3   1    4.38    0.36
   5  -3   1    5.78    1.73
   1  -5  -1    0.37    0.33
  -5   4  -1    0.34    0.49
   1  -5  -1    0.15    0.16
  -5   4  -1    0.17    0.35
  -5   4  -1    0.44    0.27
   4   1  -1    0.32    0.19
   4   1  -1    0.18    0.19
  -5   4  -1    0.77    0.27
   4   1  -1    0.19    0.13
   4   1  -1    0.36    0.13
   5  -4   1    0.47    0.21
  -1   5   1    0.49    0.13
   5  -4   1    0.42    0.17
  -4  -1   1    0.47    0.30
  -1   5   1    0.16    0.21
   5  -4   1    0.17    0.59
  -1   5   1    0.40    0.17
   5  -4   1    0.20    0.16
  -4  -1   1    0.52    0.46
  -4  -1   1    0.60    0.22
  -1   5   1    0.51    0.30
   5   0  -1    6.28    0.44
  -5   5  -1    5.69    0.52
  -5   5  -1    5.74    0.96
   5   0  -1    6.31    0.38
  -5   5  -1    5.84    0.33
   5   0  -1    6.79    0.36
  -5   5  -1    5.76    0.62
   5   0  -1    6.56    0.47
  -5   5  -1    7.45    0.66
   5  -5   1    6.38    0.44
   0   5   1    5.92    0.41
   0   5   1    7.02    0.46
  -5   0   1    5.53    0.99
   5  -5   1    5.56    0.90
   5  -5   1    5.71    0.41
   5  -5   1    5.95    0.38
   0   5   1    7.16    0.34
  -5   0   1    7.26    0.57
   3   3  -1   -0.09    0.18
  -6   3  -1    0.46    0.49
   3   3  -1    0.22    0.20
  -6   3  -1   -0.02    0.30
   3   3  -1    0.44    0.15
   3  -6  -1    0.19    0.19
   3  -6  -1    0.65    0.56
  -6   3  -1    0.00    0.25
   3  -6  -1   -0.01    0.15
  -3  -3   1    0.39    0.40
  -3   6   1   -0.06    0.26
   6  -3   1    0.36    0.18
  -3   6   1   -0.34    0.19
  -3   6   1    0.41    0.33
   6  -3   1   -0.04    0.19
  -3  -3   1    0.07    0.15
  -3   6   1    0.12    0.10
   6  -3   1   -0.23    0.19
   1  -1  -2   26.98    1.08
   0   1  -2   27.32    0.95
   0   1  -2   28.52    1.04
   1  -1  -2   26.78    1.03
   1  -1  -2   26.76    1.32
   0   1  -2   27.06    0.93
   1   0   2   27.18    0.93
  -1   1   2   25.54    1.01
   0  -1   2   27.53    0.94
   0  -1   2   26.40    0.93
   0  -1   2   27.49    1.02
   0  -1  -2   27.02    0.93
  -1   1  -2   27.39    1.29
   0  -1  -2   28.10    1.00
   1   0  -2   28.07    1.01
  -1   1  -2   24.30    1.02
   1   0  -2   27.84    0.96
   1   0  -2   27.33    0.95
   0  -1  -2   28.29    0.95
   1  -1   2   27.42    1.04
   1  -1   2   26.88    1.24
   0   1   2   27.17    0.95
  -1   0   2   28.03    0.99
   0   1   2   27.70    1.02
  -1   0   2   27.82    0.95
  -1   0   2   28.34    0.94
   0   1   2   27.31    0.93
  -1   2  -2   69.41    2.61
  -1   2  -2   66.72    2.37
  -1  -1  -2   66.52    2.26
  -1   2  -2   67.25    2.32
  -1  -1  -2   69.83    2.35
  -1  -1  -2   67.28    2.26
   1   1   2   65.88    2.27
  -2   1   2   63.49    2.35
   1  -2   2   65.81    2.32
   1   1   2   67.28    2.37
   1   1   2   65.44    2.27
   1  -2   2   68.08    2.55
   1  -2   2   68.46    2.41
  -1   3  -2   11.09    0.86
  -2  -1  -2   10.15    0.43
   3  -2  -2    9.94    1.27
  -1   3  -2   10.42    0.41
   3  -2  -2   10.12    0.49
  -2  -1  -2   10.62    0.44
  -1   3  -2   10.23    0.55
   3  -2  -2   11.62    0.75
  -1   3  -2   10.10    0.47
  -3   2   2   10.00    0.60
   1  -3   2   10.52    0.75
   2   1   2    9.86    0.46
   2   1   2   10.31    0.44
   1  -3   2   11.24    0.53
   2   1   2   10.24    0.60
  -3   2   2   10.27    0.43
   1  -3   2   10.59    0.50
  -2   0  -2   14.96    0.63
   0   2  -2   15.47    0.63
   2  -2  -2   15.10    1.17
   2  -2  -2   16.62    0.75
   2  -2  -2   15.43    0.80
   0   2  -2   15.29    0.58
   0  -2   2   16.32    0.61
   2   0   2   15.58    0.59
   0  -2   2   15.47    0.75
  -2   2   2   15.46    0.71
   0  -2   2   15.86    0.60
   2   0   2   13.95    0.73
  -2   1  -2   64.25    2.35
   1   1  -2   63.89    2.27
   1  -2  -2   66.16    2.34
   1  -2  -2   69.25    2.55
   1   1  -2   69.66    2.41
   1   1  -2   64.74    2.26
   1  -2  -2   66.43    2.31
  -1  -1   2   66.84    2.37
  -1   2   2   70.34    2.62
  -1   2   2   68.40    2.37
  -1  -1   2   66.43    2.28
  -1  -1   2   63.92    2.25
  -1   2   2   68.67    2.29
   2   0  -2   15.58    0.59
  -2   2  -2   15.85    0.83
   0  -2  -2   15.05    0.59
   0  -2  -2   15.82    0.72
   0  -2  -2   15.45    0.58
  -2   2  -2   15.68    1.29
  -2   2  -2   15.29    0.73
   2   0  -2   14.48    0.72
   0   2   2   15.46    0.56
   2  -2   2   15.65    0.86
   0   2   2   14.28    0.66
   0   2   2   15.35    0.76
  -2   0   2   15.71    0.61
  -1  -2  -2   10.56    0.58
  -2   3  -2   10.02    0.42
  -1  -2  -2    9.92    0.42
  -2   3  -2   10.18    0.56
  -2   3  -2   10.00    0.64
  -1  -2  -2   10.59    0.43
   3  -1  -2   11.21    0.50
   3  -1  -2   10.90    0.50
  -2   3  -2   10.63    1.12
   3  -1  -2    9.73    0.67
   2  -3   2   10.79    0.47
   2  -3   2    9.65    0.56
  -3   1   2    8.80    0.52
   1   2   2   10.95    0.65
   2  -3   2   10.47    0.60
   2  -3   2   10.57    0.97
   1   2   2    9.74    0.45
   1   2   2   10.33    0.42
  -2   4  -2   14.57    0.61
  -2   4  -2   14.74    0.74
  -2  -2  -2   15.99    0.64
   4  -2  -2   17.09    1.13
  -2  -2  -2   15.57    0.63
  -2  -2  -2   14.47    0.80
  -2   4  -2   13.45    1.50
   4  -2  -2   16.10    0.69
   2   2   2   14.89    0.64
   2  -4   2   14.64    0.80
   2   2   2   14.56    0.66
   2  -4   2   13.40    1.22
  -4   2   2   15.69    0.88
  -4   2   2   16.26    0.62
   2  -4   2   15.90    0.63
   5  -3  -2    2.36    1.53
   5  -3  -2    3.68    0.33
  -3  -2  -2    3.37    0.30
  -2   5  -2    3.59    0.26
  -3  -2  -2    3.18    0.59
   5  -3  -2    2.21    0.81
  -5   3   2    4.45    0.77
  -5   3   2    3.96    0.41
   3   2   2    3.08    0.29
  -5   3   2    3.50    0.29
   2  -5   2    3.66    0.60
   2  -5   2    4.59    0.58
   3   2   2    3.69    0.30
   2  -5   2    3.35    0.35
  -3  -1  -2    4.98    0.69
   4  -3  -2    6.07    0.67
   4  -3  -2    6.39    1.53
   4  -3  -2    6.17    0.39
  -1   4  -2    5.09    0.28
  -3  -1  -2    5.23    0.34
  -1   4  -2    5.33    0.50
   1  -4   2    5.79    0.77
   3   1   2    4.95    0.34
   1  -4   2    5.10    0.42
   1  -4   2    5.49    0.40
  -4   3   2    5.76    0.29
  -4   3   2    5.75    0.52
   0   3  -2   25.25    0.88
   0   3  -2   22.92    0.90
   3  -3  -2   24.18    1.75
  -3   0  -2   22.56    0.97
   3  -3  -2   25.75    0.97
   0   3  -2   23.89    1.00
   3  -3  -2   27.11    1.25
   0   3  -2   23.62    1.28
   3  -3  -2   25.83    1.13
   3   0   2   23.38    0.93
   0  -3   2   24.09    1.19
   3   0   2   23.85    1.14
  -3   3   2   24.83    0.89
   0  -3   2   23.94    0.95
   0  -3   2   24.41    0.95
  -3   3   2   25.56    1.08
   3   0   2   24.30    0.93
   2  -3  -2   10.53    0.62
   2  -3  -2   10.59    0.58
   2  -3  -2    9.64    0.99
   1   2  -2   10.30    0.43
   1   2  -2    9.80    0.66
   1   2  -2   10.46    0.41
   1   2  -2   10.31    0.47
  -1  -2   2   10.04    0.44
   3  -1   2   10.66    0.49
  -1  -2   2    9.76    0.60
  -2   3   2   11.10    1.19
  -2   3   2    9.49    0.41
  -2   3   2   10.17    0.53
  -2   3   2   10.57    0.68
  -1  -2   2   10.15    0.43
   3  -1   2   10.26    0.46
   1  -3  -2   10.06    0.51
   1  -3  -2   10.20    0.49
   1  -3  -2    9.71    0.73
   2   1  -2   10.64    0.64
   2   1  -2   10.51    0.46
   2   1  -2   10.78    0.45
  -3   2  -2    9.99    0.61
  -1   3   2   10.72    0.40
  -1   3   2    8.85    0.82
  -2  -1   2   10.99    0.45
   3  -2   2   10.66    0.46
   3  -2   2   11.14    0.77
   3  -2   2   10.09    1.33
  -1   3   2   10.48    0.45
  -2  -1   2   10.37    0.56
  -2  -1   2    9.86    0.44
  -1   3   2   10.33    0.55
   0  -3  -2   22.95    1.15
  -3   3  -2   23.78    0.90
   0  -3  -2   25.88    0.95
   3   0  -2   24.61    1.18
  -3   3  -2   23.63    1.10
   3   0  -2   24.80    0.95
   0  -3  -2   24.92    0.94
   3   0  -2   24.71    0.96
  -3   0   2   24.02    0.86
   3  -3   2   24.82    1.13
   3  -3   2   25.71    1.24
   3  -3   2   23.79    1.76
   0   3   2   24.45    1.00
  -3   0   2   23.50    0.97
   0   3   2   23.40    1.25
   0   3   2   25.41    0.90
   0   3   2   24.56    0.87
   3  -3   2   24.31    0.93
  -3   4  -2    6.00    0.30
  -3   4  -2    5.75    0.50
  -1  -3  -2    5.63    0.34
  -1  -3  -2    5.20    0.33
   4  -1  -2    6.06    0.37
  -3   4  -2    6.04    1.57
  -1  -3  -2    5.08    0.57
  -1  -3  -2    5.54    0.28
   3  -4   2    5.06    0.33
   3  -4   2    6.03    0.63
   1   3   2    5.33    0.34
   3  -4   2    5.79    1.13
   1   3   2    5.38    0.30
  -4   1   2    5.45    0.27
   5  -2  -2    2.79    1.00
  -3   5  -2    3.25    0.43
  -2  -3  -2    4.89    0.76
   5  -2  -2    3.25    0.32
  -2  -3  -2    3.10    0.25
  -3   5  -2    3.90    0.52
  -2  -3  -2    2.64    0.53
  -3   5  -2    3.62    0.25
  -5   2   2    4.39    0.57
   3  -5   2    3.86    0.81
  -5   2   2    3.73    0.84
   2   3   2    2.96    0.28
  -5   2   2    3.72    0.27
   3  -5   2    2.76    0.65
  -5   2   2    4.18    0.39
  -3   6  -2    1.92    0.42
  -3   6  -2    1.77    0.39
  -3   6  -2    2.35    0.23
  -3  -3  -2    2.38    0.26
   6  -3  -2    2.37    0.31
  -3  -3  -2    1.89    0.50
  -3   6  -2    1.56    0.34
   6  -3  -2    2.49    0.35
   6  -3  -2    2.12    0.34
   3  -6   2    2.41    0.33
   3  -6   2    1.24    0.60
  -6   3   2    2.70    0.69
  -6   3   2    2.14    0.31
   3   3   2    2.07    0.24
   3  -6   2    1.79    0.26
   3   3   2    1.73    0.33
  -6   3   2    1.98    0.37
  -6   3   2    2.56    0.42
   5  -4  -2    4.57    0.38
  -1   5  -2    4.03    0.44
  -4  -1  -2    3.90    0.70
   5  -4  -2    4.07    0.32
  -1   5  -2    3.99    0.38
   5  -4  -2    4.02    0.90
  -1   5  -2    4.48    0.33
   5  -4  -2    4.19    0.35
  -4  -1  -2    4.00    0.64
  -1   5  -2    3.80    0.27
  -4  -1  -2    3.59    0.50
   4   1   2    3.72    0.30
  -5   4   2    4.46    0.52
  -5   4   2    5.55    0.82
  -5   4   2    4.02    0.27
  -5   4   2    3.88    0.43
   4   1   2    4.32    0.27
   4   1   2    4.34    0.29
   1  -5   2    4.01    0.36
  -4   0  -2    4.12    0.39
   0   4  -2    4.05    0.25
  -4   0  -2    3.00    0.66
   0   4  -2    3.86    0.32
   4  -4  -2    3.45    1.06
   4  -4  -2    4.25    0.36
   4  -4  -2    5.25    0.78
   4  -4  -2    4.43    0.68
   0  -4   2    3.72    0.49
   0  -4   2    4.74    0.77
  -4   4   2    3.55    0.70
   0  -4   2    4.34    0.25
   4   0   2    3.79    0.30
   0  -4   2    4.18    0.36
  -4   4   2    4.21    0.24
  -4   4   2    4.04    0.47
   3  -4  -2    5.61    1.31
   1   3  -2    5.54    0.32
   3  -4  -2    5.67    0.37
   1   3  -2    5.47    0.30
  -4   1  -2    5.69    0.29
   1   3  -2    5.34    0.41
   3  -4  -2    5.20    0.62
  -4   1  -2    5.36    0.47
  -3   4   2    5.44    0.28
  -1  -3   2    5.29    0.54
  -3   4   2    5.93    0.46
   4  -1   2    4.90    0.39
  -1  -3   2    4.96    0.58
   4  -1   2    4.86    0.33
  -1  -3   2    5.30    0.33
  -1  -3   2    5.02    0.35
   2  -4  -2   15.71    1.29
   2  -4  -2   16.61    0.84
  -4   2  -2   15.34    0.62
   2   2  -2   14.86    0.68
   2   2  -2   15.79    0.70
   2   2  -2   15.63    0.65
  -4   2  -2   13.97    0.85
   2  -4  -2   14.65    0.79
  -2   4   2   15.57    0.72
   4  -2   2   17.54    1.12
  -2  -2   2   16.57    0.66
  -2   4   2   15.23    0.92
   4  -2   2   15.09    0.66
  -2  -2   2   14.97    0.64
  -2  -2   2   14.83    0.58
   4  -2   2   14.72    1.92
  -2  -2   2   15.22    0.85
  -2   4   2   14.61    0.59
  -4   3  -2    5.36    0.30
   1  -4  -2    5.50    0.76
   3   1  -2    5.37    0.36
   1  -4  -2    4.96    0.40
   1  -4  -2    5.47    0.40
   3   1  -2    5.06    0.37
   1  -4  -2    4.76    0.52
  -4   3  -2    6.01    0.54
   4  -3   2    7.97    1.46
  -1   4   2    5.66    0.33
  -1   4   2    5.13    0.27
  -3  -1   2    5.51    0.28
  -3  -1   2    4.87    0.34
  -3  -1   2    5.44    0.33
   4  -3   2    5.65    0.35
  -1   4   2    5.64    0.51
   4  -3   2    7.55    0.78
  -4   4  -2    3.88    0.81
   4   0  -2    4.09    0.35
   0  -4  -2    4.71    0.74
  -4   4  -2    4.09    0.25
  -4   4  -2    3.95    0.50
   0  -4  -2    3.87    0.34
   0  -4  -2    4.25    0.24
   0  -4  -2    3.60    0.50
   0   4   2    3.65    0.26
  -4   0   2    4.85    0.79
   4  -4   2    4.12    0.85
   4  -4   2    3.97    0.72
   4  -4   2    4.65    1.30
   4  -4   2    4.09    0.33
  -4   0   2    4.39    0.39
   0   4   2    4.23    0.34
   5  -1  -2    4.34    0.36
   5  -1  -2    4.21    0.31
   5  -1  -2    4.56    0.31
  -4   5  -2    4.02    0.26
  -4   5  -2    3.87    0.47
  -4   5  -2    4.18    0.48
  -1  -4  -2    4.27    0.32
  -4   5  -2    4.67    0.92
  -1  -4  -2    4.40    0.58
  -5   1   2    3.61    1.17
  -5   1   2    4.41    0.46
   4  -5   2    4.57    0.83
   1   4   2    4.35    0.30
   1   4   2    4.31    0.33
  -5   1   2    4.85    0.39
   1   4   2    4.42    0.29
   4  -5   2    3.90    0.36
   4  -5   2    4.08    0.31
  -5   1   2    3.72    0.49
   1   4   2    4.20    0.36
   0   5  -2    2.28    0.34
   5  -5  -2    2.69    0.25
   0   5  -2    2.20    0.28
   5  -5  -2    2.67    0.27
  -5   0  -2    2.51    0.47
  -5   0  -2    1.36    0.60
  -5   0  -2    2.22    0.37
   0   5  -2    2.24    0.25
   5   0   2    2.45    0.35
  -5   5   2    2.81    0.44
  -5   5   2    2.20    0.69
   5   0   2    2.32    0.25
   5   0   2    2.03    0.23
   5   0   2    2.12    0.26
  -5   5   2    3.23    0.59
  -5   5   2    2.55    0.40
  -5   5   2    2.36    0.20
   0  -5   2    1.52    0.42
   1   4  -2    3.65    0.34
   1   4  -2    4.01    0.30
  -5   1  -2    4.65    0.46
   1   4  -2    4.19    0.29
   1   4  -2    4.32    0.32
   4  -5  -2    3.72    0.28
  -5   1  -2    4.03    0.50
   4  -5  -2    4.25    0.84
   5  -1   2    4.05    0.29
  -4   5   2    4.11    0.46
  -4   5   2    5.31    0.98
   5  -1   2    4.20    0.30
  -1  -4   2    3.42    0.68
   5  -1   2    3.54    0.31
  -4   5   2    4.13    0.51
  -4   5   2    3.51    0.47
  -1  -4   2    3.70    0.37
  -4   5   2    4.36    0.25
   2   3  -2    3.74    0.32
  -5   2  -2    3.46    0.41
   2   3  -2    2.54    0.35
   3  -5  -2    3.38    0.35
  -5   2  -2    3.69    0.70
   3  -5  -2    2.93    0.31
  -5   2  -2    4.45    0.39
   3  -5  -2    3.47    0.68
   3  -5  -2    3.62    0.79
   5  -2   2    3.29    0.30
  -3   5   2    3.73    0.45
  -3   5   2    3.24    0.45
  -2  -3   2    3.53    0.26
   5  -2   2    4.02    1.92
  -2  -3   2    2.90    0.54
  -3   5   2    3.33    0.22
  -5   3  -2    3.85    0.42
   3   2  -2    3.13    0.35
  -5   3  -2    4.48    0.72
   2  -5  -2    3.46    0.65
  -5   3  -2    4.04    0.59
  -2   5   2    3.54    0.22
  -3  -2   2    2.98    0.28
   5  -3   2    3.84    0.90
   5  -3   2    3.74    1.64
   5  -3   2    4.47    0.89
   5  -3   2    3.19    0.31
  -3  -2   2    3.30    0.60
   4   1  -2    3.81    0.36
  -5   4  -2    3.63    0.57
  -5   4  -2    4.45    0.84
   1  -5  -2    4.44    0.34
   4   1  -2    4.54    0.38
  -5   4  -2    4.77    0.47
   4   1  -2    4.46    0.30
   1  -5  -2    4.41    0.62
  -5   4  -2    3.44    0.45
  -5   4  -2    4.03    0.28
  -1   5   2    4.60    0.25
   5  -4   2    3.74    0.34
  -1   5   2    4.57    0.33
   5  -4   2    3.76    0.38
  -1   5   2    4.38    0.40
  -4  -1   2    3.24    0.39
   5  -4   2    4.04    0.33
  -4  -1   2    4.83    1.16
  -4  -1   2    4.13    0.49
   5  -4   2    3.56    0.80
   5   0  -2    2.01    0.31
   5   0  -2    2.15    0.25
   5   0  -2    2.31    0.36
  -5   5  -2    2.57    0.49
  -5   5  -2    1.89    0.36
  -5   5  -2    2.59    0.22
  -5   5  -2    2.73    0.69
  -5   5  -2    2.73    0.56
   5   0  -2    2.10    0.24
  -5   0   2    1.60    0.65
   0   5   2    2.42    0.22
   5  -5   2    2.38    0.30
   0   5   2    2.15    0.30
   0   5   2    2.19    0.33
   5  -5   2    2.75    0.26
  -5   0   2    2.51    0.42
   5  -5   2    2.19    0.62
   5  -5   2    2.04    0.31
  -6   3  -2    2.16    0.47
   3   3  -2    2.04    0.25
  -6   3  -2    2.78    0.41
   3   3  -2    2.33    0.33
   3  -6  -2    2.88    0.72
  -6   3  -2    1.82    0.60
   3   3  -2    1.80    0.33
   6  -3   2    2.64    0.33
  -3   6   2    2.18    0.35
  -3  -3   2    2.11    0.52
   6  -3   2    2.32    0.30
  -3   6   2    2.25    0.20
  -3  -3   2    2.52    0.27
  -3   6   2    2.27    0.45
   6  -3   2    1.90    0.33
  -3   6   2    2.48    0.49
   0   0  -3    0.07    0.02
   1  -1  -3   36.18    1.69
   0   1  -3   37.84    1.30
   0   1  -3   38.39    1.32
   1  -1  -3   38.68    1.40
   1  -1  -3   37.38    1.45
   0   1  -3   38.53    1.41
  -1   1   3   38.29    1.38
   0  -1   3   40.72    1.41
   0  -1   3   37.93    1.31
   1   0   3   38.30    1.29
   0  -1   3   38.03    1.31
  -1   1  -3   41.37    1.70
   0  -1  -3   40.97    1.35
   0  -1  -3   40.27    1.33
   1   0  -3   41.89    1.43
   0  -1  -3   40.98    1.40
   1   0  -3   38.93    1.35
  -1   1  -3   35.39    1.43
   1  -1   3   38.30    1.43
   0   1   3   41.44    1.42
  -1   0   3   38.69    1.35
   1  -1   3   41.69    1.64
   1  -1   3   38.41    1.45
   0   1   3   39.01    1.32
   0   1   3   38.81    1.35
  -1   0   3   41.28    1.41
  -1   0   3   39.08    1.35
  -1  -1  -3    0.15    0.04
  -1   2  -3   -0.02    0.07
  -1   2  -3    0.06    0.19
  -1  -1  -3    0.09    0.07
   1  -2   3   -0.18    0.16
   1   1   3   -0.01    0.09
  -2   1   3    0.03    0.07
   1   1   3    0.05    0.04
   1  -2   3    0.04    0.07
   1  -2   3    0.17    0.08
  -1   3  -3   26.31    0.92
   3  -2  -3   26.23    1.28
  -1   3  -3   25.33    1.37
  -2  -1  -3   25.90    0.94
   3  -2  -3   26.19    0.99
   3  -2  -3   23.44    1.78
  -2  -1  -3   25.49    0.93
  -1   3  -3   24.97    1.06
  -1   3  -3   25.34    0.98
   1  -3   3   26.35    1.03
  -3   2   3   26.23    0.93
   2   1   3   25.18    0.94
   1  -3   3   25.40    1.27
   2   1   3   26.09    0.95
  -3   2   3   25.71    1.13
   2   1   3   25.41    1.10
   1  -3   3   26.20    1.02
   0   2  -3   27.28    1.00
   2  -2  -3   28.44    1.24
   0   2  -3   27.71    1.05
   2  -2  -3   27.62    1.63
   2  -2  -3   31.06    1.18
  -2   2   3   27.84    1.12
   2   0   3   26.12    1.15
   0  -2   3   28.18    1.18
   0  -2   3   28.65    1.03
   0  -2   3   29.02    1.05
   1   1  -3    0.00    0.04
   1  -2  -3    0.05    0.17
   1   1  -3    0.01    0.11
   1   1  -3    0.10    0.05
   1  -2  -3    0.17    0.08
   1  -2  -3    0.04    0.08
  -1   2   3    0.13    0.23
  -1   2   3    0.07    0.05
  -1   2   3    0.03    0.09
  -1  -1   3    0.27    0.11
   2  -1   3    0.24    0.17
   0  -2  -3   28.42    0.99
   2   0  -3   28.65    1.01
  -2   2  -3   25.72    1.22
   0  -2  -3   27.88    1.00
   0  -2  -3   27.54    1.12
  -2   2  -3   26.74    1.15
  -2   2  -3   25.72    1.70
   2   0  -3   28.50    1.21
   0   2   3   28.87    0.97
  -2   0   3   29.00    1.00
   0   2   3   27.70    1.17
   2  -2   3   28.61    1.19
  -2   3  -3   26.24    1.17
  -1  -2  -3   26.41    0.93
  -2   3  -3   24.91    1.07
  -1  -2  -3   25.84    1.08
  -2   3  -3   24.95    0.93
   3  -1  -3   27.15    1.00
  -1  -2  -3   26.49    0.94
   3  -1  -3   25.22    1.01
   3  -1  -3   25.36    1.22
  -2   3  -3   26.00    1.67
   1   2   3   25.34    0.96
   1   2   3   25.87    0.92
   2  -3   3   26.08    1.11
  -3   1   3   24.93    0.90
  -3   1   3   23.83    1.02
   2  -3   3   24.44    0.93
   2  -3   3   26.37    1.50
   2  -3   3   25.82    1.10
   1   2   3   26.06    1.15
  -2  -2  -3    0.06    0.09
  -2   4  -3    0.29    0.74
  -2  -2  -3    0.11    0.21
   4  -2  -3    0.29    0.16
  -2   4  -3    0.20    0.17
  -2   4  -3    0.11    0.09
  -2  -2  -3    0.02    0.10
   4  -2  -3    0.26    0.37
  -4   2   3    0.06    0.26
   2  -4   3    0.32    0.23
   2   2   3    0.04    0.12
  -4   2   3    0.02    0.09
   2  -4   3    0.09    0.10
   2   2   3    0.14    0.12
   2  -4   3    0.19    0.51
   2  -4   3   -0.03    0.19
  -2   5  -3   16.36    0.82
   5  -3  -3   15.02    2.52
   5  -3  -3   15.52    0.73
  -3  -2  -3   14.80    0.98
  -2   5  -3   15.42    0.65
  -3  -2  -3   15.29    0.68
   5  -3  -3   16.14    1.47
   3   2   3   15.13    0.65
  -5   3   3   15.02    0.92
  -5   3   3   15.42    0.67
  -5   3   3   16.89    1.16
  -5   3   3   17.19    0.76
   2  -5   3   16.97    0.96
   3   2   3   14.56    0.60
   2  -5   3   16.39    1.07
  -1   4  -3   15.26    0.61
  -3  -1  -3   15.90    1.09
   4  -3  -3   16.85    0.71
  -1   4  -3   15.08    0.95
  -1   4  -3   15.71    0.69
   4  -3  -3   16.72    1.85
   4  -3  -3   17.66    1.06
  -3  -1  -3   15.21    0.66
  -3  -1  -3   13.28    0.70
   1  -4   3   14.00    1.10
   1  -4   3   15.55    0.74
  -4   3   3   16.88    0.87
  -4   3   3   15.09    0.62
   3   1   3   14.65    0.62
   0   3  -3    0.03    0.31
   3  -3  -3    0.33    0.61
   3  -3  -3    0.24    0.26
   0   3  -3    0.21    0.09
  -3   0  -3    0.44    0.14
   0   3  -3    0.07    0.07
   3  -3  -3    0.27    0.15
   3  -3  -3    0.28    0.22
   0   3  -3    0.09    0.12
   0  -3   3    0.12    0.10
   3   0   3    0.04    0.22
  -3   3   3    0.62    0.22
   0  -3   3    0.14    0.11
   0  -3   3    0.35    0.27
   3   0   3    0.03    0.10
   3   0   3   -0.05    0.08
   1   2  -3   26.08    0.90
   1   2  -3   25.92    0.93
   2  -3  -3   23.93    1.52
  -3   1  -3   26.06    1.05
   1   2  -3   26.01    1.19
   1   2  -3   24.79    0.97
   2  -3  -3   26.45    1.09
   2  -3  -3   24.80    1.13
  -2   3   3   24.89    1.03
  -1  -2   3   25.52    0.94
  -1  -2   3   24.94    1.12
   3  -1   3   25.34    0.93
  -2   3   3   25.17    1.20
   3  -1   3   24.86    0.98
  -2   3   3   23.33    0.89
  -1  -2   3   25.78    0.94
  -2   3   3   25.88    1.73
   1  -3  -3   25.82    1.03
   1  -3  -3   25.02    1.25
   2   1  -3   26.72    0.96
   1  -3  -3   25.22    1.00
   2   1  -3   26.41    0.98
   2   1  -3   26.17    1.18
   2   1  -3   25.86    0.99
  -3   2  -3   26.62    1.17
  -1   3   3   26.54    0.91
  -1   3   3   24.57    1.07
  -2  -1   3   26.10    0.96
  -2  -1   3   26.21    0.96
  -1   3   3   25.26    1.37
   3  -2   3   26.14    0.96
  -2  -1   3   26.56    1.10
  -1   3   3   25.89    0.96
   3  -2   3   28.38    1.95
   3   0  -3    0.01    0.09
   3   0  -3    0.04    0.26
  -3   3  -3    0.29    0.09
   0  -3  -3    0.15    0.10
  -3   3  -3    0.20    0.19
   3   0  -3    0.10    0.13
   0  -3  -3    0.08    0.09
   0  -3  -3    0.40    0.25
   0   3   3    0.08    0.31
   3  -3   3    0.39    0.24
   3  -3   3   -0.25    0.58
  -3   0   3    0.31    0.07
   0   3   3    0.14    0.08
   0   3   3    0.24    0.14
   3  -3   3    0.26    0.11
  -3   0   3    0.13    0.12
   0   3   3    0.35    0.08
   3  -3   3    0.68    0.26
  -1  -3  -3   16.00    0.67
  -1  -3  -3   15.55    0.67
   4  -1  -3   15.92    0.72
  -1  -3  -3   15.80    0.66
  -1  -3  -3   15.11    0.90
  -3   4  -3   18.01    2.33
  -3   4  -3   16.31    1.31
  -3   4  -3   16.25    0.65
  -3   4  -3   15.93    0.86
   3  -4   3   13.75    1.61
   1   3   3   16.10    0.63
   1   3   3   15.88    0.67
   3  -4   3   16.05    0.67
   3  -4   3   16.83    0.99
  -4   1   3   16.01    0.61
   5  -2  -3   16.95    0.75
  -3   5  -3   14.16    0.89
   5  -2  -3   15.85    0.74
  -3   5  -3   15.76    0.67
  -3   5  -3   16.20    0.80
  -2  -3  -3   15.49    1.00
  -2  -3  -3   16.46    0.96
  -2  -3  -3   16.38    0.66
  -5   2   3   16.51    0.68
   2   3   3   16.97    0.74
   3  -5   3   15.80    0.71
  -5   2   3   17.90    0.75
  -5   2   3   18.09    1.26
   3  -5   3   14.79    1.22
  -5   2   3   16.40    0.90
   6  -3  -3    0.13    0.21
   6  -3  -3    0.10    0.17
  -3   6  -3    0.16    0.19
  -3   6  -3    0.27    0.26
   6  -3  -3    0.09    0.20
  -3  -3  -3   -0.02    0.39
  -6   3   3    0.11    0.51
   3   3   3    0.16    0.14
   3  -6   3    0.04    0.16
   3  -6   3   -0.14    0.50
   3   3   3    0.03    0.19
   3  -6   3    0.24    0.19
  -4  -1  -3    0.68    0.43
   5  -4  -3    0.43    0.19
  -1   5  -3    0.19    0.11
  -4  -1  -3    0.39    0.30
   5  -4  -3   -0.03    0.52
   5  -4  -3    0.32    0.16
  -1   5  -3    0.21    0.16
  -1   5  -3    0.25    0.24
   5  -4  -3    0.28    0.18
  -1   5  -3    0.08    0.23
  -5   4   3    0.32    0.32
   4   1   3    0.44    0.13
   4   1   3    0.12    0.12
   1  -5   3    0.35    0.20
   4   1   3    0.36    0.13
  -5   4   3    0.41    0.23
  -5   4   3    0.17    0.48
  -5   4   3    0.29    0.11
   0   4  -3   20.44    0.85
   4  -4  -3   20.39    1.30
   4  -4  -3   21.16    1.94
   4  -4  -3   21.44    1.23
  -4   0  -3   20.60    0.91
   0   4  -3   19.32    0.79
   4  -4  -3   21.73    0.90
  -4   0  -3   19.14    1.21
   0  -4   3   20.57    0.78
  -4   4   3   20.92    0.99
   4   0   3   19.97    0.81
   0  -4   3   20.14    1.28
   0  -4   3   20.55    0.90
   0  -4   3   20.68    1.08
  -4   4   3   20.24    1.45
  -4   4   3   19.94    0.77
  -4   1  -3   14.52    0.80
  -4   1  -3   12.57    1.08
   3  -4  -3   15.60    1.64
   3  -4  -3   16.32    0.97
  -4   1  -3   15.25    0.80
   1   3  -3   15.20    0.61
   1   3  -3   15.16    0.65
   1   3  -3   14.26    0.73
  -1  -3   3   16.40    0.95
  -1  -3   3   15.69    0.67
  -3   4   3   15.85    0.59
  -1  -3   3   15.49    0.60
  -3   4   3   16.41    0.79
   4  -1   3   14.24    0.70
  -1  -3   3   15.08    0.67
   4  -1   3   15.08    0.64
   2  -4  -3    0.04    0.50
   2   2  -3   -0.07    0.10
   2  -4  -3   -0.06    0.20
   2   2  -3    0.09    0.14
  -4   2  -3    0.08    0.26
   2  -4  -3   -0.04    0.22
   2  -4  -3   -0.26    0.14
   2   2  -3   -0.05    0.13
   4  -2   3    0.22    0.38
  -2  -2   3    0.11    0.11
  -2   4   3    0.02    0.28
  -2   4   3    0.18    0.08
  -2  -2   3    0.02    0.09
   4  -2   3    0.94    1.05
  -2  -2   3   -0.07    0.22
   4  -2   3    0.06    0.11
  -4   3  -3   16.06    0.64
   1  -4  -3   16.15    0.74
   1  -4  -3   14.50    1.07
   1  -4  -3   14.59    0.86
   1  -4  -3   15.12    0.74
   3   1  -3   15.51    0.70
  -4   3  -3   16.18    0.89
   3   1  -3   14.30    0.69
   4  -3   3   15.85    0.68
   4  -3   3   17.88    1.93
  -1   4   3   15.57    0.60
  -1   4   3   16.52    0.67
  -3  -1   3   15.94    0.67
  -3  -1   3   15.26    0.75
   4  -3   3   17.12    1.11
  -4   4  -3   21.09    1.35
  -4   4  -3   20.33    1.05
   0  -4  -3   20.24    0.76
   0  -4  -3   19.77    1.21
   0  -4  -3   20.87    1.04
   0  -4  -3   19.46    0.87
   4   0  -3   20.87    0.89
  -4   4  -3   20.68    0.79
   4  -4   3   19.10    1.30
  -4   0   3   19.58    1.28
   0   4   3   20.64    0.76
  -4   0   3   21.20    0.77
  -4   0   3   20.08    0.87
   4  -4   3   22.22    1.29
   4  -4   3   20.25    0.85
   4  -4   3   18.44    2.07
  -1  -4  -3    0.29    0.32
  -4   5  -3    0.18    0.26
   5  -1  -3    0.05    0.16
  -4   5  -3   -0.19    0.25
  -4   5  -3    0.30    0.54
   5  -1  -3    0.22    0.15
  -4   5  -3    0.44    0.12
  -1  -4  -3    0.25    0.13
  -5   1   3    0.31    0.98
  -5   1   3    0.48    0.19
   4  -5   3    0.28    0.48
  -5   1   3    0.35    0.31
   1   4   3    0.21    0.18
   1   4   3    0.13    0.17
   4  -5   3    0.35    0.16
  -5   1   3    0.19    0.24
   1   4   3    0.34    0.14
   4  -5   3    0.32    0.18
   5  -5  -3    7.07    1.28
   0   5  -3    7.66    0.43
   5  -5  -3    9.02    0.43
   0   5  -3    8.16    0.46
  -5   0  -3    6.78    1.00
   5  -5  -3    8.47    0.45
   0   5  -3    8.17    0.51
  -5   0  -3    8.11    0.66
  -5   0  -3    8.54    0.56
   5   0   3    8.53    0.43
   5   0   3    8.06    0.41
  -5   5   3    9.60    0.61
   5   0   3    7.71    0.42
  -5   5   3   10.11    0.58
   0  -5   3    8.20    0.49
  -5   5   3    8.56    0.40
   0  -5   3    7.21    0.72
  -5   1  -3   -0.33    0.40
   1   4  -3   -0.16    0.14
   1   4  -3    0.22    0.18
   1   4  -3    0.43    0.14
   4  -5  -3    0.41    0.15
   5  -1   3    0.29    0.14
  -1  -4   3    0.28    0.18
  -4   5   3   -0.15    0.60
  -4   5   3    0.34    0.10
  -4   5   3    0.58    0.29
   5  -1   3    0.25    0.14
   5  -1   3    0.11    0.14
  -4   5   3    0.79    0.33
  -4   5   3    0.38    0.26
   3  -5  -3   15.60    1.07
   2   3  -3   15.65    0.71
  -5   2  -3   17.33    0.69
   3  -5  -3   14.18    1.17
  -5   2  -3   15.76    0.77
   2   3  -3   16.56    0.74
  -5   2  -3   17.51    1.21
   3  -5  -3   15.53    0.69
  -3   5   3   15.99    0.82
  -3   5   3   15.55    0.80
   5  -2   3   13.83    2.81
   5  -2   3   15.59    0.71
  -2  -3   3   15.53    0.97
  -2  -3   3   16.37    0.67
  -3   5   3   14.99    0.62
   5  -2   3   17.92    0.80
   3   2  -3   17.14    0.93
   3   2  -3   15.43    0.74
  -5   3  -3   15.39    1.13
   2  -5  -3   16.42    1.07
  -5   3  -3   14.03    0.88
  -5   3  -3   15.79    0.78
  -2   5   3   16.24    0.77
  -3  -2   3   14.48    1.01
   5  -3   3   16.71    1.30
   5  -3   3   17.33    1.53
   5  -3   3   15.38    0.70
   5  -3   3   15.99    0.76
  -2   5   3   15.29    0.61
  -3  -2   3   16.22    0.83
  -3  -2   3   14.55    0.68
   5  -3   3   13.76    2.52
   4   1  -3    0.19    0.14
  -5   4  -3    0.38    0.13
  -5   4  -3    0.53    0.38
   1  -5  -3    0.14    0.17
  -5   4  -3    0.49    0.47
  -5   4  -3    0.51    0.26
   4   1  -3    0.17    0.19
  -5   4  -3    0.21    0.26
   4   1  -3    0.35    0.20
   1  -5  -3    0.12    0.35
  -4  -1   3    0.00    0.24
   5  -4   3    0.25    0.15
  -4  -1   3    0.52    0.20
  -1   5   3    0.24    0.10
  -1   5   3    0.41    0.18
  -1   5   3    0.32    0.20
   5  -4   3    0.16    0.63
   5  -4   3    0.21    0.17
  -5   5  -3    8.32    0.66
   5   0  -3    7.99    0.54
  -5   5  -3   10.01    0.74
  -5   5  -3    9.13    0.63
  -5   5  -3    9.99    1.09
   5   0  -3    7.97    0.51
  -5   5  -3    8.87    0.43
   5   0  -3    8.71    0.46
   5  -5   3    9.16    0.53
   5  -5   3    9.01    0.46
   0   5   3    8.69    0.49
   5  -5   3    9.01    0.49
  -5   0   3    6.84    1.03
   0   5   3    8.43    0.53
  -5   0   3    7.46    0.80
  -5   0   3    8.41    0.62
   5  -5   3    9.19    1.01
  -5   0   3    7.34    0.76
   3   3  -3   -0.21    0.17
  -6   3  -3    0.14    0.47
   3   3  -3    0.10    0.14
   3   3  -3   -0.06    0.18
   3  -6  -3    0.05    0.49
   3  -6  -3    0.21    0.20
   6  -3   3   -0.15    0.16
   6  -3   3   -0.17    0.18
  -3   6   3    0.09    0.26
  -3  -3   3    0.67    0.40
   6  -3   3    0.75    0.20
  -3  -3   3    0.19    0.15
  -3   6   3   -0.02    0.20
   0   1  -4   45.55    1.53
   0   1  -4   46.53    1.66
   1  -1  -4   43.43    1.67
   0   1  -4   45.14    1.55
   1  -1  -4   44.30    1.63
   1  -1  -4   41.08    1.90
   0  -1   4   46.52    1.55
  -1   1   4   45.67    1.61
   0  -1   4   47.87    1.64
   1   0   4   44.48    1.52
   0  -1   4   43.92    1.54
  -1   1  -4   41.95    1.66
  -1   1  -4   44.57    1.68
   0  -1  -4   47.58    1.58
   1   0  -4   48.81    1.67
   0  -1  -4   46.99    1.56
   1   0  -4   46.84    1.59
   0  -1  -4   47.59    1.62
   1   0  -4   44.59    1.59
  -1   1  -4   48.00    1.93
   0   1   4   48.22    1.65
   1  -1   4   44.47    1.69
  -1   0   4   46.95    1.59
  -1   0   4   50.33    1.66
   0   1   4   45.52    1.55
   1  -1   4   46.51    1.66
   0   1   4   47.32    1.59
   1  -1   4   50.01    1.86
  -1   0   4   45.96    1.59
  -1  -1  -4  119.66    3.93
  -1   2  -4  120.53    4.23
  -1   2  -4  115.98    3.98
  -1  -1  -4  114.10    3.85
  -1   2  -4  112.68    3.92
  -1  -1  -4  113.40    3.85
  -2   1   4  110.19    3.95
   1  -2   4  117.03    3.94
   1   1   4  122.74    3.96
   1   1   4  112.83    3.86
  -1   3  -4   15.60    0.76
  -2  -1  -4   16.99    0.64
   3  -2  -4   17.28    0.96
  -2  -1  -4   17.55    0.65
  -1   3  -4   16.30    0.68
   3  -2  -4   18.41    0.71
  -1   3  -4   16.53    1.08
  -1   3  -4   16.92    0.62
   3  -2  -4   16.67    1.52
   1  -3   4   15.78    0.96
  -3   2   4   17.17    0.64
  -3   2   4   16.62    0.82
   2   1   4   17.20    0.65
   2   1   4   15.67    0.62
   2   1   4   15.67    0.79
   1  -3   4   16.82    0.72
   1  -3   4   16.77    0.73
   0   2  -4   26.00    0.95
   2  -2  -4   28.43    1.12
   2  -2  -4   27.70    1.19
   2  -2  -4   26.22    1.57
   0   2  -4   26.90    1.00
   0  -2   4   27.23    0.98
   2   0   4   26.72    0.95
   0  -2   4   22.20    0.99
  -2   2   4   26.93    1.07
   0  -2   4   26.44    1.14
  -2   1  -4  111.30    3.97
   1   1  -4  114.81    3.88
   1   1  -4  121.71    4.05
   1  -2  -4  122.04    4.19
   1   1  -4  108.59    3.89
   1  -2  -4  116.80    3.97
   1  -2  -4  116.69    3.93
  -1  -1   4  114.33    3.89
  -1  -1   4  110.81    3.88
  -1   2   4  115.41    4.00
  -1   2   4  125.86    4.29
  -1   2   4  117.77    3.90
  -1  -1   4  116.21    4.01
   2  -1   4  115.75    4.17
   0  -2  -4   26.32    1.07
   2   0  -4   26.04    1.21
  -2   2  -4   25.86    1.70
   2   0  -4   27.35    0.97
  -2   2  -4   24.95    1.10
   0  -2  -4   26.83    0.95
   0  -2  -4   26.80    0.94
   0   2   4   26.71    0.98
   0   2   4   26.42    1.12
   2  -2   4   26.56    1.13
   2  -2   4   25.09    1.48
  -2   0   4   26.40    0.97
  -2   0   4   27.01    0.95
   3  -1  -4   15.92    0.91
  -1  -2  -4   16.92    0.63
  -1  -2  -4   15.85    0.76
  -2   3  -4   16.80    0.78
   3  -1  -4   17.56    0.70
  -2   3  -4   15.74    0.64
  -2   3  -4   15.55    1.34
  -1  -2  -4   16.70    0.63
  -2   3  -4   15.75    0.85
   3  -1  -4   17.98    0.72
   1   2   4   16.88    0.66
   1   2   4   16.02    0.61
  -3   1   4   17.15    0.61
   2  -3   4   15.82    0.79
   1   2   4   17.21    0.84
  -3   1   4   15.82    0.72
   2  -3   4   16.48    0.63
   2  -3   4   16.78    0.80
   2  -3   4   17.11    1.17
  -2  -2  -4   81.03    2.65
  -2  -2  -4   78.22    2.65
  -2   4  -4   70.66    3.52
   4  -2  -4   80.71    2.71
  -2   4  -4   74.82    2.77
  -2   4  -4   76.22    2.64
  -2  -2  -4   74.64    2.78
   4  -2  -4   74.16    3.33
   2  -4   4   79.22    2.64
  -4   2   4   77.22    2.91
   2   2   4   76.63    2.59
   2  -4   4   74.90    3.29
  -4   2   4   75.75    2.63
   2  -4   4   78.38    2.84
  -2   5  -4    4.11    0.47
   5  -3  -4    4.53    1.09
  -2   5  -4    4.16    0.28
  -3  -2  -4    4.08    0.62
   5  -3  -4    4.48    0.35
  -3  -2  -4    3.83    0.33
  -2   5  -4    4.57    0.43
   2  -5   4    4.79    0.44
  -5   3   4    4.04    0.30
   3   2   4    4.08    0.28
   3   2   4    4.40    0.30
  -5   3   4    3.86    0.44
  -5   3   4    4.50    0.75
   2  -5   4    3.84    0.58
   2  -5   4    3.83    0.66
   4  -3  -4    8.66    0.46
   4  -3  -4    9.13    1.27
   4  -3  -4    7.52    1.56
  -3  -1  -4    7.51    0.40
  -3  -1  -4    6.27    0.44
  -1   4  -4    7.63    0.36
  -1   4  -4    7.74    0.43
   1  -4   4    7.17    0.48
   1  -4   4    6.70    0.87
  -4   3   4    7.91    0.59
   1  -4   4    7.76    0.36
   3   1   4    7.18    0.35
  -4   3   4    7.97    0.36
   0   3  -4   84.68    3.38
   0   3  -4   90.04    2.94
   0   3  -4   87.94    3.09
  -3   0  -4   82.80    3.04
   3  -3  -4   85.69    3.85
   3  -3  -4   92.24    3.21
   3  -3  -4   90.74    3.03
   0  -3   4   85.24    3.02
   0  -3   4   89.01    2.94
   0  -3   4   86.89    3.28
   3   0   4   86.48    2.95
   3   0   4   88.22    3.19
   3   0   4   83.19    2.98
  -3   3   4   87.72    2.94
   2  -3  -4   16.49    1.26
   2  -3  -4   16.54    0.79
  -3   1  -4   17.43    0.76
   2  -3  -4   17.18    0.84
   1   2  -4   16.37    0.69
   1   2  -4   16.04    0.89
   1   2  -4   16.57    0.64
   1   2  -4   16.80    0.61
   3  -1   4   16.72    0.64
  -2   3   4   15.75    0.61
  -2   3   4   16.20    0.90
   3  -1   4   16.25    0.69
  -1  -2   4   16.83    0.66
  -2   3   4   16.59    0.73
  -2   3   4   16.44    1.47
  -1  -2   4   16.97    0.84
  -1  -2   4   16.38    0.65
   2   1  -4   16.85    0.69
   1  -3  -4   17.22    0.71
   2   1  -4   16.64    0.69
   1  -3  -4   17.09    0.73
   1  -3  -4   16.40    0.94
   2   1  -4   17.19    0.66
   2   1  -4   16.76    0.89
  -3   2  -4   16.89    0.87
  -2  -1   4   17.39    0.67
  -1   3   4   16.40    1.08
  -1   3   4   17.43    0.61
   3  -2   4   16.84    0.66
   3  -2   4   19.38    1.03
   3  -2   4   18.91    1.62
  -2  -1   4   16.99    0.81
  -1   3   4   16.67    0.78
  -2  -1   4   16.98    0.67
   3   0  -4   89.06    3.05
   0  -3  -4   89.18    3.02
  -3   3  -4   87.78    3.00
   3   0  -4   86.04    3.31
   0  -3  -4   87.64    3.23
  -3   3  -4   91.95    3.25
   0  -3  -4   87.58    3.03
   3   0  -4   89.85    3.06
   3  -3   4   92.35    3.26
   0   3   4   86.67    2.95
   3  -3   4   88.96    3.01
   0   3   4   85.02    3.08
   3  -3   4   91.62    3.37
   3  -3   4   84.49    4.37
  -3   0   4   87.38    2.96
  -3   0   4   84.56    3.06
  -1  -3  -4    7.37    0.39
  -3   4  -4    7.86    0.38
  -1  -3  -4    6.71    0.61
  -1  -3  -4    7.25    0.39
  -3   4  -4    7.17    0.58
   4  -1  -4    8.21    0.45
  -3   4  -4    5.84    1.59
   3  -4   4    7.32    0.39
   1   3   4    7.63    0.34
  -4   1   4    7.67    0.33
   3  -4   4    7.32    0.67
   3  -4   4    5.95    1.38
  -4   1   4    9.21    1.24
   5  -2  -4    3.88    0.34
  -3   5  -4    4.47    0.41
  -2  -3  -4    4.11    0.58
  -2  -3  -4    4.24    0.28
  -3   5  -4    3.95    0.54
  -3   5  -4    3.80    0.28
   5  -2  -4    4.31    0.34
   3  -5   4    4.15    0.32
  -5   2   4    4.82    0.87
   2   3   4    3.68    0.29
   3  -5   4    3.74    0.80
  -5   2   4    4.95    0.40
  -5   2   4    4.20    0.29
  -5   2   4    4.35    0.45
   3  -5   4    5.01    0.47
  -1   5  -4   51.48    1.94
   5  -4  -4   54.91    1.96
   5  -4  -4   54.17    1.87
   5  -4  -4   52.62    1.90
  -1   5  -4   52.77    1.88
  -1   5  -4   52.97    1.94
  -1   5  -4   50.53    1.86
  -1   5  -4   52.40    1.97
  -4  -1  -4   51.83    2.30
   5  -4  -4   51.95    2.50
  -4  -1  -4   44.67    2.05
  -5   4   4   59.70    2.43
   4   1   4   52.03    1.85
   4   1   4   51.84    1.79
   1  -5   4   51.98    1.92
  -5   4   4   51.75    1.84
  -5   4   4   53.83    1.94
  -5   4   4   52.24    2.00
   4   1   4   51.42    1.83
   4  -4  -4    5.29    1.25
  -4   0  -4    4.72    0.76
   0   4  -4    5.88    0.37
   0   4  -4    5.26    0.30
   4  -4  -4    5.46    0.41
  -4   0  -4    5.30    0.45
   4  -4  -4    5.59    0.72
   4  -4  -4    4.69    0.78
  -4   4   4    5.93    0.50
   0  -4   4    5.45    0.41
  -4   4   4    5.26    0.28
   0  -4   4    6.31    0.60
   0  -4   4    6.17    0.83
   4   0   4    5.09    0.30
   3  -4  -4    8.40    0.69
   1   3  -4    6.95    0.48
   3  -4  -4    9.61    1.38
  -4   1  -4    5.89    0.83
   1   3  -4    7.58    0.36
   3  -4  -4    8.63    0.81
  -4   1  -4    7.97    0.55
  -1  -3   4    7.75    0.69
  -3   4   4    8.05    0.34
   4  -1   4    7.07    0.38
   4  -1   4    6.66    0.46
  -1  -3   4    7.59    0.41
   2  -4  -4   75.68    2.81
   2   2  -4   78.63    2.68
   2  -4  -4   76.00    2.85
   2   2  -4   74.67    2.71
  -4   2  -4   75.97    2.92
   2  -4  -4   73.71    3.31
   2   2  -4   77.72    2.64
  -2   4   4   77.94    2.71
  -2   4   4   73.34    2.95
   4  -2   4   77.81    4.07
  -2  -2   4   78.75    2.67
   4  -2   4   82.51    3.19
  -2   4   4   74.21    2.59
  -2  -2   4   76.22    2.88
   4  -2   4   75.85    2.65
  -2  -2   4   76.16    2.67
   1  -4  -4    8.14    0.48
   3   1  -4    7.27    0.43
  -4   3  -4    8.00    0.38
   1  -4  -4    6.67    0.83
  -4   3  -4    8.73    0.64
   1  -4  -4    7.87    0.63
   1  -4  -4    7.86    0.48
   3   1  -4    7.69    0.50
   4  -3   4   10.20    1.70
  -1   4   4    7.48    0.39
  -1   4   4    7.29    0.32
   4  -3   4    9.32    0.86
  -3  -1   4    7.44    0.40
  -3  -1   4    6.51    0.49
   4  -3   4    7.64    0.40
   0  -4  -4    5.38    0.56
  -4   4  -4    5.49    0.31
   0  -4  -4    5.54    0.39
   4   0  -4    5.89    0.40
  -4   4  -4    5.61    0.44
   0  -4  -4    5.11    0.76
  -4   4  -4    6.01    0.83
   0  -4  -4    6.06    0.29
  -4   4  -4    6.70    0.59
   4  -4   4    3.99    0.89
  -4   0   4    5.52    0.28
  -4   0   4    6.57    0.86
  -4   0   4    5.50    0.40
   0   4   4    5.66    0.27
   0   4   4    5.03    0.34
   4  -4   4    4.92    0.34
   4  -4   4    7.17    1.48
  -4   5  -4   54.09    2.06
   5  -1  -4   52.39    2.01
  -4   5  -4   59.24    2.51
  -4   5  -4   52.63    1.92
  -1  -4  -4   54.34    2.22
  -1  -4  -4   53.74    1.96
   5  -1  -4   53.34    1.94
   5  -1  -4   56.48    2.19
  -4   5  -4   51.57    2.04
   1   4   4   55.14    2.00
  -5   1   4   57.02    1.99
   4  -5   4   51.99    2.50
   1   4   4   54.63    1.93
   4  -5   4   54.38    2.00
   4  -5   4   54.84    1.94
   1   4   4   53.94    1.94
  -5   1   4   56.67    2.08
  -5   1   4   54.08    2.06
   4  -5   4   54.38    1.97
   0   5  -4    2.12    0.24
   5  -5  -4    2.33    0.25
   5  -5  -4    1.67    0.56
   5  -5  -4    2.41    0.27
  -5   0  -4    2.11    0.38
  -5   0  -4    2.46    0.65
   0   5  -4    2.56    0.46
   0   5  -4    2.12    0.32
   0   5  -4    2.14    0.27
  -5   5   4    2.31    0.20
  -5   5   4    2.25    0.42
  -5   5   4    2.51    0.38
   5   0   4    2.24    0.22
   5   0   4    1.82    0.23
   5   0   4    2.27    0.22
  -5   5   4    2.71    0.78
   0  -5   4    2.15    0.53
   0  -5   4    1.89    0.31
   1   4  -4   52.25    1.92
  -5   1  -4   55.81    2.20
   4  -5  -4   53.21    1.89
   1   4  -4   53.50    1.95
   1   4  -4   53.51    1.91
  -4   5   4   54.69    2.08
  -1  -4   4   60.75    2.06
  -4   5   4   53.06    2.05
   5  -1   4   52.01    1.88
  -4   5   4   51.79    1.99
  -4   5   4   53.59    1.86
  -1  -4   4   50.24    2.04
   5  -1   4   52.06    1.90
   5  -1   4   52.77    1.90
   3  -5  -4    3.93    0.81
  -5   2  -4    4.86    0.65
  -5   2  -4    4.91    0.82
   2   3  -4    3.67    0.35
  -5   2  -4    4.41    0.41
   2   3  -4    3.83    0.32
   2   3  -4    3.81    0.43
   5  -2   4    3.94    0.30
  -3   5   4    3.65    0.47
  -2  -3   4    4.00    0.29
  -2  -3   4    4.18    0.50
  -2  -3   4    3.53    0.56
  -3   5   4    4.05    0.23
   5  -2   4    3.73    0.29
   3   2  -4    3.72    0.33
  -5   3  -4    4.58    0.33
   3   2  -4    4.28    0.36
   2  -5  -4    3.71    0.67
  -5   3  -4    4.03    0.43
  -5   3  -4    4.03    0.53
  -5   3  -4    4.81    0.73
  -2   5   4    3.90    0.34
  -3  -2   4    3.49    0.61
   5  -3   4    4.76    1.23
  -2   5   4    4.09    0.23
   5  -3   4    3.86    0.34
  -3  -2   4    3.89    0.39
   5  -3   4    3.86    0.31
  -3  -2   4    4.08    0.33
  -5   4  -4   53.16    2.67
   1  -5  -4   53.01    1.93
   4   1  -4   53.07    2.00
  -5   4  -4   53.03    2.12
   1  -5  -4   54.14    2.27
  -5   4  -4   56.34    1.91
   4   1  -4   53.01    1.95
  -5   4  -4   51.73    2.03
  -5   4  -4   57.01    2.02
   4   1  -4   53.01    1.89
  -1   5   4   53.38    1.94
   5  -4   4   56.03    2.61
  -1   5   4   53.21    1.82
  -1   5   4   53.80    1.98
   5  -4   4   53.15    1.97
  -4  -1   4   47.60    2.04
   5  -4   4   54.66    1.93
  -4  -1   4   57.87    3.26
  -4  -1   4   50.07    2.00
  -5   5  -4    2.03    0.72
  -5   5  -4    3.46    0.61
   5   0  -4    1.89    0.32
  -5   5  -4    2.27    0.22
   5   0  -4    2.03    0.25
  -5   5  -4    2.88    0.48
  -5   5  -4    3.23    0.57
  -5   5  -4    2.20    0.38
   5   0  -4    1.82    0.37
   5  -5   4    1.50    0.59
   0   5   4    2.31    0.35
   0   5   4    2.62    0.31
   5  -5   4    2.23    0.31
  -5   0   4    1.85    0.69
   5  -5   4    2.52    0.31
  -5   0   4    2.20    0.47
  -5   0   4    2.55    0.42
   5  -5   4    3.07    0.28
   0   0  -5    0.09    0.04
   0   0   5    0.06    0.02
   1  -1  -5   64.84    2.36
   1  -1  -5   62.36    2.64
   0   1  -5   67.05    2.27
   0   1  -5   71.04    2.41
   1  -1  -5   66.56    2.42
   0   1  -5   66.69    2.29
   0  -1   5   67.44    2.28
   0  -1   5   72.40    2.39
   0  -1   5   67.65    2.28
  -1   1   5   67.85    2.34
   1   0  -5   73.23    2.46
   0  -1  -5   71.69    2.35
  -1   1  -5   65.61    2.45
   0  -1  -5   71.90    2.34
  -1   1  -5   71.16    2.70
   0  -1  -5   73.08    2.39
   1   0  -5   71.08    2.37
   1   0  -5   69.10    2.37
  -1   1  -5   64.14    2.44
   1  -1   5   68.70    2.60
  -1   0   5   74.46    2.44
  -1   0   5   73.59    2.37
   0   1   5   70.83    2.36
   1  -1   5   64.67    2.46
   0   1   5   73.56    2.42
  -1   0   5   68.62    2.36
  -1   2  -5    0.22    0.08
  -1   2  -5   -0.15    0.20
  -1  -1  -5    0.06    0.03
   2  -1  -5    0.09    0.07
  -1   2  -5    0.03    0.07
  -2   1   5    0.07    0.08
   1   1   5    0.02    0.03
   1   1   5    0.18    0.10
   1  -2   5    0.06    0.07
  -2  -1  -5   37.42    1.29
  -1   3  -5   37.10    1.44
  -1   3  -5   38.67    1.28
   3  -2  -5   38.16    1.36
  -2  -1  -5   34.02    1.31
  -1   3  -5   37.85    1.79
   3  -2  -5   32.17    2.13
   3  -2  -5   36.50    1.64
  -1   3  -5   36.41    1.34
   2   1   5   36.24    1.29
   2   1   5   34.59    1.24
  -3   2   5   37.04    1.49
   1  -3   5   36.54    1.38
   2   1   5   35.90    1.45
   1  -3   5   37.95    1.39
   1  -3   5   36.95    1.66
  -3   2   5   35.83    1.28
   2  -2  -5   56.65    2.00
   2  -2  -5   52.16    2.05
   2  -2  -5   52.69    2.48
   0   2  -5   51.17    1.82
   0   2  -5   52.52    1.87
   0  -2   5   51.94    1.84
   2   0   5   52.00    1.81
   0  -2   5   52.18    2.01
  -2   2   5   53.86    1.93
   0  -2   5   52.63    1.85
   1   1  -5    0.06    0.04
   1  -2  -5   -0.10    0.17
   1   1  -5   -0.09    0.12
   1  -2  -5    0.31    0.09
   1  -2  -5    0.06    0.08
   1   1  -5    0.19    0.05
  -2   1  -5    0.13    0.10
   2  -1   5    0.07    0.16
   2  -1   5    0.29    0.45
  -1  -1   5    0.32    0.11
  -1   2   5    0.45    0.14
  -1   2   5    0.12    0.27
   0  -2  -5   50.77    1.78
  -2   2  -5   50.00    2.03
   2   0  -5   53.51    1.81
   0  -2  -5   51.54    1.77
   0  -2  -5   52.34    1.90
  -2   2  -5   50.02    1.96
   2   0  -5   51.03    2.07
   2  -2   5   56.04    2.40
   2  -2   5   52.20    1.97
   0   2   5   53.09    1.75
  -2   0   5   50.70    1.81
   0   2   5   53.58    1.97
   0   2   5   51.04    1.81
   3  -1  -5   36.98    1.63
  -1  -2  -5   35.82    1.31
   3  -1  -5   39.13    1.48
   3  -1  -5   39.77    1.37
  -2   3  -5   36.37    2.05
  -1  -2  -5   37.73    1.44
  -2   3  -5   36.58    1.47
  -3   1   5   33.92    1.39
   2  -3   5   37.80    1.30
   2  -3   5   37.55    1.48
  -3   1   5   37.51    1.28
   1   2   5   36.17    1.33
   2  -3   5   35.22    1.47
   2  -3   5   36.83    1.86
   1   2   5   37.95    1.51
  -2  -2  -5    0.19    0.20
  -2   4  -5   -0.35    0.72
  -2  -2  -5    0.08    0.09
  -2   4  -5   -0.10    0.17
  -2  -2  -5    0.29    0.11
   4  -2  -5    0.13    0.14
  -2   4  -5   -0.01    0.09
   4  -2  -5    0.35    0.40
  -4   2   5   -0.26    0.25
  -4   2   5    0.03    0.09
   2  -4   5    0.00    0.18
   2  -4   5    0.14    0.10
   2   2   5   -0.17    0.45
   2  -4   5   -0.07    0.51
  -2   5  -5   15.83    0.75
   5  -3  -5   15.72    0.74
  -3  -2  -5   16.30    0.99
   5  -3  -5   15.54    0.73
  -2   5  -5   15.02    0.82
   5  -3  -5   15.90    1.46
   5  -3  -5   17.65    1.44
  -2   5  -5   15.50    0.67
  -3  -2  -5   16.20    0.69
   2  -5   5   14.63    0.72
  -5   3   5   15.91    0.79
  -5   3   5   17.98    1.18
  -5   3   5   15.49    0.67
   3   2   5   15.18    0.63
   2  -5   5   15.21    1.05
   3   2   5   15.69    0.65
   4  -3  -5   32.45    1.51
  -1   4  -5   27.99    1.02
   4  -3  -5   29.26    1.11
   4  -3  -5   26.88    2.24
  -3  -1  -5   24.15    1.11
   4  -3  -5   27.33    1.64
  -1   4  -5   28.30    1.10
  -3  -1  -5   27.84    1.06
   1  -4   5   28.30    1.16
   1  -4   5   29.14    1.03
   3   1   5   27.00    0.97
   1  -4   5   26.59    1.51
  -4   3   5   27.91    1.26
  -4   3   5   26.45    1.02
   0   3  -5    0.23    0.09
   0   3  -5    0.07    0.07
   0   3  -5    0.14    0.12
   3  -3  -5    0.10    0.26
  -3   0  -5    0.18    0.15
   3  -3  -5    0.21    0.21
   0   3  -5   -0.11    0.34
   3  -3  -5    0.86    0.64
   3  -3  -5    0.46    0.18
   3   0   5    0.11    0.08
   0  -3   5    0.16    0.11
   0  -3   5    0.00    0.25
   0  -3   5    0.28    0.09
  -3   3   5    0.19    0.07
   3   0   5    0.12    0.08
  -3   3   5    0.65    0.23
   2  -3  -5   36.94    1.47
   1   2  -5   36.33    1.36
  -3   1  -5   38.59    1.44
   1   2  -5   37.56    1.28
   2  -3  -5   33.56    1.93
   2  -3  -5   36.39    1.52
   1   2  -5   37.91    1.32
   1   2  -5   35.37    1.58
  -2   3   5   34.41    1.27
  -2   3   5   38.62    2.19
  -1  -2   5   37.50    1.33
   3  -1   5   36.74    1.29
  -1  -2   5   37.46    1.54
  -2   3   5   36.82    1.60
  -2   3   5   38.04    1.40
  -1  -2   5   36.85    1.33
  -3   2  -5   37.30    1.55
   2   1  -5   37.01    1.35
   1  -3  -5   38.13    1.41
   2   1  -5   37.11    1.31
   1  -3  -5   36.42    1.62
   2   1  -5   37.16    1.58
   2   1  -5   37.42    1.36
   1  -3  -5   37.47    1.37
  -2  -1   5   37.26    1.33
  -2  -1   5   35.03    1.32
  -2  -1   5   39.65    1.50
  -1   3   5   36.64    1.45
   3  -2   5   35.85    1.31
  -1   3   5   37.83    1.27
  -1   3   5   36.20    1.76
   3  -2   5   38.08    1.68
   3  -2   5   40.02    2.37
   3   0  -5    0.21    0.28
   0  -3  -5    0.35    0.11
   3   0  -5    0.35    0.13
  -3   3  -5    0.25    0.10
   3   0  -5    0.02    0.11
  -3   3  -5   -0.02    0.21
   0  -3  -5    0.14    0.09
   0  -3  -5    0.01    0.23
   0   3   5    0.14    0.08
   0   3   5    0.15    0.13
   0   3   5    0.05    0.33
   3  -3   5    0.26    0.23
   3  -3   5    0.85    0.28
   3  -3   5    0.21    0.09
  -3   0   5    0.01    0.11
   0   3   5    0.07    0.08
  -3   0   5    0.16    0.06
  -3   4  -5   23.90    2.50
  -1  -3  -5   27.42    1.06
   4  -1  -5   28.90    1.12
  -1  -3  -5   28.70    1.29
  -3   4  -5   26.81    1.27
  -3   4  -5   29.02    1.06
  -1  -3  -5   28.30    1.06
   4  -1  -5   25.88    2.26
   3  -4   5   29.99    1.38
  -4   1   5   27.19    1.01
   3  -4   5   29.18    2.09
  -4   1   5   27.69    1.82
   3  -4   5   28.60    1.06
  -3   5  -5   16.13    0.69
   5  -2  -5   16.62    0.76
   5  -2  -5   15.89    0.73
  -3   5  -5   16.21    0.79
  -2  -3  -5   15.57    0.65
  -3   5  -5   17.94    1.33
  -2  -3  -5   15.86    0.97
  -5   2   5   14.93    0.67
   3  -5   5   16.89    1.25
   3  -5   5   17.18    0.92
  -5   2   5   18.12    1.30
   3  -5   5   17.47    0.87
  -5   2   5   15.24    0.81
   3  -5   5   17.09    1.09
  -5   2   5   18.21    0.75
   2   3   5   16.24    0.85
   2   3   5   16.00    0.67
   3  -5   5   15.53    0.70
  -4  -1  -5    0.08    0.38
  -1   5  -5    0.03    0.12
  -1   5  -5   -0.09    0.23
  -1   5  -5    0.15    0.25
   5  -4  -5    0.41    0.84
   5  -4  -5    0.71    0.20
  -1   5  -5    0.32    0.15
   5  -4  -5    0.24    0.17
   5  -4  -5    0.27    0.16
   5  -4  -5    0.55    0.60
  -4  -1  -5    0.03    0.36
   4   1   5    0.18    0.12
   1  -5   5    0.31    0.19
  -5   4   5    0.24    0.10
   4   1   5    0.24    0.13
  -5   4   5    0.07    0.28
  -5   4   5    0.22    0.49
  -5   4   5    0.26    0.20
   1  -5   5    0.10    0.35
   4  -4  -5   16.61    1.15
   4  -4  -5   16.24    1.83
   0   4  -5   16.37    0.72
   4  -4  -5   17.36    1.08
  -4   0  -5   14.78    1.11
   4  -4  -5   17.57    0.82
  -4   0  -5   15.73    0.79
   0   4  -5   15.83    0.65
   0  -4   5   16.27    0.67
   4   0   5   15.30    0.68
  -4   4   5   16.47    0.84
  -4   4   5   17.36    0.63
   0  -4   5   16.67    0.77
   0  -4   5   15.52    0.93
   0  -4   5   14.24    1.15
  -4   1  -5   26.63    1.12
   1   3  -5   27.06    1.03
   3  -4  -5   32.27    1.79
   3  -4  -5   29.43    2.02
   1   3  -5   26.68    1.07
   3  -4  -5   26.55    1.49
   1   3  -5   27.65    1.27
  -4   1  -5   28.67    1.24
  -4   1  -5   31.40    1.14
   3  -4  -5   28.11    1.37
  -1  -3   5   26.67    1.02
  -3   4   5   28.01    1.01
  -1  -3   5   27.66    1.39
   4  -1   5   26.85    1.03
  -1  -3   5   27.65    1.09
  -3   4   5   31.05    1.20
   2   2  -5    0.15    0.14
  -4   2  -5    0.61    0.29
   2  -4  -5    0.49    0.55
   2   2  -5    0.16    0.14
   2  -4  -5    0.13    0.21
   2  -4  -5    0.00    0.24
   2   2  -5   -0.20    0.42
   2   2  -5    0.28    0.11
  -2   4   5    0.02    0.15
  -2  -2   5    0.04    0.12
   4  -2   5    0.33    1.04
  -2  -2   5    0.15    0.10
   4  -2   5    0.12    0.10
  -2   4   5    0.25    0.32
  -2   4   5    0.07    0.07
  -2  -2   5    0.40    0.26
   1  -4  -5   27.81    1.50
   1  -4  -5   27.66    1.15
   1  -4  -5   28.09    1.15
  -4   3  -5   27.94    1.06
  -4   3  -5   30.69    1.35
   1  -4  -5   29.89    1.31
   3   1  -5   28.41    1.11
   4  -3   5   32.10    1.57
  -3  -1   5   28.82    1.01
  -1   4   5   28.04    1.00
  -3  -1   5   28.34    1.10
  -3  -1   5   25.63    1.15
   4  -3   5   28.20    1.08
   4  -3   5   28.96    2.36
  -1   4   5   27.84    1.05
   0  -4  -5   16.84    0.64
  -4   4  -5   17.38    0.96
  -4   4  -5   16.22    0.76
   0  -4  -5   16.02    0.74
  -4   4  -5   18.08    0.77
   0  -4  -5   15.92    1.08
  -4   4  -5   16.50    1.15
   4   0  -5   16.14    0.76
   0  -4  -5   15.43    0.90
   0   4   5   16.31    0.68
   4  -4   5   18.51    2.17
   4  -4   5   15.90    1.25
   4  -4   5   18.19    1.17
  -4   0   5   15.50    1.22
   4  -4   5   16.39    0.71
  -4   0   5   16.48    0.64
  -4   0   5   16.93    0.74
   5  -1  -5    0.41    0.15
  -1  -4  -5    0.21    0.13
  -4   5  -5    0.49    0.27
   5  -1  -5    0.19    0.22
  -4   5  -5    0.38    0.12
  -4   5  -5   -0.14    0.24
   5  -1  -5    0.45    0.19
  -1  -4  -5    0.55    0.33
  -5   1   5    0.16    0.19
  -5   1   5   -0.02    0.27
   1   4   5    0.62    0.19
   4  -5   5    0.50    0.17
  -5   1   5    0.12    0.21
   4  -5   5    0.45    0.17
   4  -5   5    0.05    0.46
   1   4   5   -0.07    0.13
   4  -5   5    0.29    0.15
   1   4   5    0.26    0.19
   5  -5  -5   15.56    0.69
   0   5  -5   17.27    0.73
   5  -5  -5   15.61    1.26
   5  -5  -5   16.58    0.73
  -5   0  -5   17.68    0.85
   0   5  -5   18.39    0.82
   0   5  -5   16.53    0.74
   0   5  -5   17.50    0.79
  -5   0  -5   15.42    1.28
   5   0   5   16.15    0.68
   0  -5   5   16.57    1.07
   0  -5   5   17.00    0.78
   5   0   5   16.28    0.71
  -5   5   5   20.19    1.30
  -5   5   5   16.54    0.80
  -5   5   5   16.74    0.67
  -5   5   5   17.40    0.85
   5   0   5   16.94    0.63
   1   4  -5    0.27    0.14
   4  -5  -5    0.10    0.13
  -5   1  -5    0.04    0.71
  -5   1  -5    0.34    0.22
   4  -5  -5    0.45    0.52
   1   4  -5    0.07    0.15
   1   4  -5    0.16    0.32
   1   4  -5    0.37    0.18
  -4   5   5    0.38    0.26
   5  -1   5    0.43    0.14
  -1  -4   5    0.44    0.33
   5  -1   5    0.20    0.13
  -4   5   5    0.37    0.10
  -4   5   5    0.32    0.32
  -4   5   5    0.09    0.23
   5  -1   5    0.44    0.22
  -1  -4   5    0.59    0.23
   5  -1   5    0.19    0.15
  -5   2  -5   16.78    1.22
   2   3  -5   15.30    0.69
   2   3  -5   15.51    0.72
   2   3  -5   16.61    0.78
   3  -5  -5   15.62    1.21
  -5   2  -5   15.70    0.77
  -5   2  -5   14.78    0.88
  -2  -3   5   15.09    0.79
  -3   5   5   15.74    0.61
  -2  -3   5   15.28    0.99
   5  -2   5   15.10    0.67
  -2  -3   5   16.24    0.66
  -3   5   5   15.79    0.82
   5  -2   5   15.46    0.66
  -2  -3   5   15.62    0.63
   3   2  -5   15.18    0.71
  -5   3  -5   16.05    1.14
  -5   3  -5   15.76    0.90
  -5   3  -5   17.16    0.84
   2  -5  -5   15.46    1.08
  -5   3  -5   15.71    0.77
   3   2  -5   14.98    0.73
  -3  -2   5   14.79    1.01
   5  -3   5   17.62    1.55
   5  -3   5   15.80    0.69
  -3  -2   5   14.43    0.73
  -3  -2   5   15.58    0.69
   5  -3   5   15.16    0.69
  -2   5   5   15.44    0.72
   5  -3   5   20.36    4.16
  -2   5   5   15.41    0.59
  -2   5   5   16.26    0.79
  -5   4  -5    0.46    0.25
   4   1  -5    0.11    0.19
   1  -5  -5    0.38    0.35
   4   1  -5    0.28    0.13
  -5   4  -5    0.38    0.37
   1  -5  -5    0.28    0.17
   4   1  -5    0.20    0.20
  -5   4  -5    0.40    0.20
  -5   4  -5    0.47    0.29
   5  -4   5    0.12    0.18
  -4  -1   5   -0.19    0.40
   5  -4   5    0.08    0.13
  -1   5   5    0.12    0.17
  -4  -1   5    0.93    0.28
  -4  -1   5    0.82    0.20
  -1   5   5    0.35    0.21
   5  -4   5    0.53    0.63
   0  -5  -5   16.99    0.70
  -5   5  -5   16.38    0.88
   5   0  -5   17.42    0.74
  -5   5  -5   17.04    0.71
   5   0  -5   17.78    0.83
   5   0  -5   17.80    0.82
  -5   5  -5   17.13    0.97
   5  -5   5   17.82    0.80
   5  -5   5   16.32    0.75
  -5   0   5   17.03    0.85
   5  -5   5   17.23    1.33
  -5   0   5   17.88    0.89
   5  -5   5   16.81    0.75
   0   5   5   17.65    0.83
   0   5   5   16.72    0.77
  -5   0   5   15.31    1.41
   5  -5   5   18.24    0.74
   0   0  -6   73.36    2.62
   0   0  -6   77.06    2.66
   0   0   6   86.43    2.68
   0   1  -6    5.94    0.27
   0   1  -6    6.07    0.37
   0   1  -6    6.23    0.25
   1  -1  -6    5.97    0.33
   0  -1   6    6.10    0.35
  -1   1   6    6.04    0.25
   0  -1   6    6.29    0.26
   0  -1   6    5.86    0.26
  -1   1   6    6.21    0.30
   1   0  -6    6.29    0.34
   1   0  -6    6.29    0.26
   0  -1  -6    6.23    0.23
  -1   1  -6    6.29    0.53
   0  -1  -6    6.42    0.26
   0  -1  -6    6.34    0.22
  -1   1  -6    5.95    0.32
   1   0  -6    6.32    0.25
   0   1   6    6.12    0.25
   1  -1   6    6.02    0.30
   0   1   6    6.47    0.31
   1  -1   6    5.75    0.34
  -1   0   6    6.66    0.26
   1  -1   6    6.63    0.44
  -1   0   6    6.30    0.32
  -1   0   6    6.14    0.25
   2  -1  -6   47.70    1.63
  -1   2  -6   46.07    1.63
  -1   2  -6   47.71    1.94
  -1  -1  -6   46.35    1.56
  -1  -1  -6   46.47    1.56
  -1   2  -6   44.91    1.68
   2  -1  -6   48.16    1.76
  -1  -1  -6   45.01    1.60
  -2   1   6   42.72    1.62
   1  -2   6   46.68    1.65
   1   1   6   45.46    1.56
   1   1   6   46.22    1.64
  -2   1   6   44.87    1.66
   1  -2   6   45.51    1.65
  -1   3  -6    7.64    0.80
  -1   3  -6    6.31    0.49
  -1   3  -6    7.11    0.32
  -1   3  -6    7.17    0.38
   3  -2  -6    7.31    0.64
   1  -3   6    7.63    0.32
   2   1   6    7.23    0.33
   1  -3   6    6.63    0.40
   1  -3   6    6.97    0.41
   1  -3   6    7.75    0.65
  -3   2   6    7.82    0.51
  -3   2   6    7.50    0.33
   2   1   6    8.16    0.50
   0   2  -6    7.02    0.61
   2  -2  -6    7.22    0.46
   0   2  -6    7.16    0.32
   2  -2  -6    7.15    0.87
   2  -2  -6    6.65    0.50
   0   2  -6    8.45    0.39
  -2   2   6    7.32    0.41
   2   0   6    6.97    0.30
   0  -2   6    7.49    0.35
   0  -2   6    7.30    0.50
   1  -2  -6   47.95    1.87
   1   1  -6   47.12    1.58
   1   1  -6   44.30    1.60
   1  -2  -6   47.55    1.67
   1  -2  -6   46.40    1.62
   1   1  -6   44.24    1.74
  -2   1  -6   45.39    1.68
   2  -1   6   42.71    1.92
  -1  -1   6   45.79    1.59
  -1   2   6   45.01    1.71
  -1  -1   6   46.73    1.77
  -1   2   6   48.27    2.01
   2  -1   6   45.82    2.39
  -2   2  -6    6.74    0.98
   0  -2  -6    7.52    0.29
   2   0  -6    5.40    0.54
   2   0  -6    7.11    0.33
   0  -2  -6    7.32    0.40
   0  -2  -6    7.07    0.30
  -2   2  -6    5.42    0.49
  -2   2  -6    6.76    0.45
   2  -2   6    6.77    0.93
  -2   0   6    7.19    0.33
   0   2   6    7.63    0.48
   0   2   6    6.76    0.33
   2  -2   6    6.44    0.53
   0   2   6    7.36    0.27
  -2   3  -6    7.39    0.35
   3  -1  -6    7.56    0.40
   3  -1  -6    5.77    0.44
   3  -1  -6    7.09    0.65
  -2   3  -6    6.96    1.04
  -1  -2  -6    7.55    0.32
  -1  -2  -6    7.51    0.44
   2  -3   6    7.92    0.33
   2  -3   6    8.03    0.51
   1   2   6    7.17    0.52
  -3   1   6    6.58    0.40
  -3   1   6    7.54    0.31
   1   2   6    7.28    0.35
   2  -3   6    8.13    0.84
  -2   4  -6   20.78    0.82
  -2  -2  -6   21.25    0.81
  -2   4  -6   18.86    1.72
  -2   4  -6   21.38    0.96
   4  -2  -6   21.73    0.88
  -2  -2  -6   21.21    0.81
   4  -2  -6   19.80    1.24
   2  -4   6   20.99    1.44
  -4   2   6   21.88    0.81
  -4   2   6   21.22    1.07
   2  -4   6   20.95    0.80
   2  -4   6   20.73    0.99
  -2   5  -6    6.17    0.37
   5  -3  -6    8.43    1.20
   5  -3  -6    6.64    0.46
  -3  -2  -6    6.93    0.41
  -2   5  -6    6.70    0.56
  -2   5  -6    5.95    0.46
   5  -3  -6    7.66    0.45
  -3  -2  -6    6.98    0.69
   2  -5   6    6.66    0.44
  -5   3   6    8.42    0.90
   2  -5   6    6.68    0.76
   3   2   6    6.85    0.35
  -5   3   6    7.26    0.53
   3   2   6    6.83    0.37
  -5   3   6    7.44    0.39
   4  -3  -6    6.02    1.35
  -1   4  -6    7.63    0.44
   4  -3  -6    7.37    0.44
  -3  -1  -6    6.76    0.51
  -1   4  -6    7.83    0.37
   4  -3  -6    7.42    0.77
  -3  -1  -6    7.75    0.40
   1  -4   6    7.33    0.49
   1  -4   6    6.76    0.86
   1  -4   6    8.41    0.67
  -4   3   6    7.50    0.58
   1  -4   6    7.78    0.36
  -4   3   6    6.76    0.35
  -3   0  -6   24.14    1.03
   3  -3  -6   28.79    1.11
   3  -3  -6   26.82    1.27
   0   3  -6   25.29    0.98
   3  -3  -6   26.15    1.18
   0   3  -6   24.84    1.39
   0   3  -6   25.50    1.08
   3  -3  -6   24.00    1.88
   0   3  -6   26.82    0.94
   3   0   6   24.78    0.97
   0  -3   6   26.36    1.03
   0  -3   6   27.67    0.94
  -3   3   6   27.30    1.10
   0  -3   6   26.17    1.28
   0  -3   6   26.41    1.03
   3   0   6   25.82    0.91
  -3   3   6   25.49    0.93
   1   2  -6    7.49    0.32
   2  -3  -6    6.28    0.99
   1   2  -6    6.09    0.59
   1   2  -6    7.69    0.35
   2  -3  -6    7.93    0.50
   1   2  -6    7.34    0.39
  -3   1  -6    7.08    0.44
   2  -3  -6    7.52    0.54
  -2   3   6    7.66    0.41
   3  -1   6    7.31    0.31
  -1  -2   6    7.36    0.31
   3  -1   6    6.75    0.66
  -2   3   6    7.62    0.31
  -1  -2   6    7.05    0.79
  -2   3   6    6.01    1.17
  -1  -2   6    7.36    0.36
  -2   3   6    7.21    0.60
  -1  -2   6    7.65    0.36
   2   1  -6    6.99    0.57
   2   1  -6    7.17    0.37
   2   1  -6    7.55    0.37
  -3   2  -6    7.68    0.58
   2   1  -6    7.73    0.34
   1  -3  -6    7.56    0.63
   1  -3  -6    7.38    0.39
   3  -2   6    7.73    0.33
  -2  -1   6    7.75    0.31
  -1   3   6    7.50    0.47
  -2  -1   6    7.28    0.35
  -1   3   6    6.56    0.78
   3  -2   6    6.39    0.82
  -2  -1   6    7.04    0.55
  -2  -1   6    7.55    0.35
  -1   3   6    7.34    0.29
   3  -2   6    7.12    1.29
   0  -3  -6   26.28    1.18
   3   0  -6   25.60    1.29
   3   0  -6   26.29    1.02
   0  -3  -6   27.90    1.03
  -3   3  -6   25.96    0.97
  -3   3  -6   25.28    1.39
   0  -3  -6   25.55    0.98
   3  -3   6   26.88    1.21
   3  -3   6   25.86    0.96
  -3   0   6   26.55    0.93
   0   3   6   25.87    1.32
  -1  -3  -6    8.25    0.61
  -3   4  -6    7.33    0.59
  -3   4  -6    7.16    0.38
   4  -1  -6    7.67    0.45
  -1  -3  -6    8.14    0.39
  -3   4  -6    7.17    1.59
  -1  -3  -6    7.66    0.39
  -4   1   6    6.85    0.96
   3  -4   6    6.92    0.37
  -4   1   6    7.74    0.34
   3  -4   6    6.77    0.67
   3  -4   6    7.32    1.31
  -2  -3  -6    7.59    0.68
  -2  -3  -6    6.87    0.36
  -3   5  -6    6.88    0.50
   5  -2  -6    6.81    0.44
   5  -2  -6    6.52    0.43
  -3   5  -6    7.69    0.40
  -5   2   6    6.92    0.38
   3  -5   6    7.29    0.99
  -5   2   6    7.40    0.45
   3  -5   6    7.02    0.39
   2   3   6    7.84    0.52
   3  -5   6    7.04    0.43
   2   3   6    6.72    0.38
  -5   2   6    7.44    0.95
   3  -5   6    7.27    0.45
  -5   2   6    6.11    0.51
  -4  -1  -6   10.66    0.94
   5  -4  -6   11.97    0.55
   5  -4  -6   12.44    0.59
  -1   5  -6   12.35    0.56
  -1   5  -6   12.15    0.64
  -1   5  -6   12.49    0.57
   5  -4  -6   12.20    1.51
   5  -4  -6   12.44    0.66
   4   1   6   12.15    0.54
   1  -5   6   12.14    0.62
  -5   4   6   12.00    0.69
  -5   4   6   13.83    1.09
  -5   4   6   11.88    0.52
  -5   4   6   12.51    0.62
   4   1   6   11.21    0.51
   1  -5   6   12.03    0.92
  -4   0  -6    6.62    0.50
   4  -4  -6    7.82    0.48
  -4   0  -6    6.75    0.83
   0   4  -6    6.92    0.36
   4  -4  -6    7.53    1.57
   0   4  -6    7.78    0.44
   4  -4  -6    7.75    0.86
   4  -4  -6    7.29    0.77
  -4   4   6    8.29    0.56
   0  -4   6    6.14    0.87
   0  -4   6    7.59    0.67
  -4   4   6    6.96    0.33
   0  -4   6    7.39    0.48
   3  -4  -6    7.67    1.32
   1   3  -6    7.82    0.40
  -4   1  -6    6.02    0.85
   3  -4  -6    7.30    0.84
   3  -4  -6    7.95    0.79
  -4   1  -6    7.48    0.55
  -4   1  -6    7.45    0.48
   1   3  -6    6.66    0.38
   3  -4  -6    7.71    0.69
   4  -1   6    7.49    0.35
  -1  -3   6    7.50    0.37
  -1  -3   6    7.44    0.33
  -3   4   6    7.97    0.50
  -1  -3   6    7.71    0.43
  -3   4   6    7.31    0.33
  -1  -3   6    8.10    0.73
   2  -4  -6   19.58    1.46
   2   2  -6   20.11    0.83
  -4   2  -6   21.91    0.80
   2   2  -6   19.78    0.78
   2  -4  -6   19.97    0.97
   2  -4  -6   21.46    1.01
   2   2  -6   18.07    1.34
  -4   2  -6   21.03    1.08
  -4   2  -6   18.20    1.22
  -2   4   6   18.85    1.14
   4  -2   6   21.36    2.52
  -2  -2   6   18.52    0.88
  -2   4   6   20.71    0.73
   4  -2   6   20.39    0.78
  -2  -2   6   19.38    1.03
  -2  -2   6   20.73    0.74
  -2  -2   6   20.55    0.82
  -2   4   6   20.82    0.84
   1  -4  -6    7.61    0.48
   1  -4  -6    7.33    0.47
  -4   3  -6    8.63    0.66
   1  -4  -6    8.70    0.63
  -4   3  -6    8.13    0.39
   3   1  -6    7.02    0.42
   1  -4  -6    7.15    0.84
  -4   3  -6    7.20    0.46
  -1   4   6    8.05    0.31
  -3  -1   6    7.35    0.41
  -1   4   6    7.87    0.38
  -3  -1   6    7.33    0.49
   4  -3   6    7.77    1.68
   4  -3   6    6.59    0.40
  -3  -1   6    7.96    0.34
   4  -3   6    8.82    0.85
  -4   4  -6    7.87    0.67
  -4   4  -6    7.21    0.88
   0  -4  -6    7.63    0.55
   0  -4  -6    7.22    0.64
  -4   4  -6    7.69    0.48
   0  -4  -6    7.13    0.44
   0  -4  -6    7.09    0.34
   4   0  -6    6.82    0.45
   0  -4  -6    8.05    0.81
   4  -4   6    7.93    0.99
   4  -4   6    7.71    0.40
   4  -4   6    8.26    0.88
   4  -4   6    8.05    1.84
  -4   0   6    7.26    0.35
  -4   0   6    7.66    0.46
  -4   0   6    7.64    0.97
   5  -1  -6   12.46    0.58
   5  -1  -6   12.37    0.67
   5  -1  -6   12.71    0.65
  -4   5  -6   12.70    0.56
  -4   5  -6   12.24    0.70
  -1  -4  -6   13.03    0.86
  -1  -4  -6   12.06    0.62
  -4   5  -6   12.44    0.69
   4  -5   6   13.28    0.59
  -5   1   6   11.99    0.69
   4  -5   6   11.94    0.60
   1   4   6   11.92    0.60
  -5   1   6   11.86    0.53
  -5   1   6   13.49    0.71
   4  -5   6   12.73    0.59
   4  -5   6   11.77    1.13
  -5   1   6   13.05    0.61
   1   4   6   11.88    0.62
   1   4   6   12.15    0.57
   0   5  -6    6.77    0.45
  -5   0  -6    6.14    0.94
   0   5  -6    6.98    0.51
  -5   0  -6    6.99    0.52
   0   5  -6    6.51    0.40
   5  -5  -6    6.08    0.36
   0   5  -6    6.42    0.39
   5  -5  -6    5.99    0.39
   5  -5  -6    6.06    0.88
  -5   5   6    6.35    0.47
   5   0   6    6.64    0.35
  -5   5   6    7.20    1.04
  -5   5   6    6.37    0.33
   0  -5   6    5.92    0.43
   5   0   6    6.23    0.37
   0  -5   6    5.99    0.71
  -5   5   6    6.08    0.53
   1   4  -6   12.05    0.57
  -5   1  -6   12.25    1.34
   1   4  -6   12.46    0.58
   4  -5  -6   12.60    1.06
   1   4  -6   12.04    0.66
   1   4  -6   12.24    0.61
   4  -5  -6   12.59    0.55
  -5   1  -6   12.32    0.67
  -4   5   6   12.42    0.72
   5  -1   6   12.26    0.52
  -1  -4   6   11.82    0.87
  -4   5   6   11.09    0.64
  -4   5   6   12.21    0.50
   5  -1   6   12.15    0.55
   5  -1   6   12.37    0.54
   5  -1   6   12.06    0.63
   3  -5  -6    6.03    0.90
   2   3  -6    7.34    0.41
  -5   2  -6    5.96    0.61
   2   3  -6    7.06    0.45
  -5   2  -6    7.01    0.50
  -5   2  -6    5.84    0.91
   2   3  -6    7.22    0.50
  -5   2  -6    7.76    0.54
  -2  -3   6    7.11    0.39
   5  -2   6    6.42    0.38
  -3   5   6    7.11    0.71
  -2  -3   6    6.45    0.49
  -2  -3   6    6.88    0.68
  -2  -3   6    6.88    0.36
  -3   5   6    7.01    0.57
   5  -2   6    6.30    0.36
  -3   5   6    7.02    0.31
   3   2  -6    6.49    0.43
  -5   3  -6    7.39    0.51
  -5   3  -6    6.94    0.64
   2  -5  -6    6.79    0.78
   3   2  -6    6.88    0.44
  -5   3  -6    6.40    0.85
  -3  -2   6    6.39    0.41
  -2   5   6    6.71    0.30
   5  -3   6    6.45    0.38
   5  -3   6    7.13    0.42
   5  -3   6    8.71    2.07
  -3  -2   6    6.66    0.73
  -3  -2   6    6.81    0.45
  -2   5   6    6.90    0.54
  -2   5   6    6.33    0.45
   4   1  -6   12.59    0.54
   4   1  -6   11.70    0.62
  -5   4  -6   13.01    0.70
  -5   4  -6   12.77    0.72
   4   1  -6   11.49    0.64
   1  -5  -6   12.85    0.94
  -5   4  -6   13.00    1.21
  -4  -1   6   10.96    0.60
  -4  -1   6   10.11    0.99
  -4  -1   6   10.26    0.68
   5  -4   6   11.69    0.57
  -1   5   6   12.26    0.59
   5  -4   6   13.32    1.30
  -1   5   6   12.45    0.65
   5  -4   6   12.05    0.59
   5   0  -6    6.64    0.39
  -5   5  -6    6.09    0.36
   5   0  -6    6.61    0.49
  -5   5  -6    7.10    0.67
  -5   5  -6    5.81    0.54
   5   0  -6    6.99    0.49
  -5   5  -6    6.21    1.05
  -5   5  -6    6.86    0.67
   0  -5  -6    6.35    0.35
  -5   0   6    6.57    1.11
   5  -5   6    6.37    0.40
   5  -5   6    6.21    0.43
   5  -5   6    6.55    0.41
   0   5   6    6.78    0.47
  -5   0   6    6.57    0.53
   0   5   6    6.36    0.44
  -5   0   6    6.95    0.45
   5  -5   6    6.66    0.98
   0   0  -7   -0.02    0.05
   0   0  -7   -0.06    0.02
   0   0   7   -0.06    0.04
   0   0   7   -0.04    0.01
   0   1  -7    3.50    0.19
   0   1  -7    3.82    0.30
   0   1  -7    3.99    0.17
   1  -1  -7    3.59    0.24
  -1   1   7    3.35    0.16
   0  -1   7    4.22    0.19
   1   0   7    2.88    0.24
   0  -1   7    3.73    0.18
  -1   1   7    3.37    0.21
   1   0  -7    3.49    0.17
  -1   1  -7    3.35    0.23
   1   0  -7    3.57    0.25
   1   0  -7    3.87    0.17
  -1   1  -7    3.20    0.41
   0  -1  -7    3.61    0.14
   0  -1  -7    3.93    0.13
  -1   1  -7    3.32    0.22
   0  -1  -7    3.93    0.16
  -1   0   7    3.77    0.23
  -1   0   7    3.73    0.17
   1  -1   7    3.25    0.33
   0   1   7    3.50    0.23
   1  -1   7    3.06    0.24
   0   1   7    3.67    0.17
  -1   0   7    3.67    0.16
   1  -1   7    3.40    0.20
  -1   2  -7   -0.01    0.06
   2  -1  -7    0.24    0.17
  -1   2  -7   -0.10    0.23
  -1   2  -7   -0.06    0.07
  -1  -1  -7   -0.01    0.03
  -1  -1  -7    0.00    0.03
  -2   1   7    0.00    0.08
   1  -2   7   -0.06    0.06
   1  -2   7   -0.04    0.15
   1  -2   7   -0.03    0.07
   1   1   7    0.00    0.09
   3  -2  -7    3.34    0.48
   3  -2  -7    3.34    0.89
  -1   3  -7    3.64    0.19
  -1   3  -7    3.09    0.27
  -1   3  -7    3.71    0.68
  -2  -1  -7    3.40    0.21
   1  -3   7    3.30    0.27
  -3   2   7    3.67    0.36
   2   1   7    3.27    0.35
   2   1   7    3.16    0.19
   1  -3   7    3.44    0.20
   1  -3   7    3.22    0.28
   1  -3   7    3.21    0.54
  -3   2   7    3.35    0.20
  -3   2   7    3.74    0.29
   0   2  -7    4.60    0.23
   2  -2  -7    5.11    0.43
   2  -2  -7    3.54    0.72
   2  -2  -7    4.85    0.42
   0   2  -7    3.98    0.27
   0   2  -7    4.09    0.46
  -2   2   7    4.48    0.22
  -2   2   7    4.96    0.31
   0  -2   7    4.81    0.40
   0  -2   7    3.94    0.24
   2   0   7    4.03    0.20
   2   0   7    3.93    0.32
   1   1  -7   -0.05    0.14
   1  -2  -7    0.05    0.07
  -2   1  -7   -0.06    0.10
   1  -2  -7    0.06    0.08
   1  -2  -7    0.07    0.20
  -1   2   7    0.10    0.31
   2  -1   7   -0.05    0.15
   2   0  -7    4.23    0.24
  -2   2  -7    4.12    0.93
  -2   2  -7    4.24    0.36
   2   0  -7    4.60    0.25
   0  -2  -7    4.07    0.30
   0  -2  -7    4.77    0.20
   0  -2  -7    4.16    0.21
   2  -2   7    4.27    0.20
  -2   0   7    4.11    0.23
  -2   0   7    4.38    0.24
   0   2   7    4.01    0.38
  -2   0   7    3.96    0.30
   2  -2   7    4.43    0.38
   0   2   7    4.17    0.24
   3  -1  -7    3.21    0.28
  -1  -2  -7    3.93    0.19
   3  -1  -7    4.12    0.43
  -1  -2  -7    3.38    0.30
  -2   3  -7    2.33    0.67
  -2   3  -7    3.59    0.33
  -1  -2  -7    2.90    0.21
  -2   3  -7    3.61    0.23
   3  -1  -7    3.09    0.52
   2  -3   7    3.36    0.37
   1   2   7    3.39    0.22
  -3   1   7    3.63    0.18
  -3   1   7    3.04    0.27
   2  -3   7    3.84    0.67
   1   2   7    3.03    0.40
   2  -3   7    3.18    0.33
   2  -3   7    3.35    0.20
  -2   4  -7   -0.14    0.73
  -2   4  -7   -0.02    0.18
  -2  -2  -7    0.22    0.10
  -2  -2  -7    0.18    0.10
   4  -2  -7    0.92    0.21
  -2   4  -7    0.05    0.10
   4  -2  -7    0.05    0.43
   2  -4   7    0.39    0.21
   2  -4   7    0.14    0.54
  -4   2   7    0.06    0.09
  -4   2   7    0.02    0.28
   2   2   7    0.37    0.42
  -3  -2  -7    2.91    0.30
  -3  -2  -7    3.43    0.59
   5  -3  -7    3.23    0.33
   5  -3  -7    4.43    1.11
  -2   5  -7    2.77    0.26
   5  -3  -7    3.84    0.37
  -2   5  -7    2.89    0.34
  -5   3   7    3.84    0.27
   2  -5   7    2.56    0.56
   3   2   7    2.91    0.25
   3   2   7    3.22    0.24
   2  -5   7    3.02    0.26
  -5   3   7    3.57    0.43
   2  -5   7    2.95    0.34
  -5   3   7    3.44    0.32
  -5   3   7    4.59    0.86
   4  -3  -7    4.27    1.24
  -1   4  -7    5.30    0.30
   4  -3  -7    6.13    0.73
  -3  -1  -7    5.01    0.32
   4  -3  -7    5.83    0.39
  -1   4  -7    5.37    0.36
  -3  -1  -7    4.55    0.51
   1  -4   7    5.59    0.59
   1  -4   7    4.48    0.82
   1  -4   7    4.61    0.40
  -4   3   7    5.51    0.51
   1  -4   7    5.33    0.29
   3  -3  -7   -0.08    0.75
   3  -3  -7    0.09    0.23
   0   3  -7    0.16    0.38
   3  -3  -7   -0.16    0.20
  -3   0  -7    0.33    0.16
   0   3  -7    0.09    0.07
   0   3  -7    0.30    0.16
   0   3  -7    0.22    0.09
   0  -3   7    0.10    0.30
   3   0   7    0.42    0.22
   3   0   7    0.19    0.06
   3   0   7    0.05    0.12
   0  -3   7    0.11    0.13
   0  -3   7    0.19    0.07
  -3   3   7    0.12    0.07
  -3   1  -7    3.52    0.32
   1   2  -7    3.07    0.25
   1   2  -7    3.24    0.21
   2  -3  -7    3.72    0.36
   2  -3  -7    2.79    0.44
   1   2  -7    3.15    0.50
   1   2  -7    3.52    0.19
   3  -1   7    3.24    0.54
  -2   3   7    3.44    0.17
  -1  -2   7    3.24    0.18
  -2   3   7    3.22    0.48
   3  -1   7    3.36    0.18
  -1  -2   7    3.44    0.22
  -2   3   7    3.01    0.90
  -2   3   7    3.56    0.27
  -1  -2   7    3.21    0.22
   1  -3  -7    3.52    0.27
   2   1  -7    4.38    0.49
   2   1  -7    3.48    0.25
   1  -3  -7    3.39    0.49
   1  -3  -7    3.60    0.26
   2   1  -7    3.42    0.21
   3  -2   7    4.46    1.53
  -2  -1   7    3.28    0.22
  -2  -1   7    3.21    0.18
   3  -2   7    3.15    0.19
  -2  -1   7    3.47    0.22
  -1   3   7    3.69    0.36
  -1   3   7    3.34    0.15
  -1   3   7    3.53    0.70
  -3   3  -7    0.09    0.11
   3   0  -7    0.08    0.29
   0  -3  -7    0.32    0.24
  -3   3  -7    0.43    0.28
   0  -3  -7    0.08    0.10
   3   0  -7    0.17    0.12
   0  -3  -7    0.18    0.17
   3  -3   7    0.44    0.25
  -3   0   7    0.11    0.06
   3  -3   7   -0.15    0.21
   0   3   7    0.61    0.38
   3  -3   7    0.20    0.09
   0   3   7    0.33    0.09
  -1  -3  -7    5.36    0.32
  -1  -3  -7    5.38    0.31
  -3   4  -7    5.02    0.32
   4  -1  -7    5.39    0.38
  -1  -3  -7    5.25    0.54
  -3   4  -7    8.41    2.11
  -3   4  -7    5.26    0.54
   3  -4   7    5.41    0.30
   3  -4   7    5.21    0.58
  -4   1   7    5.07    0.83
   3  -4   7    4.96    1.08
  -4   1   7    5.40    0.27
  -2  -3  -7    3.15    0.55
  -3   5  -7    2.80    0.37
  -2  -3  -7    3.11    0.24
   5  -2  -7    2.89    0.32
  -3   5  -7    3.54    0.27
   5  -2  -7    3.37    0.33
  -5   2   7    3.24    0.41
  -5   2   7    3.35    0.74
   2   3   7    3.26    0.26
  -5   2   7    3.30    0.26
   3  -5   7    3.01    0.33
   3  -5   7    2.40    0.67
   2   3   7    3.50    0.33
   3  -5   7    3.14    0.32
   3  -5   7    3.00    0.26
   5  -4  -7    0.40    0.48
  -4  -1  -7    0.63    0.43
  -1   5  -7    0.74    0.23
  -1   5  -7    0.45    0.14
   5  -4  -7    0.36    0.17
  -4  -1  -7    0.56    0.28
   5  -4  -7    0.35    0.16
  -1   5  -7    0.17    0.15
  -5   4   7    0.25    0.09
   1  -5   7    0.17    0.35
  -5   4   7    0.02    0.29
   1  -5   7    0.33    0.21
   4   1   7    0.21    0.13
  -5   4   7   -0.23    0.48
   4   1   7    0.37    0.12
  -5   4   7    0.30    0.19
  -4   0  -7    1.75    0.51
   4  -4  -7    1.70    0.98
   0   4  -7    2.17    0.29
   4  -4  -7    2.29    0.60
   0   4  -7    1.91    0.19
  -4   0  -7    2.55    0.38
   4  -4  -7    3.02    0.70
   0  -4   7    1.83    0.41
   0  -4   7    2.17    0.20
   0  -4   7    2.33    0.32
  -4   4   7    2.63    0.38
   4   0   7    2.00    0.14
   0  -4   7    1.74    0.56
  -4   4   7    2.06    0.16
  -4   1  -7    5.62    0.48
  -4   1  -7    4.88    0.83
   3  -4  -7    5.47    1.27
   3  -4  -7    6.60    0.91
   3  -4  -7    5.39    0.78
   1   3  -7    5.20    0.33
   3  -4  -7    5.61    0.60
  -4   1  -7    4.54    0.39
   4  -1   7    5.05    0.26
  -1  -3   7    5.25    0.66
  -1  -3   7    5.08    0.27
  -1  -3   7    5.13    0.29
  -1  -3   7    5.19    0.35
  -3   4   7    5.59    0.42
  -3   4   7    5.33    0.27
   2   2  -7    0.22    0.13
   2   2  -7    0.08    0.09
   2  -4  -7    0.00    0.21
  -4   2  -7    0.28    0.23
   2  -4  -7    0.44    0.58
  -4   2  -7    0.23    0.30
  -4   2  -7    0.32    0.48
   2  -4  -7    0.04    0.25
  -2  -2   7   -0.26    0.24
  -2   4   7    0.01    0.15
   4  -2   7   -0.26    0.36
  -2  -2   7    0.07    0.10
   4  -2   7    0.10    0.09
   1  -4  -7    5.37    0.41
   1  -4  -7    5.25    0.55
  -4   3  -7    5.73    0.58
  -4   3  -7    5.79    0.45
   1  -4  -7    5.62    0.81
   1  -4  -7    4.98    0.38
   3   1  -7    4.13    0.48
  -4   3  -7    5.37    0.39
  -3  -1   7    5.12    0.33
  -3  -1   7    5.03    0.25
   4  -3   7    3.45    1.19
  -3  -1   7    5.05    0.66
   4  -3   7    5.48    0.76
  -4   4  -7    1.97    0.33
   0  -4  -7    2.19    0.18
  -4   4  -7    2.27    0.51
   0  -4  -7    2.69    0.34
   4   0  -7    2.05    0.29
   0  -4  -7    2.10    0.28
   0  -4  -7    1.96    0.40
   4  -4   7    2.13    0.22
  -4   0   7    1.97    0.61
   4  -4   7    1.55    1.27
   4  -4   7    3.05    0.71
  -4   0   7    2.56    0.24
   4  -4   7    2.20    0.54
  -4   0   7    2.40    0.31
  -4   5  -7    0.35    0.24
  -1  -4  -7    0.26    0.17
  -4   5  -7    0.43    0.25
  -1  -4  -7    0.33    0.32
   5  -1  -7    0.15    0.19
  -4   5  -7   -0.11    0.23
  -4   5  -7    0.41    0.14
   5  -1  -7    0.01    0.15
   5  -1  -7   -0.07    0.23
   4  -5   7   -0.48    0.49
  -5   1   7    0.39    0.26
   4  -5   7    0.10    0.16
   1   4   7    0.28    0.14
   4  -5   7    0.25    0.14
   1   4   7    0.28    0.19
  -5   1   7    0.15    0.74
   4  -5   7    0.78    0.19
  -5   1   7    0.39    0.19
  -5   1   7    0.56    0.24
  -5   1   7    0.36    0.11
  -5   0  -7    6.03    0.96
   0   5  -7    6.22    0.48
  -5   0  -7    5.82    0.51
   5  -5  -7    5.80    0.35
   0   5  -7    6.10    0.44
   0   5  -7    5.66    0.37
   0   5  -7    5.29    0.37
   5  -5  -7    6.56    0.90
   5  -5  -7    5.79    0.37
  -5   5   7    5.42    0.50
  -5   5   7    4.89    0.43
   0  -5   7    5.33    0.68
   5   0   7    5.76    0.33
  -5   5   7    5.89    0.30
   0  -5   7    5.76    0.43
   5   0   7    5.26    0.35
   1   4  -7    0.02    0.26
  -5   1  -7    1.13    0.58
   1   4  -7    0.40    0.16
  -5   1  -7    0.26    0.21
   4  -5  -7    0.25    0.46
   4  -5  -7    0.38    0.15
   1   4  -7    0.52    0.21
   1   4  -7    0.27    0.13
  -4   5   7    0.20    0.23
   5  -1   7    0.50    0.21
  -4   5   7    0.19    0.08
  -1  -4   7    0.70    0.34
   5  -1   7    0.15    0.15
  -4   5   7    0.63    0.26
   5  -1   7    0.20    0.10
   2   3  -7    3.03    0.38
   2   3  -7    2.70    0.33
   2   3  -7    3.12    0.27
  -5   2  -7    3.38    0.54
  -5   2  -7    3.77    0.82
   3  -5  -7    3.45    0.81
  -5   2  -7    2.73    0.39
  -3   5   7    3.37    0.19
  -2  -3   7    2.48    0.56
  -2  -3   7    2.89    0.35
  -3   5   7    3.46    0.47
   5  -2   7    3.11    0.35
  -3   5   7    3.19    0.42
  -2  -3   7    2.85    0.28
   5  -2   7    2.96    0.26
   5  -2   7    3.06    0.23
  -3   5   7    2.97    0.36
   2  -5  -7    3.00    0.60
  -5   3  -7    3.57    0.74
   3   2  -7    2.72    0.31
  -5   3  -7    3.76    0.39
   3   2  -7    3.14    0.32
  -2   5   7    2.92    0.50
  -2   5   7    2.56    0.35
  -3  -2   7    3.16    0.34
  -2   5   7    2.84    0.42
   5  -3   7    3.09    0.30
   5  -3   7    2.80    0.25
   5  -3   7    3.61    0.49
  -3  -2   7    2.62    0.61
  -2   5   7    3.13    0.17
  -3  -2   7    3.15    0.32
   4   1  -7    0.47    0.21
   4   1  -7    0.17    0.14
   1  -5  -7    0.08    0.35
  -5   4  -7    0.25    0.50
  -5   4  -7    0.23    0.23
  -5   4  -7    0.48    0.29
   4   1  -7    0.05    0.19
  -1   5   7    0.26    0.19
  -1   5   7    0.67    0.23
   5  -4   7   -0.19    0.17
   5  -4   7    0.47    0.19
   5  -4   7    0.10    0.13
  -4  -1   7    0.41    0.19
  -4  -1   7   -0.21    0.39
   5  -4   7    0.09    0.68
  -4  -1   7    0.33    0.24
  -5   5  -7    5.81    0.35
   0  -5  -7    5.76    0.33
  -5   5  -7    5.08    0.52
   5   0  -7    6.13    0.48
   5   0  -7    6.46    0.48
  -5   5  -7    5.91    0.95
   5   0  -7    5.56    0.37
  -5   5  -7    5.38    0.53
   0   5   7    6.32    0.47
  -5   0   7    7.09    0.53
  -5   0   7    6.43    0.43
   5  -5   7    6.01    0.40
   0   5   7    5.72    0.43
   5  -5   7    5.51    1.02
   5  -5   7    5.05    0.38
   5  -5   7    5.39    0.40
  -5   0   7    5.08    1.08
   0   0  -8   97.07    3.52
   0   0  -8  112.07    3.57
   0   0   8  109.15    3.55
   0   1  -8  185.45    6.17
   1  -1  -8  186.96    6.01
   0   1  -8  186.10    6.04
   1  -1  -8  184.16    6.07
   1  -1  -8  162.56    6.08
  -1   1   8  178.54    6.04
   1   0   8  175.28    6.06
   0  -1   8  195.15    6.14
   0  -1   8  175.14    6.02
  -1   1  -8  186.88    6.26
   1   0  -8  186.11    6.03
  -1   1  -8  177.35    5.98
  -1   1  -8  169.04    5.99
   0   1   8  166.56    5.91
  -1   0   8  190.29    6.00
   1  -1   8  159.90    6.00
   1  -1   8  175.76    5.96
   1  -1   8  186.41    6.13
   0   1   8  176.85    5.97
  -1   0   8  187.75    5.92
   2  -1  -8   70.78    2.49
  -1   2  -8   65.11    2.39
  -1  -1  -8   66.44    2.25
  -1  -1  -8   66.57    2.25
   2  -1  -8   70.28    2.34
  -1   2  -8   65.88    2.33
   1   1   8   69.78    2.33
   1  -2   8   68.68    2.36
  -2   1   8   64.67    2.32
  -2   1   8   65.06    2.37
   1   1   8   67.18    2.26
   1  -2   8   68.55    2.58
  -1   3  -8   86.80    3.19
  -2  -1  -8   91.39    3.04
   3  -2  -8   90.70    3.43
  -1   3  -8   87.31    3.02
  -1   3  -8   88.26    3.10
  -1   3  -8   88.20    3.58
   1  -3   8   93.80    3.03
  -3   2   8   87.83    3.02
   1  -3   8   89.20    3.14
  -3   2   8   96.89    3.13
   1  -3   8   91.32    3.14
   2   1   8   89.31    3.03
   2   1   8   88.96    3.17
   1  -3   8   85.54    3.47
  -3   2   8   88.90    3.23
   2  -2  -8  121.40    4.85
   0   2  -8  123.61    4.26
   2  -2  -8  127.75    4.51
   0   2  -8  119.19    4.20
   2  -2  -8  133.42    4.46
   0   2  -8  128.83    4.50
  -2   2   8  126.36    4.16
   2   0   8  122.43    4.17
   0  -2   8  120.98    4.23
   0  -2   8  129.26    4.24
   0  -2   8  126.52    4.42
   2   0   8  121.87    4.25
   1   1  -8   68.84    2.30
   1  -2  -8   68.19    2.38
  -2   1  -8   66.52    2.42
   1  -2  -8   67.94    2.56
   1   1  -8   66.92    2.48
   1  -2  -8   67.53    2.33
   1   1  -8   66.36    2.32
  -1   2   8   70.21    2.26
  -1  -1   8   69.42    2.30
  -1  -1   8   66.48    2.30
  -1   2   8   67.39    2.76
  -1  -1   8   69.42    2.49
  -1   2   8   64.66    2.44
   2  -1   8   64.36    2.48
   0  -2  -8  127.51    4.38
   0  -2  -8  125.23    4.28
   2   0  -8  129.04    4.34
  -2   2  -8  120.89    4.48
  -2   2  -8  126.57    5.12
   0  -2  -8  129.95    4.29
   2   0  -8  126.43    4.34
   0   2   8  129.89    4.48
   2  -2   8  135.79    4.28
   0   2   8  126.17    4.34
  -2   0   8  127.41    4.32
  -2   0   8  133.64    4.43
  -2   0   8  127.92    4.33
   2  -2   8  128.48    4.51
  -2   0   8  136.14    4.29
  -2   3  -8   89.53    3.22
   3  -1  -8   92.88    3.12
  -2   3  -8   90.49    3.85
   3  -1  -8   93.29    3.45
  -1  -2  -8   87.82    3.04
  -1  -2  -8   89.53    3.05
  -2   3  -8   88.06    3.07
  -1  -2  -8   87.23    3.14
   2  -3   8   92.30    3.23
  -3   1   8   91.66    3.04
   2  -3   8   94.84    3.05
   2  -3   8   88.64    3.26
   1   2   8   93.63    3.25
   2  -3   8   91.14    3.62
  -3   1   8   85.16    3.14
   1   2   8   92.17    3.08
  -2   4  -8   25.44    0.98
   4  -2  -8   27.17    1.05
   4  -2  -8   25.34    1.91
  -2   4  -8   25.09    1.11
  -2   4  -8   24.57    1.97
  -2  -2  -8   24.89    0.96
  -2  -2  -8   25.69    0.96
   2  -4   8   24.82    1.60
   2  -4   8   26.58    1.15
   2  -4   8   25.81    0.96
  -4   2   8   26.55    0.96
  -4   2   8   26.06    1.22
  -3  -2  -8   26.68    1.33
  -2   5  -8   26.27    1.05
   5  -3  -8   27.03    1.10
   5  -3  -8   25.83    1.09
  -2   5  -8   26.41    1.10
  -3  -2  -8   26.85    1.05
   5  -3  -8   26.58    1.88
  -5   3   8   31.74    1.59
   2  -5   8   26.60    1.47
   2  -5   8   26.62    1.03
   3   2   8   26.19    1.02
   2  -5   8   26.94    1.09
  -5   3   8   25.57    1.05
  -5   3   8   26.81    1.03
  -5   3   8   27.68    1.15
   3   2   8   26.44    0.99
   4  -3  -8   51.58    3.00
  -1   4  -8   46.68    1.75
  -3  -1  -8   44.65    1.68
  -1   4  -8   45.19    1.71
   4  -3  -8   49.21    2.13
   4  -3  -8   49.26    1.74
   1  -4   8   47.48    1.80
   1  -4   8   46.46    1.97
  -4   3   8   45.84    1.65
   1  -4   8   45.19    2.19
  -4   3   8   47.88    1.88
   1  -4   8   47.43    1.66
   0   3  -8   34.78    1.22
   3  -3  -8   34.60    2.07
   3  -3  -8   35.29    1.56
   3  -3  -8   36.41    1.47
   0   3  -8   34.57    1.42
   0   3  -8   31.49    1.68
   0  -3   8   32.98    1.29
  -3   3   8   37.83    1.38
  -3   3   8   35.51    1.20
   3   0   8   30.70    1.38
   0  -3   8   34.07    1.21
   1   2  -8   89.24    3.10
   1   2  -8   89.15    3.41
   1   2  -8   91.25    3.06
   2  -3  -8   91.91    3.31
   2  -3  -8   93.66    3.26
  -3   1  -8   92.35    3.23
  -1  -2   8   87.65    3.11
   3  -1   8   93.77    3.51
  -1  -2   8   80.68    3.40
  -1  -2   8   91.43    3.11
   3  -1   8   93.17    3.03
  -2   3   8   88.79    3.03
  -2   3   8   94.51    3.15
  -1  -2   8   92.69    3.04
   1  -3  -8   90.99    3.11
   1  -3  -8   89.71    3.35
   2   1  -8   91.86    3.05
   2   1  -8   88.56    3.35
   1  -3  -8   93.28    3.14
   2   1  -8   87.87    3.09
  -1   3   8   93.43    3.61
  -1   3   8   85.79    3.21
   3  -2   8   89.75    3.03
  -2  -1   8   92.28    3.02
  -2  -1   8   88.61    3.08
  -2  -1   8   89.65    3.08
   0  -3  -8   33.90    1.26
   3   0  -8   33.00    1.61
   3   0  -8   37.03    1.30
   0  -3  -8   35.37    1.26
  -3   3  -8   34.13    1.26
  -3   3  -8   33.72    1.51
   0   3   8   34.04    1.62
   3  -3   8   34.30    1.52
  -3   0   8   34.58    1.21
   3  -3   8   36.36    1.51
   3  -3   8   34.53    1.23
  -3   4  -8   44.63    1.88
  -3   4  -8   47.45    1.65
   4  -1  -8   45.99    1.70
  -1  -3  -8   45.01    1.63
  -1  -3  -8   44.17    1.79
   4  -1  -8   46.95    1.87
  -1  -3  -8   46.97    1.63
   3  -4   8   49.25    2.61
   3  -4   8   43.69    1.69
  -4   1   8   45.42    1.59
  -4   1   8   43.32    2.14
   5  -2  -8   26.75    1.12
  -2  -3  -8   26.64    1.01
  -3   5  -8   29.82    1.23
  -2  -3  -8   26.61    1.31
  -3   5  -8   27.27    1.13
  -3   5  -8   26.97    1.07
   5  -2  -8   27.56    1.05
  -5   2   8   25.90    1.04
   3  -5   8   26.90    1.05
   2   3   8   26.97    1.03
   3  -5   8   27.40    1.08
  -5   2   8   26.96    1.14
   2   3   8   26.63    1.09
  -5   2   8   30.99    1.69
   3  -5   8   27.16    1.67
   5  -4  -8   11.98    1.16
  -1   5  -8   11.85    0.57
  -1   5  -8   12.16    0.57
   5  -4  -8   12.31    0.59
  -4  -1  -8   11.44    1.03
  -1   5  -8   12.29    0.65
   1  -5   8   11.84    0.93
  -5   4   8   12.52    0.69
  -5   4   8   13.96    1.12
  -5   4   8   11.92    0.60
   4   1   8   13.25    0.53
  -5   4   8   13.04    0.88
   4   1   8   12.23    0.55
   1  -5   8   12.25    0.55
   1  -5   8   12.29    0.65
  -5   4   8   12.28    0.52
  -4   0  -8   33.24    1.36
   4  -4  -8   35.89    1.64
   4  -4  -8   31.94    1.71
   0   4  -8   34.67    1.24
   4  -4  -8   30.94    2.30
   0   4  -8   33.50    1.30
  -4   0  -8   30.22    1.61
   0  -4   8   30.72    1.74
   0  -4   8   34.87    1.35
   0  -4   8   34.00    1.54
  -4   4   8   35.77    1.40
  -4   4   8   34.26    1.19
   3  -4  -8   44.34    2.55
  -4   1  -8   43.17    1.69
   1   3  -8   44.58    1.75
   1   3  -8   45.29    1.66
   3  -4  -8   47.94    1.95
  -4   1  -8   46.67    1.84
  -4   1  -8   39.52    2.10
   3  -4  -8   45.17    2.08
  -3   4   8   48.34    1.74
   4  -1   8   51.14    2.25
   4  -1   8   45.81    1.56
  -3   4   8   44.73    1.60
  -1  -3   8   45.96    1.61
  -1  -3   8   45.56    2.00
  -1  -3   8   47.29    1.69
  -1  -3   8   45.76    1.59
  -1  -3   8   45.02    1.89
  -4   2  -8   24.45    1.44
  -4   2  -8   26.67    1.30
  -4   2  -8   25.15    1.06
   2  -4  -8   24.70    1.63
   2   2  -8   26.16    1.01
   2   2  -8   25.26    0.96
  -4   2  -8   25.28    0.97
   2  -4  -8   26.54    1.19
   2  -4  -8   25.43    1.16
  -2   4   8   25.50    0.89
  -2  -2   8   23.68    1.25
  -2   4   8   25.38    0.98
   4  -2   8   25.33    0.93
   4  -2   8   33.15    2.65
  -2  -2   8   25.24    1.00
  -2  -2   8   25.03    1.24
  -2  -2   8   26.13    0.92
   3   1  -8   44.05    1.82
   1  -4  -8   46.27    1.76
  -4   3  -8   47.59    1.73
   1  -4  -8   46.93    1.90
   1  -4  -8   48.56    1.76
  -4   3  -8   51.05    2.01
   1  -4  -8   42.64    2.06
  -3  -1   8   46.59    1.70
   4  -3   8   56.30    3.26
  -3  -1   8   41.89    1.99
  -3  -1   8   47.63    1.62
   4  -3   8   44.81    1.65
   4  -3   8   48.35    2.16
   4   0  -8   34.73    1.40
  -4   4  -8   36.82    1.38
   0  -4  -8   33.50    1.84
   0  -4  -8   36.56    1.26
  -4   4  -8   36.97    1.63
   0  -4  -8   34.62    1.35
   0  -4  -8   35.77    1.39
   4  -4   8   36.30    2.86
   4  -4   8   36.65    1.90
  -4   0   8   35.23    1.85
   4  -4   8   34.37    1.31
  -4   0   8   35.73    1.27
  -4   0   8   36.55    1.35
  -4   5  -8   12.84    0.68
  -1  -4  -8   12.70    0.69
  -4   5  -8   12.57    0.57
   5  -1  -8   12.36    0.69
  -4   5  -8   13.06    0.68
  -4   5  -8   11.52    0.69
  -1  -4  -8   12.49    0.84
   5  -1  -8   12.44    0.60
   5  -1  -8   12.39    0.66
  -5   1   8   12.72    0.54
   1   4   8   12.75    0.58
   4  -5   8   12.83    0.60
  -5   1   8   12.97    0.70
   4  -5   8   13.62    1.19
  -5   1   8   13.03    0.69
  -5   1   8   12.35    1.32
   1   4   8   11.91    0.64
   4  -5   8   13.36    0.60
   4  -5   8   12.78    0.60
   0   5  -8   16.46    0.76
   5  -5  -8   16.32    1.27
   0   5  -8   17.00    0.73
  -5   0  -8   13.59    1.21
   5  -5  -8   16.09    0.68
  -5   0  -8   16.43    0.85
   0   5  -8   16.62    0.72
  -5   5   8   16.05    0.76
   5   0   8   15.68    0.67
   0  -5   8   16.49    1.08
  -5   5   8   16.61    0.64
   5   0   8   15.57    0.68
   0  -5   8   16.12    0.77
  -5   5   8   15.85    0.84
   1   4  -8   12.22    0.62
   4  -5  -8   12.82    0.55
   1   4  -8   12.01    0.58
   4  -5  -8   11.80    1.07
  -5   1  -8   12.17    0.69
  -5   1  -8   10.20    1.15
   1   4  -8   11.73    0.57
  -4   5   8   12.05    0.70
   5  -1   8   12.94    0.56
  -1  -4   8   11.64    0.88
  -4   5   8   12.57    0.64
   5  -1   8   12.77    0.47
  -4   5   8   12.27    0.50
   5  -1   8   12.88    0.63
  -4   5   8   13.86    0.83
   5  -1   8   12.11    0.54
   2   3  -8   25.65    1.03
   2   3  -8   25.15    1.10
  -5   2  -8   26.58    1.12
   2   3  -8   25.89    1.01
  -5   2  -8   25.70    1.24
   3  -5  -8   26.88    1.57
  -5   2  -8   28.77    1.63
   2   3  -8   26.04    1.06
   5  -2   8   25.74    1.00
   5  -2   8   25.36    0.97
  -3   5   8   26.24    1.08
  -2  -3   8   26.97    1.12
  -3   5   8   26.26    1.15
  -2  -3   8   26.71    1.38
   5  -2   8   26.17    1.08
  -3   5   8   26.92    0.93
  -2  -3   8   26.23    1.01
  -5   3  -8   27.26    1.12
   3   2  -8   26.71    1.06
  -5   3  -8   25.77    1.53
   3   2  -8   26.33    1.05
   2  -5  -8   25.65    1.43
  -3  -2   8   24.43    1.40
  -2   5   8   26.70    1.07
  -3  -2   8   25.04    1.02
   5  -3   8   25.61    1.02
  -2   5   8   25.06    1.12
   5  -3   8   25.98    0.99
   5  -3   8   26.53    1.06
  -2   5   8   25.77    1.16
  -3  -2   8   24.40    1.09
  -3  -2   8   26.03    1.08
   4   1  -8   12.13    0.55
  -5   4  -8   11.69    1.12
  -5   4  -8   12.21    0.71
   4   1  -8   12.47    0.64
   4   1  -8   12.14    0.66
   1  -5  -8   12.53    1.07
   5  -4   8   11.89    0.60
  -1   5   8   12.06    0.62
   5  -4   8   13.67    0.61
   5  -4   8   12.19    0.57
  -4  -1   8   11.60    1.02
  -4  -1   8   11.43    0.69
  -4  -1   8   12.05    0.62
  -1   5   8   11.75    0.65
   5  -4   8   11.84    1.36
   0  -5  -8   16.33    0.67
   5   0  -8   16.19    0.72
  -5   5  -8   17.35    0.85
  -5   5  -8   16.14    1.35
   5   0  -8   15.91    0.81
   5   0  -8   15.92    0.82
  -5   0   8   18.60    0.77
   5  -5   8   15.72    0.74
   5  -5   8   16.19    0.74
  -5   0   8   16.38    0.94
   5  -5   8   16.99    0.73
  -5   0   8   17.38    0.86
   0   5   8   16.63    0.76
   5  -5   8   17.34    1.38
   0   5   8   15.90    0.81
  -5   0   8   14.78    1.43
   0   0  -9   -0.93    0.03
   0   0  -9   -0.91    0.07
   0   0  -9   -0.92    0.02
   0   0   9   -0.94    0.05
   0   0   9   -0.87    0.02
   1  -1  -9  416.08   13.50
   0   1  -9  393.10   13.60
   0  -1   9  412.50   13.56
  -1   1  -9  365.26   12.09
  -1   1  -9  342.00   11.81
   1   0  -9  408.79   11.87
   1  -1   9  309.49   11.81
   0   1   9  335.45   11.81
   1  -1   9  374.14   12.01
  -1   2  -9   -0.32    0.07
  -1   2  -9    0.00    0.28
   2  -1  -9   -0.29    0.15
  -2   1   9   -0.38    0.08
  -2   1   9   -0.27    0.07
   1   1   9   -0.42    0.08
   1  -2   9   -0.35    0.11
  -2  -1  -9  266.30    8.44
  -1   3  -9  243.03    8.43
  -1   3  -9  258.08    9.03
  -1   3  -9  246.18    8.50
  -3   2   9  248.36    8.63
  -3   2   9  237.90    8.42
   1  -3   9  255.86    8.55
  -3   2   9  274.52    8.53
   2   1   9  263.13    8.57
   1  -3   9  243.74    8.55
   1  -3   9  265.49    8.43
   2   1   9  250.28    8.43
   0   2  -9  292.90   10.30
   0   2  -9  304.63   10.54
   2  -2  -9  302.18   10.91
   2  -2  -9  316.75   10.48
   0  -2   9  306.24   10.47
   0  -2   9  318.40   10.20
  -2   2   9  324.74   10.19
   0  -2   9  306.35   10.26
  -2   2   9  324.35   10.26
   0  -2   9  293.39   10.27
   1   1  -9   -0.25    0.05
   1  -2  -9   -0.29    0.08
  -2   1  -9   -0.29    0.13
   1   1  -9   -0.22    0.18
   1   1  -9   -0.35    0.06
   1  -2  -9   -0.41    0.09
   1  -2  -9   -0.35    0.22
  -1  -1   9   -0.43    0.10
  -1   2   9   -0.21    0.05
  -1   2   9   -0.41    0.37
  -1  -1   9   -0.41    0.04
  -1  -1   9   -0.41    0.05
   2  -1   9   -0.51    0.13
  -2   2  -9  295.84   10.64
   2   0  -9  317.45   10.49
   0  -2  -9  325.77   10.51
  -2   2  -9  327.16   11.35
   2   0  -9  298.03   10.56
   0   2   9  323.36   10.64
  -2   0   9  326.52   10.59
  -2   0   9  321.64   10.48
  -2   0   9  309.74   10.42
   0   2   9  313.90   10.49
   2  -2   9  333.81   10.43
   2  -2   9  301.19   10.64
   3  -1  -9  256.38    8.89
   3  -1  -9  241.52    8.77
  -1  -2  -9  252.71    8.48
  -2   3  -9  267.24    9.36
  -1  -2  -9  245.64    8.55
  -1  -2  -9  241.86    8.48
  -2   3  -9  254.55    8.67
  -2   3  -9  259.79    8.52
   3  -1  -9  271.78    8.57
   2  -3   9  260.33    8.49
   2  -3   9  249.12    8.66
   1   2   9  260.38    8.52
  -3   1   9  246.72    8.58
  -3   1   9  257.91    8.48
   1   2   9  269.02    8.68
   2  -3   9  268.63    9.10
   2  -3   9  255.02    8.72
  -2   4  -9   -0.17    0.19
   4  -2  -9    0.30    0.17
   4  -2  -9    0.29    0.50
  -2  -2  -9    0.15    0.10
  -2  -2  -9    0.06    0.10
  -2   4  -9    1.45    0.85
  -2   4  -9    0.11    0.11
   4  -2  -9    0.24    0.63
   2  -4   9    0.12    0.09
   2   2   9    0.04    0.41
  -4   2   9   -0.04    0.08
   2  -4   9    0.48    0.56
   2  -4   9   -0.18    0.19
  -4   2   9   -0.31    0.26
  -2   5  -9  118.35    4.11
  -2   5  -9  116.42    4.06
   5  -3  -9  118.91    4.96
   5  -3  -9  111.67    4.09
  -3  -2  -9  123.98    4.35
  -3  -2  -9  116.08    4.05
  -5   3   9  111.25    4.04
   2  -5   9  119.40    4.09
  -5   3   9  118.43    4.12
  -5   3   9  115.64    4.03
   3   2   9  119.75    4.00
   2  -5   9  115.83    4.04
   3   2   9  120.12    4.02
  -5   3   9  132.42    4.57
   2  -5   9  119.01    4.53
   4  -3  -9  155.57    6.67
  -1   4  -9  159.14    5.48
   4  -3  -9  166.40    5.87
   4  -3  -9  167.99    5.47
  -3  -1  -9  157.16    5.41
  -4   3   9  154.44    5.37
  -4   3   9  167.37    5.62
   1  -4   9  163.46    5.39
   1  -4   9  159.84    5.94
   1  -4   9  155.56    5.52
   1  -4   9  159.77    5.70
   3  -3  -9    0.10    0.60
   3  -3  -9    0.62    0.28
   0   3  -9    0.07    0.09
   0   3  -9    0.15    0.08
   3  -3  -9    0.21    0.23
   0   3  -9    0.24    0.42
   0  -3   9    0.01    0.34
   0  -3   9    0.21    0.13
   3   0   9    0.30    0.22
  -3   3   9    0.61    0.20
   0  -3   9    0.14    0.07
  -3   3   9    0.19    0.06
   2  -3  -9  246.78    9.27
   1   2  -9  267.03    8.98
   2  -3  -9  265.74    8.84
   1   2  -9  257.52    8.62
  -3   1  -9  258.39    8.75
   1   2  -9  260.82    8.58
   2  -3  -9  267.35    8.79
   3  -1   9  273.06    8.54
  -1  -2   9  249.62    8.63
  -1  -2   9  269.47    8.88
  -2   3   9  254.83    8.54
  -1  -2   9  254.42    8.63
  -2   3   9  262.00    8.64
   3  -1   9  229.01    9.16
  -1  -2   9  265.58    8.56
   2   1  -9  265.48    9.15
   2   1  -9  260.28    8.86
   1  -3  -9  263.02    8.88
   1  -3  -9  276.72    9.12
  -3   2  -9  273.28    9.15
   2   1  -9  268.81    8.82
   1  -3  -9  275.81    8.90
  -1   3   9  253.25    8.99
  -2  -1   9  264.51    9.05
  -2  -1   9  262.81    8.85
   3  -2   9  262.24    8.79
   3  -2   9  282.78    9.92
  -2  -1   9  272.30    8.79
  -1   3   9  259.33    8.78
  -1   3   9  264.94    9.39
  -2  -1   9  251.49    8.85
   0  -3  -9    0.09    0.10
  -3   3  -9    0.74    0.30
  -3   3  -9    0.41    0.14
   3   0  -9    0.29    0.13
   3   0  -9    0.01    0.32
   0  -3  -9    0.13    0.09
   3  -3   9    0.76    0.68
   0   3   9   -0.12    0.37
   3  -3   9    0.10    0.25
   3  -3   9    0.11    0.08
   3  -3   9    0.10    0.21
   0   3   9    0.26    0.15
  -3   0   9    0.07    0.06
  -1  -3  -9  157.06    5.49
   4  -1  -9  160.86    5.42
  -1  -3  -9  164.95    5.34
  -3   4  -9  161.15    5.36
  -3   4  -9  153.53    6.94
  -1  -3  -9  157.68    5.34
  -3   4  -9  152.93    5.61
  -3   4  -9  159.21    6.43
  -3   4  -9  160.17    5.36
   3  -4   9  170.10    5.80
  -4   1   9  133.65    5.39
  -4   1   9  161.67    5.56
  -4   1   9  160.33    5.89
   3  -4   9  173.03    6.38
   3  -4   9  156.90    5.33
   5  -2  -9  116.95    4.11
   5  -2  -9  113.08    4.28
   5  -2  -9  119.86    4.18
   5  -2  -9  121.12    4.04
  -3   5  -9  113.66    4.06
  -3   5  -9  115.88    4.09
  -3   5  -9  116.79    4.10
  -2  -3  -9  121.98    4.30
  -2  -3  -9  121.99    3.99
   3  -5   9  114.53    4.65
   2   3   9  119.48    4.02
  -5   2   9  117.78    4.03
   3  -5   9  113.31    4.04
   2   3   9  119.11    4.08
  -5   2   9  127.22    4.62
   3  -5   9  116.37    4.03
   3  -5   9  118.97    4.07
  -5   2   9  119.94    4.12
  -4  -1  -9   -0.01    0.46
  -1   5  -9    0.21    0.14
   5  -4  -9    0.26    0.50
  -1   5  -9    0.08    0.21
  -1   5  -9    0.14    0.13
  -4  -1  -9    0.09    0.23
   5  -4  -9    0.13    0.15
   4   1   9    0.27    0.12
  -5   4   9    0.42    0.27
   1  -5   9    0.20    0.35
  -5   4   9    0.62    0.14
   1  -5   9    0.37    0.12
  -5   4   9    0.14    0.53
   4   1   9    0.20    0.13
  -5   4   9    0.39    0.19
   1  -5   9    0.48    0.22
   4  -4  -9  143.99    5.20
  -4   0  -9  138.54    4.93
  -4   0  -9  131.55    5.20
   4  -4  -9  131.01    5.82
   4  -4  -9  144.46    5.34
   0   4  -9  147.15    4.89
   0   4  -9  142.22    4.82
   0  -4   9  136.18    5.33
   0  -4   9  147.50    5.15
  -4   4   9  140.59    4.77
   0  -4   9  150.57    4.81
   0  -4   9  152.70    4.95
  -4   4   9  148.24    4.97
   3  -4  -9  174.45    5.66
   1   3  -9  157.25    5.35
  -4   1  -9  154.39    5.37
   3  -4  -9  158.77    5.76
   3  -4  -9  155.09    6.22
  -4   1  -9  164.40    5.55
   1   3  -9  155.08    5.47
   1   3  -9  148.80    5.29
  -4   1  -9  134.66    5.73
  -1  -3   9  159.69    5.37
   4  -1   9  163.32    5.23
  -1  -3   9  158.90    5.28
  -1  -3   9  156.52    5.59
  -1  -3   9  156.00    5.29
  -3   4   9  155.25    5.27
   4  -1   9  171.56    5.93
  -1  -3   9  160.66    5.71
  -4   2  -9   -0.01    0.16
   2   2  -9    0.07    0.10
   2  -4  -9    0.42    0.40
  -4   2  -9    0.06    0.34
   2  -4  -9    0.29    0.29
  -4   2  -9   -0.33    0.48
   2  -4  -9    0.19    0.59
   2  -4  -9   -0.03    0.23
   2   2  -9    0.34    0.14
  -2  -2   9    0.24    0.08
  -2  -2   9   -0.04    0.11
  -2   4   9    0.09    0.12
  -2  -2   9    0.11    0.30
   4  -2   9    0.13    0.08
   4  -2   9    0.73    1.27
  -2  -2   9    0.10    0.28
  -2   4   9    0.08    0.06
   1  -4  -9  166.26    5.59
  -4   3  -9  181.79    5.89
   1  -4  -9  161.84    5.60
   1  -4  -9  160.32    5.73
   3   1  -9  157.24    5.74
  -4   3  -9  160.26    5.96
   1  -4  -9  159.48    5.88
  -1   4   9  166.37    5.45
  -3  -1   9  163.04    5.54
  -3  -1   9  159.15    5.87
  -3  -1   9  165.46    5.46
   4  -3   9  170.41    7.98
   4  -3   9  158.80    5.48
   4   0  -9  149.99    5.17
   4   0  -9  146.54    5.59
   0  -4  -9  149.13    5.33
  -4   4  -9  146.17    5.12
   0  -4  -9  150.85    5.11
  -4   4  -9  154.94    5.55
   0  -4  -9  158.60    5.02
  -4   4  -9  141.58    5.25
   4  -4   9  141.01    5.07
   4  -4   9  165.14    6.65
  -4   0   9  150.44    5.04
  -4   0   9  152.19    5.68
  -4   0   9  149.92    5.09
   4  -4   9  149.96    5.59
   4  -4   9  152.19    5.65
  -1  -4  -9    0.43    0.32
  -4   5  -9    0.31    0.24
   5  -1  -9    0.34    0.17
   5  -1  -9    0.35    0.25
  -4   5  -9    0.29    0.22
  -4   5  -9    0.14    0.24
  -4   5  -9    0.42    0.15
   5  -1  -9    0.31    0.19
  -5   1   9    0.23    0.21
  -5   1   9    0.27    0.62
  -5   1   9    0.44    0.27
   4  -5   9    0.64    0.19
  -5   1   9    0.28    0.11
  -5   1   9    0.34    0.19
   4  -5   9    0.43    0.18
   1   4   9    0.26    0.15
   1   4   9    0.16    0.20
   4  -5   9    0.22    0.56
   4  -5   9    0.23    0.13
  -5   0  -9   73.28    2.69
   5  -5  -9   69.15    3.15
   0   5  -9   73.91    2.62
   0   5  -9   71.63    2.59
   0   5  -9   70.44    2.54
   5  -5  -9   75.60    2.51
   0   5  -9   69.85    2.56
   5   0   9   71.41    2.52
   0  -5   9   72.59    2.62
   0  -5   9   70.72    2.98
  -5   5   9   74.28    2.58
  -5   5   9   74.42    2.47
  -5   5   9   72.88    2.65
   5   0   9   70.05    2.50
   1   4  -9    0.27    0.13
  -5   1  -9    0.93    0.65
   1   4  -9    0.11    0.15
   1   4  -9    0.34    0.20
   4  -5  -9    0.18    0.14
  -5   1  -9    0.26    0.23
   4  -5  -9   -0.44    0.44
  -4   5   9    0.16    0.20
   5  -1   9    0.33    0.16
  -4   5   9   -0.03    0.18
   5  -1   9    0.26    0.13
   5  -1   9    0.12    0.20
  -4   5   9    0.14    0.22
  -1  -4   9    0.18    0.32
  -4   5   9    0.17    0.08
   2   3  -9  115.51    4.00
  -5   2  -9  115.72    4.17
   2   3  -9  118.97    4.03
  -5   2  -9  123.22    4.62
   2   3  -9  116.08    3.97
   3  -5  -9  115.43    4.55
  -5   2  -9  113.19    4.18
   5  -2   9  116.04    3.92
  -2  -3   9  121.74    3.99
  -3   5   9  113.09    4.10
   5  -2   9  118.51    3.96
  -3   5   9  116.34    3.88
  -2  -3   9  118.02    4.38
   5  -2   9  116.84    4.03
  -2  -3   9  113.05    4.18
  -3   5   9  114.26    4.03
   3   2  -9  114.90    3.98
  -5   3  -9  116.07    4.05
   3   2  -9  113.64    3.99
  -5   3  -9  121.59    4.68
   2  -5  -9  116.84    4.37
  -2   5   9  115.54    4.00
  -3  -2   9  112.74    4.02
  -2   5   9  117.04    4.07
  -3  -2   9  112.12    3.95
   5  -3   9  114.69    3.91
   5  -3   9  114.20    3.94
  -3  -2   9  117.19    4.39
  -2   5   9  112.91    4.06
   5  -3   9  115.07    3.99
  -5   4  -9   -0.15    0.51
  -5   4  -9    0.86    0.28
  -5   4  -9    0.07    0.20
   4   1  -9    0.13    0.19
   4   1  -9    0.33    0.20
   4   1  -9    0.03    0.14
   1  -5  -9    1.33    0.60
  -4  -1   9    0.16    0.09
  -1   5   9    0.43    0.43
   5  -4   9   -0.09    0.18
   5  -4   9    0.14    0.12
  -4  -1   9    0.94    0.52
  -1   5   9    0.29    0.21
  -1   5   9    0.31    0.21
  -4  -1   9    0.22    0.22
   5  -4   9    0.57    0.19
  -4  -1   9    0.15    0.19
   5   0  -9   73.87    2.59
   0  -5  -9   70.41    3.18
  -5   5  -9   73.92    2.77
  -5   5  -9   70.51    3.24
  -5   5  -9   74.74    2.72
   5   0  -9   72.87    2.69
   5   0  -9   70.26    2.68
  -5   0   9   75.51    2.72
  -5   0   9   71.92    2.58
   5  -5   9   71.80    2.60
   5  -5   9   77.34    2.60
   5  -5   9   73.12    2.61
  -5   0   9   80.71    2.61
   5  -5   9   76.11    3.27
   0   5   9   71.70    2.68
   0   5   9   74.12    2.62
  -5   0   9   66.70    3.34
   0   0 -10   -0.07    0.04
   0   0 -10    0.34    0.13
   0   0 -10   -0.02    0.05
   0   0  10   -0.04    0.08
   0   1 -10  199.68    6.58
   0   1 -10  208.43    6.75
   1  -1 -10  205.38    6.62
   0  -1  10  195.81    6.56
   0  -1  10  201.95    6.69
  -1   1  10  196.40    6.56
   1   0  10  183.22    6.54
   0  -1  10  189.73    6.57
   1   0 -10  204.17    6.48
  -1   1 -10  177.31    6.41
  -1   1 -10  180.78    6.39
  -1   1 -10  191.69    6.69
  -1   0  10  206.51    6.44
   1  -1  10  178.97    6.41
  -1   0  10  199.72    6.34
  -1   2 -10   -0.04    0.07
  -1   2 -10   -0.28    0.24
   2  -1 -10   -0.22    0.16
   1  -2  10    0.01    0.05
   1   1  10   -0.03    0.04
  -2   1  10   -0.09    0.09
  -2   1  10   -0.08    0.05
   1   1  10    0.03    0.09
   1  -2  10   -0.09    0.10
  -1   3 -10  103.49    3.54
  -1   3 -10  102.72    3.62
  -1   3 -10  108.12    4.15
   3  -2 -10   99.43    3.84
   3  -2 -10  103.85    3.66
  -2  -1 -10  105.25    3.55
   2   1  10  106.34    3.54
  -3   2  10  102.89    3.53
  -3   2  10  104.02    3.73
   1  -3  10  110.05    3.67
   1  -3  10  102.09    3.67
   1  -3  10  107.41    3.54
   2   1  10  106.13    3.67
  -3   2  10  113.55    3.63
   2  -2 -10  150.82    5.02
   2  -2 -10  143.65    5.44
   0   2 -10  145.93    5.11
   0   2 -10  135.19    4.77
  -2   2  10  144.73    4.72
  -2   2  10  143.11    4.78
   0  -2  10  144.86    4.82
   0  -2  10  143.78    5.01
   0  -2  10  134.76    4.79
   2   0  10  134.32    4.73
   0  -2  10  146.74    4.73
   1  -2 -10   -0.06    0.09
   1   1 -10    0.23    0.20
   1  -2 -10   -0.31    0.21
   1  -2 -10   -0.10    0.09
   1   1 -10   -0.09    0.07
  -2   1 -10   -0.01    0.16
  -1  -1  10   -0.09    0.05
  -1  -1  10    0.01    0.06
  -1  -1  10   -0.07    0.04
  -1  -1  10   -0.01    0.12
   2   0 -10  145.02    4.86
  -2   2 -10  142.36    5.01
   0  -2 -10  145.03    4.80
  -2   2 -10  138.75    5.65
   0  -2 -10  141.34    4.85
   0  -2 -10  143.62    4.80
  -2   0  10  147.27    4.86
   0   2  10  149.75    5.01
   2  -2  10  146.69    5.55
  -2   0  10  150.67    4.96
  -2   0  10  143.05    4.86
   2  -2  10  143.29    5.02
  -2   0  10  143.86    4.79
   0   2  10  143.96    4.86
  -1  -2 -10  101.89    3.55
  -2   3 -10  105.25    3.74
  -1  -2 -10  105.82    3.56
   3  -1 -10  110.80    3.64
  -2   3 -10  109.40    3.60
  -2   3 -10  102.94    3.87
   3  -1 -10  104.92    3.68
   3  -1 -10  105.39    3.98
  -2   3 -10  107.92    4.42
   1   2  10  109.32    3.60
  -3   1  10  101.47    3.65
  -3   1  10  111.23    3.56
   2  -3  10  104.11    4.11
  -3   1  10   97.99    3.80
   2  -3  10  111.26    3.57
   1   2  10  110.05    3.75
   2  -3  10  107.20    3.82
  -2   4 -10    0.40    0.21
  -2   4 -10    0.27    0.12
   4  -2 -10    0.36    0.18
   4  -2 -10    0.11    0.51
  -2   4 -10   -0.35    0.95
  -2  -2 -10    0.42    0.12
   2  -4  10   -0.02    0.53
   2   2  10    0.35    0.38
  -4   2  10    0.47    0.30
   2  -4  10    0.13    0.21
   2  -4  10    0.37    0.10
  -3  -2 -10   38.48    1.73
  -3  -2 -10   38.87    1.45
   5  -3 -10   38.27    1.49
   5  -3 -10   40.22    2.82
  -2   5 -10   38.59    1.45
  -5   3  10   37.31    1.42
  -5   3  10   38.92    1.45
   3   2  10   38.78    1.39
   2  -5  10   36.98    1.42
  -5   3  10   40.23    1.52
  -5   3  10   45.70    2.00
   2  -5  10   37.79    1.90
   3   2  10   38.53    1.41
   2  -5  10   37.83    1.49
   4  -3 -10   64.25    2.61
  -1   4 -10   59.25    2.21
  -1   4 -10   58.95    2.38
   4  -3 -10   66.02    2.24
  -3  -1 -10   61.99    2.15
   4  -3 -10   61.10    2.78
   4  -3 -10   60.42    3.45
  -4   3  10   61.60    2.33
   1  -4  10   59.55    2.44
   1  -4  10   61.19    2.14
  -4   3  10   60.69    2.10
   1  -4  10   59.70    2.25
   1  -4  10   59.18    2.67
   0   3 -10    0.26    0.08
   0   3 -10    0.08    0.42
   3  -3 -10    0.23    0.23
   0   3 -10    0.53    0.14
   3  -3 -10    0.70    0.30
   3  -3 -10    1.36    0.66
  -3   3  10    0.42    0.18
   0  -3  10    0.32    0.08
   0  -3  10    0.11    0.30
   3   0  10    0.07    0.21
   0  -3  10    0.33    0.12
   1   2 -10  108.28    3.64
  -3   1 -10  106.56    3.82
   2  -3 -10  100.14    4.27
   1   2 -10  107.57    4.04
   1   2 -10  109.32    3.68
   2  -3 -10  114.48    3.87
   2  -3 -10  110.19    3.89
   3  -1  10  112.50    5.17
  -1  -2  10  105.78    3.69
  -2   3  10  107.35    3.69
  -1  -2  10  107.59    3.71
  -1  -2  10  109.12    3.93
   3  -1  10  106.21    4.04
  -1  -2  10  111.22    3.63
  -2   3  10  101.82    3.59
   3  -1  10  117.52    3.59
  -3   2 -10  116.14    4.03
   1  -3 -10  110.32    3.76
   2   1 -10  108.33    3.69
   2   1 -10  106.31    4.01
   1  -3 -10  112.39    3.76
   2   1 -10  108.34    3.73
   1  -3 -10  110.72    3.97
  -2  -1  10  109.37    3.91
   3  -2  10  110.90    3.65
  -2  -1  10  111.57    3.72
  -1   3  10  109.67    4.30
  -2  -1  10  103.54    3.72
   3  -2  10  110.04    4.64
  -1   3  10  103.35    3.87
  -2  -1  10  111.01    3.66
   0  -3 -10    0.15    0.22
  -3   3 -10    0.18    0.24
   3   0 -10   -0.20    0.33
   3   0 -10    0.35    0.13
   0  -3 -10    0.29    0.11
   0  -3 -10    0.25    0.09
  -3   3 -10    0.35    0.24
  -3   0  10    0.24    0.07
   0   3  10   -0.12    0.40
   3  -3  10    0.38    0.09
  -3   0  10    0.46    0.16
   3  -3  10    0.23    0.22
   0   3  10    0.55    0.18
   3  -3  10   -0.17    0.68
   3  -3  10    0.03    0.25
   4  -1 -10   63.86    2.22
  -3   4 -10   59.57    2.15
  -1  -3 -10   62.28    2.13
  -1  -3 -10   62.42    2.12
  -3   4 -10   57.93    2.39
  -3   4 -10   59.45    3.75
  -1  -3 -10   57.96    2.25
  -3   4 -10   61.09    2.16
   3  -4  10   60.13    2.12
  -4   1  10   62.00    2.10
  -4   1  10   61.42    2.69
  -4   1  10   60.85    2.35
   3  -4  10   62.26    3.11
   3  -4  10   62.38    2.43
  -3   5 -10   38.49    1.50
   5  -2 -10   37.55    1.59
   5  -2 -10   39.01    1.49
  -2  -3 -10   40.25    1.69
   5  -2 -10   38.42    1.51
  -3   5 -10   38.83    1.51
  -3   5 -10   40.59    1.48
  -2  -3 -10   39.42    1.39
   5  -2 -10   38.49    1.44
  -3   5 -10   39.17    1.47
   2   3  10   38.40    1.41
   3  -5  10   40.00    1.47
  -5   2  10   38.30    1.42
   2   3  10   38.03    1.48
   3  -5  10   35.88    1.42
  -5   2  10   41.27    2.01
  -5   2  10   38.00    1.51
   3  -5  10   40.19    2.09
  -4  -1 -10    0.78    0.72
  -1   5 -10    0.57    0.17
   5  -4 -10    0.23    0.50
  -4  -1 -10    0.44    0.28
   5  -4 -10    0.60    0.17
  -1   5 -10    0.25    0.21
  -5   4  10    0.32    0.10
   1  -5  10    0.30    0.23
   4   1  10    0.59    0.15
   4   1  10    0.49    0.14
  -5   4  10    0.90    0.19
   1  -5  10    0.44    0.39
   1  -5  10    0.37    0.12
  -5   4  10    0.32    0.26
   0   4 -10   45.37    1.71
   4  -4 -10   47.05    2.03
  -4   0 -10   40.87    2.02
  -4   0 -10   45.37    1.77
   0   4 -10   46.37    1.65
   4  -4 -10   47.59    2.16
   0  -4  10   48.10    1.78
   0  -4  10   43.78    2.19
  -4   4  10   48.41    1.78
   0  -4  10   47.40    1.97
  -4   4  10   46.48    1.60
   0  -4  10   46.44    1.63
   1   3 -10   60.51    2.10
   3  -4 -10   62.06    2.42
  -4   1 -10   58.82    2.17
   3  -4 -10   60.77    2.56
  -4   1 -10   59.83    2.34
   1   3 -10   60.52    2.16
  -4   1 -10   51.06    2.55
   3  -4 -10   61.30    3.05
  -3   4  10   62.01    2.05
  -3   4  10   63.65    2.19
  -1  -3  10   60.38    2.52
  -1  -3  10   61.75    2.18
   4  -1  10   63.30    3.92
  -1  -3  10   59.08    2.40
  -1  -3  10   61.02    2.08
  -1  -3  10   59.69    2.11
   4  -1  10   65.19    2.77
   2  -4 -10   -0.15    0.59
   2   2 -10    0.42    0.15
  -4   2 -10    0.16    0.47
  -4   2 -10    0.33    0.36
   2  -4 -10    0.46    0.26
  -4   2 -10    0.36    0.17
   2  -4 -10    0.61    0.33
   2  -4 -10   -0.05    0.39
   2   2 -10    0.40    0.11
   4  -2  10    0.56    1.27
  -2  -2  10    0.83    0.37
  -2  -2  10   -0.09    0.31
  -2  -2  10    0.38    0.09
   4  -2  10    0.24    0.08
  -2  -2  10    0.38    0.14
  -4   3 -10   61.00    2.22
   3   1 -10   57.10    2.21
   1  -4 -10   63.20    2.24
  -4   3 -10   68.45    2.54
   1  -4 -10   57.82    2.51
   1  -4 -10   61.58    2.26
  -4   3 -10   61.08    2.61
  -3  -1  10   61.62    2.39
  -3  -1  10   62.21    2.57
  -3  -1  10   61.78    2.19
   4  -3  10   61.25    2.12
  -3  -1  10   62.49    2.11
   0  -4 -10   48.68    1.81
  -4   4 -10   49.29    1.79
   0  -4 -10   48.24    1.77
   4   0 -10   44.48    1.80
   4  -4  10   46.96    1.72
  -4   0  10   48.55    1.69
  -4   0  10   48.97    1.74
   4  -4  10   51.57    3.28
   4  -4  10   48.01    2.36
  -4   0  10   50.02    2.34
  -4   5 -10    0.58    0.25
  -4   5 -10    0.60    0.16
  -4   5 -10    0.54    0.22
  -4   5 -10    0.36    0.25
   5  -1 -10    0.11    0.24
   5  -1 -10    0.38    0.20
  -1  -4 -10    1.02    0.37
   5  -1 -10    0.41    0.17
   1   4  10    0.60    0.16
   4  -5  10    0.38    0.18
  -5   1  10    0.51    0.26
   4  -5  10    0.28    0.20
   4  -5  10    0.37    0.19
  -5   1  10    0.16    0.10
  -5   1  10    0.42    0.21
  -5   1  10   -0.67    0.60
   4  -5  10    0.35    0.13
  -5   1  10    0.55    0.25
   4  -5  10    0.48    0.62
   1   4  10    0.57    0.21
  -5   1 -10    0.45    0.25
  -5   1 -10    0.59    0.60
   4  -5 -10    0.63    0.16
   1   4 -10    0.38    0.20
   1   4 -10    0.39    0.16
   1   4 -10    0.62    0.15
   4  -5 -10    0.63    0.49
   5  -1  10    0.65    0.22
  -1  -4  10    0.66    0.36
  -4   5  10    0.65    0.24
  -4   5  10    0.58    0.20
   5  -1  10    0.53    0.17
   5  -1  10    0.62    0.15
  -4   5  10    0.23    0.18
  -4   5  10    0.33    0.09
  -5   2 -10   37.64    2.10
   2   3 -10   38.49    1.42
   3  -5 -10   38.26    1.97
   2   3 -10   38.19    1.40
   2   3 -10   37.46    1.45
  -2  -3  10   36.94    1.93
  -3   5  10   36.62    1.52
   5  -2  10   38.02    1.32
   5  -2  10   37.91    1.46
   5  -2  10   37.98    1.38
  -3   5  10   37.94    1.46
  -2  -3  10   37.39    1.40
  -3   5  10   39.53    1.29
   3   2 -10   36.47    1.42
   2  -5 -10   37.86    1.82
   3   2 -10   36.69    1.36
   3   2 -10   38.40    1.43
  -3  -2  10   36.01    1.46
  -3  -2  10   37.32    1.91
  -3  -2  10   36.15    1.40
  -2   5  10   37.16    1.50
  -2   5  10   37.60    1.45
   5  -3  10   37.31    1.37
   5  -3  10   38.52    1.44
  -3  -2  10   36.76    1.52
   5  -3  10   36.83    1.38
  -2   5  10   37.00    1.51
  -3  -2  10   34.54    1.38
   5  -3  10   37.72    1.33
   4   1 -10    0.40    0.16
  -5   4 -10    0.08    0.48
   4   1 -10    0.54    0.20
  -5   4 -10    0.47    0.22
   4   1 -10    0.75    0.22
  -5   4 -10    0.61    0.27
  -4  -1  10    0.19    0.22
  -4  -1  10    0.48    0.20
   5  -4  10    0.53    0.20
  -4  -1  10    0.96    0.57
  -1   5  10    0.40    0.22
   5  -4  10    0.45    0.13
  -4  -1  10    0.37    0.11
   5  -4  10    0.78    0.19
  -1   5  10    0.57    0.24
   0   0 -11   -0.02    0.09
   0   0 -11   -0.02    0.03
   0   0 -11    0.03    0.04
   0   0  11   -0.12    0.06
   0   0  11   -0.07    0.03
   0   1 -11   43.79    1.57
   0   1 -11   44.55    1.73
   0   1 -11   44.14    1.54
   1  -1 -11   46.38    1.53
   1  -1 -11   44.76    1.53
   1  -1 -11   42.88    1.60
   0  -1  11   43.98    1.56
   0  -1  11   50.30    1.55
  -1   1  11   44.57    1.50
   1   0  11   43.61    1.52
  -1   1  11   42.50    1.53
   0  -1  11   46.05    1.92
  -1   1 -11   42.21    1.83
   1   0 -11   42.23    1.50
   1   0 -11   44.16    1.63
  -1   1 -11   43.02    1.53
   1   0 -11   44.22    1.48
  -1   0  11   43.75    1.49
  -1   0  11   46.09    1.61
   1  -1  11   41.28    1.55
   2  -1 -11    0.04    0.18
  -1   2 -11   -0.06    0.07
  -1   2 -11   -0.11    0.28
   1  -2  11   -0.04    0.11
  -2   1  11   -0.08    0.08
   1  -2  11   -0.04    0.04
  -2   1  11   -0.05    0.07
  -2   1  11    0.11    0.05
   1   1  11    0.00    0.04
   1   1  11   -0.03    0.09
  -2  -1 -11   21.22    0.79
  -1   3 -11   19.58    1.34
  -1   3 -11   19.11    1.07
  -1   3 -11   25.68    1.11
   3  -2 -11   19.45    1.09
  -3   2  11   21.02    0.78
   1  -3  11   21.94    0.90
   1  -3  11   17.30    1.29
   2   1  11   21.79    0.78
   1  -3  11   22.31    0.78
  -3   2  11   22.56    0.87
  -3   2  11   21.23    0.97
   2   1  11   22.43    0.92
   0   2 -11   29.57    1.02
   0   2 -11   27.29    1.33
   2  -2 -11   29.80    1.24
   2  -2 -11   28.41    1.18
   2  -2 -11   24.42    1.56
   0  -2  11   27.40    1.03
  -2   2  11   26.90    0.95
   0  -2  11   28.38    1.24
   2   0  11   28.24    0.97
  -2   2  11   27.71    1.00
   0  -2  11   28.00    0.96
   0  -2  11   27.25    1.05
   2   0  11   25.04    1.20
   1   1 -11    0.05    0.06
   1  -2 -11   -0.10    0.22
   1  -2 -11    0.04    0.10
   1  -2 -11   -0.04    0.09
  -2   1 -11   -0.13    0.17
   1   1 -11    0.31    0.21
  -1  -1  11    0.19    0.14
  -1  -1  11   -0.08    0.06
  -1  -1  11    0.10    0.04
   2   0 -11   28.00    1.03
   0  -2 -11   28.68    0.96
  -2   2 -11   27.39    1.16
   0  -2 -11   28.07    0.97
   2   0 -11   24.70    1.31
  -2   0  11   28.42    0.96
  -2   0  11   27.76    1.02
   2  -2  11   29.25    0.96
   0   2  11   27.11    1.03
   2  -2  11   26.98    1.17
  -2   0  11   28.12    1.12
   0   2  11   28.14    1.19
  -1  -2 -11   22.07    0.76
  -1  -2 -11   20.94    0.76
  -2   3 -11   20.79    0.81
  -2   3 -11   19.88    1.56
  -2   3 -11   22.08    1.01
   3  -1 -11   20.55    1.18
   3  -1 -11   21.82    0.85
  -3   1  11   20.03    0.86
   2  -3  11   20.71    1.02
  -3   1  11   21.41    0.94
   2  -3  11   20.40    1.28
   2  -3  11   21.79    0.78
   1   2  11   22.25    0.97
  -3   1  11   21.90    0.77
   1   2  11   21.30    0.80
  -2   4 -11    0.19    0.12
   4  -2 -11    0.25    0.18
  -2   4 -11   -0.15    0.18
   4  -2 -11    0.16    0.56
   2  -4  11    0.03    0.25
  -4   2  11    0.00    0.09
   2  -4  11   -0.37    0.50
   2   2  11    0.26    0.39
  -4   2  11    0.15    0.29
  -2   5 -11    6.69    0.47
  -3  -2 -11    6.78    0.41
   5  -3 -11    6.03    1.36
  -2   5 -11    6.55    0.40
  -3  -2 -11    5.89    0.72
   5  -3 -11    6.57    0.46
   3   2  11    6.85    0.35
   2  -5  11    6.97    0.47
  -5   3  11    7.60    0.97
  -5   3  11    6.34    0.47
  -5   3  11    6.69    0.36
   2  -5  11    6.61    0.87
   3   2  11    6.99    0.36
   2  -5  11    6.16    0.35
  -5   3  11    6.40    0.42
   4  -3 -11   10.22    0.91
  -1   4 -11    8.88    0.47
   4  -3 -11    8.93    0.53
   4  -3 -11    8.66    1.79
   4  -3 -11   10.20    1.05
  -1   4 -11    8.36    0.50
  -3  -1 -11    8.59    0.44
  -4   3  11    9.00    0.39
   1  -4  11    8.67    0.40
  -4   3  11    9.70    0.63
   1  -4  11    9.56    0.57
   1  -4  11    9.59    1.05
   1  -4  11    8.38    0.74
   0   3 -11   -0.08    0.43
   0   3 -11    0.05    0.07
   3  -3 -11    0.11    0.26
   3  -3 -11   -0.33    0.59
   0  -3  11   -0.16    0.31
  -3   3  11    0.17    0.06
   0  -3  11    0.10    0.07
   3   0  11    0.31    0.22
  -3   3  11    0.27    0.15
   0  -3  11    0.13    0.12
  -3   3  11   -0.08    0.15
  -3   1 -11   20.71    0.97
   2  -3 -11   22.89    1.00
   1   2 -11   20.49    1.18
   1   2 -11   21.60    0.85
   1   2 -11   22.58    0.79
   2  -3 -11   19.17    1.44
   2  -3 -11   21.34    1.06
  -1  -2  11   20.43    0.85
  -2   3  11   21.57    0.82
  -2   3  11   20.39    0.73
  -2   3  11   22.30    0.81
  -1  -2  11   21.58    1.07
   3  -1  11   22.14    1.96
  -1  -2  11   20.98    0.83
  -1  -2  11   21.90    0.77
   2   1 -11   21.78    0.89
   1  -3 -11   22.11    0.87
   2   1 -11   21.89    0.81
  -3   2 -11   22.35    1.12
   1  -3 -11   21.44    1.07
   2   1 -11   20.14    1.11
   1  -3 -11   21.86    0.88
  -1   3  11   22.21    1.49
  -1   3  11   21.01    1.01
   3  -2  11   22.05    1.64
   3  -2  11   22.23    1.07
  -2  -1  11   21.16    0.85
  -2  -1  11   21.90    0.78
   3  -2  11   22.37    0.77
  -2  -1  11   21.77    0.84
  -2  -1  11   21.56    1.02
   0  -3 -11    0.11    0.08
  -3   3 -11    0.06    0.25
  -3   3 -11    0.54    0.20
   3   0 -11    0.13    0.37
   0  -3 -11    0.14    0.22
   0  -3 -11    0.05    0.10
   3   0 -11    0.21    0.13
   3  -3  11    0.34    0.29
   3  -3  11    0.11    0.07
  -3   0  11    0.08    0.14
   0   3  11   -0.11    0.16
   3  -3  11   -0.10    0.68
   0   3  11    0.24    0.40
   3  -3  11    0.22    0.24
   4  -1 -11    8.61    0.41
  -3   4 -11    8.67    0.46
  -3   4 -11    8.77    0.46
   4  -1 -11    8.71    0.51
  -3   4 -11    7.66    0.68
  -3   4 -11   10.37    2.39
  -1  -3 -11    9.89    0.59
  -1  -3 -11    8.93    0.41
   3  -4  11    9.06    1.39
  -4   1  11    7.56    1.03
   3  -4  11    9.06    0.70
  -4   1  11    7.91    0.62
  -4   1  11    8.77    0.38
  -2  -3 -11    7.21    0.36
  -3   5 -11    6.44    0.45
   5  -2 -11    6.90    0.47
  -3   5 -11    6.46    0.50
   5  -2 -11    7.12    0.42
   5  -2 -11    7.31    0.47
  -2  -3 -11    7.46    0.68
  -3   5 -11    6.54    0.41
  -3   5 -11    6.06    0.44
   5  -2 -11    7.11    0.60
   2   3  11    6.43    0.45
   3  -5  11    5.90    0.36
   2   3  11    7.00    0.37
   3  -5  11    7.12    1.10
   3  -5  11    6.14    0.43
   3  -5  11    5.90    0.42
  -5   2  11    7.48    0.49
  -5   2  11    8.36    1.05
  -5   2  11    6.92    0.38
  -5   2  11    7.29    0.48
  -1   5 -11    0.34    0.15
  -1   5 -11    0.16    0.13
  -1   5 -11    0.23    0.20
   5  -4 -11    0.35    0.51
   5  -4 -11    0.40    0.15
  -4  -1 -11    0.18    0.26
  -1   5 -11    0.45    0.24
   1  -5  11    0.21    0.22
   4   1  11    0.38    0.15
  -5   4  11    0.56    0.19
  -5   4  11    0.13    0.09
   1  -5  11    0.05    0.11
  -5   4  11    0.01    0.23
   4   1  11    0.30    0.12
   1  -5  11    0.54    0.40
   0   4 -11   10.28    0.55
   4  -4 -11   10.58    0.96
   0   4 -11   10.71    0.48
   4  -4 -11   10.30    0.95
  -4   0 -11   10.49    0.64
  -4   0 -11    8.52    0.87
   0  -4  11   10.67    0.79
   0  -4  11   10.55    0.46
  -4   4  11   11.24    0.75
  -4   4  11    9.99    0.42
   0  -4  11   11.24    0.62
   3  -4 -11   10.00    1.44
  -4   1 -11    8.30    0.49
   1   3 -11    8.67    0.40
  -4   1 -11    7.57    0.62
   3  -4 -11    9.08    0.71
   3  -4 -11    8.69    0.85
   1   3 -11    8.66    0.45
  -4   1 -11    6.11    0.91
  -3   4  11    8.88    0.49
  -1  -3  11    8.34    0.71
  -3   4  11    8.92    0.34
  -1  -3  11    7.72    0.39
  -1  -3  11    8.95    0.49
  -1  -3  11    9.01    0.50
  -1  -3  11    8.65    0.84
   2  -4 -11   -0.12    0.31
   2  -4 -11    0.19    0.42
   2  -4 -11    0.42    0.60
   2  -4 -11   -0.13    0.23
  -4   2 -11    0.03    0.15
   2   2 -11    0.01    0.11
   2   2 -11    0.25    0.14
  -4   2 -11    0.07    0.48
  -4   2 -11    0.27    0.36
   4  -2  11    0.46    1.22
  -2  -2  11   -0.05    0.33
   4  -2  11    0.01    0.07
  -2  -2  11   -0.05    0.30
  -2  -2  11   -0.04    0.07
  -2  -2  11    0.05    0.12
   1  -4 -11    8.01    0.54
   1  -4 -11    7.45    0.84
  -4   3 -11    8.44    0.48
  -4   3 -11    8.55    0.88
   3   1 -11    9.27    0.46
   3   1 -11    9.11    0.55
  -4   3 -11    9.60    0.80
   1  -4 -11    9.43    0.52
  -3  -1  11    9.47    0.47
  -3  -1  11    8.23    0.87
  -3  -1  11    9.12    0.68
   4  -3  11    8.50    0.38
  -4   4 -11   10.12    0.58
   4   0 -11   10.81    0.58
  -4   4 -11    9.98    0.54
   4  -4  11    9.21    0.45
   4  -4  11   11.01    2.12
  -4   0  11   10.76    1.13
  -4   0  11   10.51    0.44
   4  -4  11   11.33    1.30
  -1  -4 -11    0.32    0.19
  -4   5 -11    0.18    0.16
   5  -1 -11    0.41    0.17
  -1  -4 -11    0.47    0.35
   5  -1 -11   -0.15    0.23
  -4   5 -11    0.44    0.24
   5  -1 -11    0.35    0.20
  -4   5 -11    0.23    0.24
   5  -1 -11    0.01    0.17
   4  -5  11    0.40    0.21
   4  -5  11    0.59    0.19
  -5   1  11    0.26    0.12
  -5   1  11    0.26    0.25
   4  -5  11    0.61    0.63
  -5   1  11    0.89    0.64
   1   4  11    0.12    0.21
  -5   1  11    0.34    0.22
   1   4  11    0.35    0.15
   4  -5  11    0.13    0.18
   1   4 -11    0.18    0.15
   4  -5 -11    0.10    0.46
   4  -5 -11    0.18    0.14
  -5   1 -11    0.18    0.62
   1   4 -11    0.27    0.13
   1   4 -11    0.09    0.19
  -5   1 -11    0.40    0.25
  -1  -4  11   -0.05    0.35
  -4   5  11    0.21    0.07
  -4   5  11    0.09    0.17
  -4   5  11    0.30    0.24
   5  -1  11    0.33    0.16
   5  -1  11    0.44    0.13
  -1  -4  11    0.23    0.11
   5  -1  11    0.14    0.18
  -4   5  11    0.16    0.18
   2   3 -11    6.95    0.44
   2   3 -11    6.61    0.40
   3  -5 -11    7.32    1.07
   2   3 -11    6.44    0.40
  -5   2 -11    6.41    0.50
  -2  -3  11    7.21    0.61
  -2  -3  11    6.76    0.34
   5  -2  11    6.89    0.29
  -3   5  11    6.06    0.51
  -2  -3  11    7.11    0.41
  -3   5  11    6.30    0.46
   5  -2  11    7.01    0.38
   5  -2  11    7.00    0.46
   3   2 -11    6.66    0.39
   2  -5 -11    6.77    0.85
  -5   3 -11    6.51    0.48
   3   2 -11    6.45    0.42
  -5   3 -11    5.35    0.90
   3   2 -11    6.84    0.44
   5  -3  11    6.47    0.46
   5  -3  11    6.07    0.32
  -3  -2  11    6.74    0.33
  -3  -2  11    6.66    0.48
  -2   5  11    6.42    0.55
   5  -3  11    6.10    0.40
  -3  -2  11    6.69    0.44
   5  -3  11    6.79    0.39
  -2   5  11    7.00    0.49
  -2   5  11    7.11    0.54
   4   1 -11    0.18    0.20
  -5   4 -11   -0.03    0.19
   4   1 -11    0.37    0.20
  -5   4 -11    0.26    0.25
  -5   4 -11    0.61    0.50
   5  -4  11    0.50    0.20
  -4  -1  11   -0.03    0.19
   5  -4  11    0.07    0.18
  -4  -1  11    0.53    0.12
   5  -4  11    0.24    0.12
  -1   5  11    0.01    0.21
   5  -4  11    0.08    0.19
  -4  -1  11    0.33    0.21
   5  -4  11    0.08    1.28
  -4  -1  11    0.52    0.55
  -1   5  11    0.25    0.21
   0   0 -12   90.38    3.05
   0   0 -12   88.13    2.96
   0   0 -12   89.31    2.94
   0   0  12   88.01    3.00
   0   0  12   85.97    2.94
   0   1 -12    1.34    0.28
   0   1 -12    1.28    0.10
   1  -1 -12    1.17    0.09
   0  -1  12    1.63    0.14
   1   0  12    1.14    0.09
   0  -1  12    1.22    0.11
  -1   1 -12    1.11    0.35
   1   0 -12    1.27    0.22
   1   0 -12    1.27    0.09
  -1   1 -12    1.17    0.13
  -1   0  12    1.26    0.10
  -1   0  12    1.28    0.12
   1  -1  12    1.46    0.35
   1  -1  12    0.92    0.14
  -1   2 -12   60.45    2.12
  -1   2 -12   62.06    2.50
   2  -1 -12   60.32    2.47
   1  -2  12   63.81    2.03
   1   1  12   62.29    2.07
  -2   1  12   54.25    2.16
   1  -2  12   60.79    2.18
  -2   1  12   59.40    2.15
  -2   1  12   58.91    2.03
   1   1  12   62.58    2.02
  -1   3 -12    0.10    0.11
  -2  -1 -12    0.48    0.11
   3  -2 -12    0.23    0.32
  -1   3 -12    0.22    0.49
  -1   3 -12    0.39    0.21
   1  -3  12    0.14    0.07
   2   1  12    0.36    0.10
   1  -3  12    0.24    0.17
   1  -3  12    0.05    0.11
  -3   2  12    0.22    0.20
   2   1  12    0.43    0.20
  -3   2  12    0.25    0.12
  -3   2  12    0.28    0.08
   1  -3  12    0.12    0.32
   2  -2 -12    0.42    0.47
   2  -2 -12    0.20    0.20
   0   2 -12    0.01    0.26
   2   0  12    0.16    0.21
   0  -2  12    0.10    0.05
   0  -2  12    0.16    0.08
  -2   2  12    0.05    0.05
  -2   2  12    0.22    0.08
   2   0  12    0.08    0.05
   0  -2  12    0.31    0.21
   1   1 -12   59.07    2.33
   1  -2 -12   60.83    2.16
   1  -2 -12   61.75    2.18
   1   1 -12   62.92    2.11
  -2   1 -12   58.00    2.30
   1  -2 -12   59.81    2.32
  -1  -1  12   64.17    2.06
  -1  -1  12   62.51    2.12
  -1  -1  12   62.45    2.27
   2   0 -12    0.20    0.23
   0  -2 -12    0.17    0.04
  -2   2 -12    0.29    0.17
  -2   0  12    0.05    0.13
   2  -2  12   -0.09    0.18
   0   2  12    0.12    0.10
   2  -2  12    0.09    0.05
   2  -2  12    0.31    0.13
  -2   0  12    0.09    0.06
   0   2  12    0.30    0.26
  -2   0  12    0.10    0.05
  -2   3 -12    0.03    0.16
   3  -1 -12    0.81    0.35
  -1  -2 -12    0.22    0.06
  -2   3 -12    0.19    0.12
  -2   3 -12    0.77    0.74
   3  -1 -12    0.13    0.15
  -2   3 -12    0.23    0.30
  -1  -2 -12    0.39    0.08
  -3   1  12    0.30    0.08
   2  -3  12    0.28    0.14
   1   2  12    0.03    0.09
   2  -3  12    0.32    0.40
  -3   1  12    0.19    0.17
   2  -3  12    0.22    0.07
   1   2  12    0.36    0.24
  -3   1  12    0.18    0.13
   2  -3  12    0.30    0.25
  -2   4 -12   28.78    1.09
   4  -2 -12   28.44    2.05
   4  -2 -12   24.85    1.29
  -2   4 -12   26.14    2.15
  -2   4 -12   27.27    1.21
  -2   4 -12   29.74    1.10
  -2  -2 -12   32.85    1.10
   4  -2 -12   28.68    1.15
   2  -4  12   28.56    1.05
  -4   2  12   29.69    1.36
  -4   2  12   29.43    1.07
   2  -4  12   29.37    1.74
   5  -3 -12    3.07    0.94
   5  -3 -12    1.67    0.32
  -3  -2 -12    1.51    0.30
  -2   5 -12    1.51    0.24
  -3  -2 -12    2.63    0.63
  -2   5 -12    1.71    0.33
   2  -5  12    1.63    0.20
  -5   3  12    1.54    0.28
   2  -5  12    2.22    0.34
   3   2  12    2.00    0.21
  -5   3  12    2.03    0.33
  -5   3  12    1.72    0.63
  -5   3  12    1.97    0.19
   3   2  12    1.90    0.23
   2  -5  12    1.35    0.55
  -1   4 -12    0.99    0.26
   4  -3 -12    1.14    1.12
   4  -3 -12    1.90    0.62
  -1   4 -12    1.29    0.23
  -3  -1 -12    1.39    0.23
  -1   4 -12    1.26    0.17
   4  -3 -12    1.81    0.53
   1  -4  12    1.17    0.31
   1  -4  12    1.03    0.14
  -4   3  12    0.98    0.14
   1  -4  12    1.61    0.45
   1  -4  12    1.03    0.56
  -4   3  12    1.43    0.38
   3  -3 -12   36.15    1.59
   0   3 -12   36.79    1.28
   3  -3 -12   32.96    2.07
   0   3 -12   34.81    1.33
   0   3 -12   32.74    1.83
  -3   3  12   40.73    1.34
   0  -3  12   35.38    1.27
   0  -3  12   36.02    1.67
  -3   3  12   37.17    1.39
   3   0  12   33.69    1.43
  -3   3  12   36.47    1.24
   0  -3  12   38.35    1.39
  -3   1 -12    0.11    0.23
   2  -3 -12    0.53    0.55
   2  -3 -12    0.28    0.23
   1   2 -12    0.44    0.11
   2  -3 -12    0.12    0.21
   1   2 -12    0.22    0.08
   1   2 -12   -0.14    0.31
  -1  -2  12    0.18    0.13
  -2   3  12    0.20    0.13
  -1  -2  12    0.12    0.06
  -2   3  12    0.24    0.10
  -1  -2  12    0.14    0.24
   3  -1  12   -0.05    0.85
  -1  -2  12    0.18    0.10
  -3   2 -12    0.17    0.30
   1  -3 -12    0.20    0.13
   2   1 -12    0.27    0.09
   2   1 -12    0.03    0.29
   1  -3 -12   -0.02    0.28
   1  -3 -12    0.14    0.17
   2   1 -12    0.26    0.10
   3  -2  12   -0.02    0.61
   3  -2  12    0.32    0.22
  -1   3  12   -0.29    0.23
  -2  -1  12    0.20    0.06
  -2  -1  12    0.48    0.13
  -2  -1  12    0.70    0.24
  -1   3  12    0.98    0.67
  -3   3 -12   35.20    1.31
   0  -3 -12   32.72    1.35
   3   0 -12   37.55    1.32
   3   0 -12   33.15    1.70
   0  -3 -12   36.71    1.26
  -3   3 -12   32.37    1.54
   0   3  12   35.05    1.68
  -3   0  12   35.90    1.24
   3  -3  12   35.87    2.27
   3  -3  12   36.16    1.55
   3  -3  12   39.58    1.65
  -3   4 -12    0.99    0.22
  -1  -3 -12    1.34    0.21
   4  -1 -12    1.02    0.18
   4  -1 -12    1.32    0.28
  -3   4 -12    0.96    0.18
  -3   4 -12    1.23    0.38
  -3   4 -12    2.10    1.60
  -1  -3 -12    1.27    0.18
   3  -4  12    0.68    0.78
  -4   1  12    1.37    0.15
  -4   1  12    1.70    0.70
  -4   1  12    1.45    0.35
   3  -4  12    0.97    0.14
   3  -4  12    0.73    0.36
   5  -2 -12    1.91    0.29
   5  -2 -12    2.39    0.48
  -3   5 -12    1.94    0.27
   5  -2 -12    1.70    0.32
   5  -2 -12    1.74    0.32
  -3   5 -12    2.13    0.39
  -3   5 -12    1.78    0.33
  -3   5 -12    2.43    0.32
   2   3  12    2.97    0.35
   3  -5  12    2.79    0.78
   3  -5  12    2.21    0.31
   2   3  12    1.77    0.23
  -5   2  12    1.60    0.34
   3  -5  12    2.24    0.31
  -5   2  12    1.85    0.68
  -5   2  12    1.85    0.22
   3  -5  12    1.85    0.20
   5  -4 -12   16.33    0.72
  -1   5 -12   16.40    0.72
  -4  -1 -12   14.26    0.82
  -1   5 -12   16.36    0.79
  -1   5 -12   16.67    0.71
   4   1  12   15.70    0.66
  -5   4  12   17.03    0.78
   1  -5  12   17.56    0.80
  -5   4  12   16.48    0.72
   1  -5  12   14.98    1.10
   4   1  12   16.82    0.69
   1  -5  12   16.05    0.68
  -5   4  12   17.11    0.86
  -5   4  12   16.42    0.64
   0   4 -12    1.78    0.20
  -4   0 -12    1.26    0.46
  -4   0 -12    1.54    0.32
   4  -4 -12    1.27    0.49
   0   4 -12    1.51    0.23
   4   0  12    1.72    0.24
   0  -4  12    1.26    0.41
   0  -4  12    1.47    0.16
   0  -4  12    1.65    0.38
  -4   4  12    1.82    0.14
   4   0  12    1.92    0.23
  -4   4  12    1.74    0.33
  -4   1 -12    1.09    0.23
   3  -4 -12    1.00    0.85
   1   3 -12    1.30    0.16
  -4   1 -12    1.51    0.38
   3  -4 -12    0.99    0.47
   1   3 -12    1.45    0.39
   3  -4 -12    1.59    0.38
  -4   1 -12    0.47    0.56
   1   3 -12    1.26    0.23
   4  -1  12    2.58    1.65
  -1  -3  12    1.45    0.26
  -1  -3  12    2.23    0.54
  -1  -3  12    1.25    0.14
  -3   4  12    1.29    0.11
  -3   4  12    1.37    0.25
  -1  -3  12    1.58    0.41
  -3   4  12    1.09    0.26
  -4   2 -12   27.18    1.58
   2   2 -12   27.62    1.13
   2  -4 -12   25.82    1.71
  -4   2 -12   29.91    1.13
   2  -4 -12   28.35    1.51
   2   2 -12   29.28    1.31
  -4   2 -12   32.70    1.51
   2  -4 -12   29.27    1.29
   2  -4 -12   29.10    1.32
  -2   4  12   31.67    1.03
  -2  -2  12   26.73    1.08
   4  -2  12   29.49    1.00
   4  -2  12   33.73    2.77
  -2  -2  12   27.01    1.40
  -2  -2  12   29.73    1.17
   4  -2  12   29.32    1.54
  -2  -2  12   29.08    1.42
  -2   4  12   28.19    1.02
  -4   3 -12    1.84    0.51
  -4   3 -12    1.05    0.19
   1  -4 -12    0.30    0.45
   3   1 -12    1.42    0.22
   1  -4 -12    1.23    0.24
  -3  -1  12    1.31    0.37
  -3  -1  12    1.60    0.51
  -3  -1  12    1.23    0.22
  -3  -1  12    1.18    0.13
   4  -3  12    0.93    0.13
  -4   4 -12    1.80    0.28
   4   0 -12    1.65    0.21
  -4   4 -12    1.76    0.27
   4   0 -12    1.64    0.31
   4   0 -12    1.64    0.29
  -4   4 -12    1.95    0.34
   4  -4  12    2.03    0.29
   4  -4  12    1.86    0.27
  -4   0  12    2.20    0.32
  -4   0  12    1.73    0.61
  -4   0  12    1.76    0.16
   4  -4  12    0.93    1.28
   4  -4  12    1.78    0.18
   5  -1 -12   17.06    0.75
   5  -1 -12   15.93    0.81
  -4   5 -12   16.79    0.82
  -1  -4 -12   17.16    0.98
  -4   5 -12   15.83    0.81
  -4   5 -12   16.83    0.80
   5  -1 -12   16.76    0.86
  -1  -4 -12   16.99    0.72
   1   4  12   16.99    0.72
   4  -5  12   17.71    0.76
  -5   1  12   16.53    0.81
   4  -5  12   15.83    0.70
  -5   1  12   18.64    1.48
   4  -5  12   16.41    0.73
  -5   1  12   16.76    0.80
   4  -5  12   16.54    1.41
  -5   1  12   15.87    0.68
   4  -5  12   17.14    0.76
   1   4  12   16.38    0.80
   1   4 -12   15.34    0.70
  -5   1 -12   15.93    0.84
   1   4 -12   16.12    0.79
   4  -5 -12   15.09    1.22
   1   4 -12   16.03    0.74
   1   4 -12   16.43    0.70
   5  -1  12   16.48    0.68
  -4   5  12   15.76    0.82
  -4   5  12   16.75    0.72
  -1  -4  12   14.85    1.05
   5  -1  12   15.88    0.66
  -1  -4  12   15.89    0.66
  -4   5  12   16.77    0.72
  -4   5  12   15.92    0.58
   5  -1  12   16.28    0.74
  -1  -4  12   16.18    0.79
   2   3 -12    1.66    0.26
  -5   2 -12    1.89    0.35
  -5   2 -12    2.49    0.74
   2   3 -12    1.96    0.31
   2   3 -12    1.96    0.24
   5  -2  12    1.84    0.23
  -3   5  12    1.89    0.31
  -2  -3  12    1.95    0.27
  -2  -3  12    2.53    0.57
  -3   5  12    1.59    0.30
  -2  -3  12    2.01    0.18
   5  -2  12    2.15    0.32
   3   2 -12    1.97    0.26
  -5   3 -12    2.28    0.35
   2  -5 -12    1.86    0.57
  -5   3 -12    2.27    0.66
   3   2 -12    1.56    0.26
   3   2 -12    2.29    0.30
  -3  -2  12    1.74    0.33
   5  -3  12    1.80    0.17
   5  -3  12    1.32    0.27
  -2   5  12    1.90    0.33
   5  -3  12    2.03    0.25
  -3  -2  12    1.80    0.34
  -3  -2  12    2.14    0.18
  -2   5  12    2.07    0.42
   5  -3  12    2.65    0.34
  -3  -2  12    2.74    0.68
  -2   5  12    1.95    0.35
  -5   4 -12   17.11    0.83
   1  -5 -12   16.83    1.19
   4   1 -12   15.15    0.78
  -5   4 -12   16.18    0.80
   4   1 -12   15.95    0.77
  -1   5  12   15.86    0.82
   5  -4  12   16.52    0.75
   5  -4  12   15.67    0.66
  -4  -1  12   15.31    0.82
  -4  -1  12   16.03    0.65
  -4  -1  12   16.41    0.73
  -1   5  12   15.28    0.78
   5  -4  12   16.01    0.73
   5  -4  12   16.35    0.73
  -4  -1  12   17.29    1.34
   0   0 -13   -0.05    0.03
   0   0 -13    0.01    0.12
   0   0 -13   -0.05    0.04
   0   0  13   -0.07    0.07
   0   0  13   -0.05    0.03
   1  -1 -13   84.10    2.86
  -1   0 -13   86.46    2.89
   1  -1 -13   88.08    2.86
   0   1 -13   86.40    2.88
   0   1 -13   88.55    3.12
   0  -1  13   77.53    2.92
   1   0  13   87.25    2.85
   0  -1  13   84.82    2.91
   1   0 -13   87.20    2.89
  -1   1 -13   81.92    2.93
   1   0 -13   87.23    3.06
  -1   0  13   87.14    2.90
  -1   0  13   88.03    2.89
  -1   0  13   89.40    3.09
   1  -1  13   81.57    2.92
  -1   2 -13    0.08    0.08
  -1   2 -13   -0.20    0.30
   1   1  13    0.11    0.10
   1  -2  13    0.09    0.13
  -2   1  13    0.07    0.06
  -1   3 -13   56.27    1.88
  -1   3 -13   53.85    1.96
  -2  -1 -13   53.96    1.87
  -1   3 -13   53.99    2.53
   3  -2 -13   47.21    2.21
   1  -3  13   57.51    2.32
   1  -3  13   55.70    1.86
  -3   2  13   54.33    2.05
   1  -3  13   55.59    1.99
  -3   2  13   52.60    1.86
  -3   2  13   55.49    1.93
   2   1  13   57.61    1.99
   1  -3  13   54.50    2.04
   2  -2 -13   67.26    3.03
   0   2 -13   70.23    2.78
   2   0  13   74.04    3.10
   0  -2  13   69.27    2.65
  -2   2  13   71.46    2.38
   2   0  13   68.29    2.51
   0  -2  13   72.31    2.47
   0  -2  13   70.92    2.36
   0  -2  13   69.80    2.44
   2   0  13   68.63    2.36
  -2   2  13   70.13    2.33
   1  -2 -13   -0.07    0.12
  -2   1 -13   -0.02    0.19
   1  -2 -13    0.17    0.23
   1   1 -13    0.22    0.07
   1  -2 -13    0.14    0.11
   1   1 -13    0.09    0.22
  -1  -1  13   -0.02    0.07
  -1  -1  13    0.02    0.14
   2  -1  13    0.01    0.10
  -1  -1  13    0.04    0.04
  -2   2 -13   70.33    2.57
   2   0 -13   69.39    2.69
   2   0 -13   64.45    2.47
  -2   0  13   71.96    2.38
   0   2  13   68.50    2.46
   2  -2  13   75.66    2.37
  -2   0  13   71.99    2.46
   2  -2  13   70.96    2.58
   0   2  13   69.15    2.64
  -2   0  13   72.54    2.56
   2  -2  13   72.25    2.53
  -2   0  13   73.59    2.45
   3  -1 -13   57.43    1.97
  -2   3 -13   51.56    2.78
  -1  -2 -13   55.11    1.88
   3  -1 -13   51.85    2.33
  -2   3 -13   52.48    2.06
   2  -3  13   56.45    2.19
  -3   1  13   53.29    1.98
   1   2  13   56.71    2.07
   2  -3  13   56.46    2.44
   1   2  13   54.94    1.91
   2  -3  13   57.95    1.90
  -3   1  13   58.68    1.90
  -3   1  13   57.94    2.09
   2  -3  13   55.07    2.06
  -2   4 -13   -0.09    0.13
   4  -2 -13    0.01    0.60
   4  -2 -13    0.11    0.63
  -2   4 -13   -0.04    0.12
  -2   4 -13    0.12    0.21
  -2   4 -13    0.98    1.01
   2  -4  13    0.05    0.27
   2   2  13    0.36    0.40
  -4   2  13    0.26    0.34
   2  -4  13    0.16    0.56
  -4   2  13    0.00    0.09
   2  -4  13    0.18    0.08
   5  -3 -13   30.10    2.06
   5  -3 -13   29.79    1.18
  -3  -2 -13   28.50    1.14
  -2   5 -13   28.77    1.14
  -2   5 -13   28.85    1.20
  -2   5 -13   29.57    1.14
   3   2  13   29.07    1.07
   2  -5  13   27.84    1.09
   2  -5  13   28.81    1.66
   2  -5  13   28.86    1.18
  -5   3  13   29.68    1.13
  -5   3  13   29.02    1.09
  -5   3  13   29.01    1.18
   3   2  13   29.24    1.09
   2  -5  13   28.66    1.30
   4  -3 -13   47.87    2.12
  -1   4 -13   44.89    1.61
   4  -3 -13   45.70    3.02
   4  -3 -13   45.47    1.68
   4  -3 -13   45.88    2.27
  -1   4 -13   45.14    1.60
  -1   4 -13   41.93    1.68
  -4   3  13   43.65    1.55
   1  -4  13   46.08    1.59
   1  -4  13   42.61    2.02
  -4   3  13   46.64    1.79
   1  -4  13   44.16    2.20
   1  -4  13   44.58    1.95
   0   3 -13    0.20    0.12
   3  -3 -13    0.41    0.27
   3  -3 -13    0.47    0.68
   0   3 -13    0.31    0.50
   0   3 -13    0.18    0.08
   3   0  13    0.30    0.24
   0  -3  13    0.11    0.32
   0  -3  13    0.19    0.14
   0  -3  13    0.16    0.06
  -3   3  13    0.14    0.06
   3   0  13   -0.39    0.41
  -3   3  13    0.19    0.14
  -3   3  13    0.09    0.16
   1   2 -13   53.57    2.35
   1   2 -13   58.52    1.93
   2  -3 -13   57.40    2.16
   2  -3 -13   59.23    2.14
  -3   1 -13   54.93    2.16
   2  -3 -13   48.53    2.51
   1   2 -13   56.31    1.97
  -1  -2  13   53.87    2.00
  -1  -2  13   56.14    2.23
  -1  -2  13   57.14    1.91
  -2   3  13   57.53    1.90
  -1  -2  13   56.25    1.98
   1  -3 -13   56.96    2.15
  -3   2 -13   55.63    2.26
   2   1 -13   56.89    1.94
   2   1 -13   57.07    1.99
   2   1 -13   52.20    2.29
   3  -2  13   56.18    2.72
  -2  -1  13   56.36    1.97
   3  -2  13   57.00    1.88
  -1   3  13   51.83    2.64
  -2  -1  13   56.91    2.17
  -2  -1  13   56.51    1.99
   3  -2  13   55.13    2.16
  -2  -1  13   57.23    1.90
   0  -3 -13    0.22    0.19
   3   0 -13   -0.03    0.45
  -3   3 -13    0.25    0.29
  -3   3 -13   -0.09    0.16
   0  -3 -13    0.07    0.08
   3   0 -13    0.01    0.12
   3  -3  13   -0.22    0.62
   3  -3  13    0.17    0.30
   0   3  13   -0.23    0.45
   3  -3  13    0.52    0.31
   3  -3  13    0.10    0.07
  -3   0  13    0.16    0.07
  -1  -3 -13   42.35    1.54
   4  -1 -13   45.91    1.68
   4  -1 -13   44.43    1.57
  -3   4 -13   40.30    1.84
  -3   4 -13   44.31    1.62
  -3   4 -13   41.78    3.46
  -3   4 -13   44.25    1.61
   3  -4  13   44.77    1.84
   3  -4  13   43.69    1.56
  -4   1  13   47.58    2.21
  -4   1  13   43.96    1.81
   3  -4  13   44.99    2.50
  -4   1  13   44.83    1.55
   5  -2 -13   26.75    1.22
  -3   5 -13   30.12    1.18
   5  -2 -13   29.69    1.34
  -2  -3 -13   28.78    1.12
   5  -2 -13   30.31    1.21
  -3   5 -13   29.94    1.18
  -2  -3 -13   30.89    1.39
   5  -2 -13   29.49    1.16
  -3   5 -13   28.96    1.20
  -3   5 -13   29.01    1.21
  -5   2  13   28.87    1.20
  -5   2  13   34.23    1.81
   3  -5  13   30.99    1.86
   2   3  13   29.83    1.12
   2   3  13   29.35    1.19
   3  -5  13   30.55    1.19
   3  -5  13   27.24    1.11
  -5   2  13   29.39    1.13
  -4  -1 -13    0.12    0.27
  -1   5 -13    0.20    0.15
  -4  -1 -13    0.05    0.55
  -1   5 -13    0.20    0.21
   5  -4 -13   -0.03    0.14
  -1   5 -13    0.23    0.13
   5  -4 -13    0.29    0.58
   1  -5  13   -0.13    0.40
  -5   4  13    0.12    0.23
   1  -5  13    0.15    0.11
   1  -5  13    0.35    0.24
  -5   4  13    0.15    0.09
   4   1  13    0.32    0.13
   4   1  13    0.28    0.14
  -5   4  13    0.19    0.16
  -5   4  13    0.37    0.28
   0   4 -13   29.14    1.10
  -4   0 -13   29.13    1.22
   0   4 -13   29.07    1.09
  -4   0 -13   25.64    1.44
   4  -4 -13   28.27    1.60
   4   0  13   29.05    1.10
  -4   4  13   29.81    1.02
  -4   4  13   29.24    1.12
   4   0  13   29.24    1.06
  -4   4  13   28.89    1.21
   0  -4  13   29.02    1.07
   0  -4  13   30.56    1.45
   1   3 -13   42.78    1.66
  -4   1 -13   43.74    1.87
   1   3 -13   45.04    1.61
   3  -4 -13   41.99    2.49
   3  -4 -13   43.37    1.88
   3  -4 -13   46.08    2.05
  -4   1 -13   43.76    1.67
   4  -1  13   54.29    3.64
  -3   4  13   49.78    1.62
  -1  -3  13   45.66    1.70
  -1  -3  13   44.51    1.58
  -3   4  13   45.73    1.63
  -3   4  13   46.55    1.52
  -1  -3  13   45.30    1.95
  -1  -3  13   43.87    2.05
  -4   2 -13    0.13    0.15
  -4   2 -13    0.12    0.42
   2  -4 -13    0.55    0.71
   2  -4 -13    0.57    0.35
   2  -4 -13    0.07    0.25
  -4   2 -13    0.02    0.50
   2   2 -13    0.19    0.11
   2   2 -13   -0.07    0.15
   4  -2  13   -0.05    0.06
  -2  -2  13    0.32    0.36
   4  -2  13    0.86    1.24
  -2  -2  13    0.07    0.16
  -2  -2  13    0.01    0.34
  -2  -2  13    0.03    0.07
   3   1 -13   44.12    1.58
  -4   3 -13   49.83    2.05
   1  -4 -13   43.04    1.65
   1  -4 -13   40.80    1.88
   3   1 -13   43.87    1.63
  -4   3 -13   44.29    1.64
   4  -3  13   49.65    3.22
  -3  -1  13   44.28    1.67
   4  -3  13   45.58    1.55
  -3  -1  13   45.22    1.56
  -3  -1  13   46.06    2.05
  -3  -1  13   43.67    1.86
   4   0 -13   29.10    1.21
   4   0 -13   28.87    1.20
   4   0 -13   29.11    1.09
  -4   4 -13   31.89    1.26
  -4   4 -13   28.88    1.20
  -4   4 -13   29.87    1.17
   4  -4  13   30.02    1.18
   4  -4  13   30.67    1.14
  -4   0  13   31.69    1.74
  -4   0  13   29.36    1.08
  -4   0  13   28.88    1.21
   0   4  13   28.93    1.20
   5  -1 -13    0.06    0.18
  -4   5 -13    0.09    0.19
  -4   5 -13    0.38    0.23
   5  -1 -13    0.16    0.17
   5  -1 -13    0.09    0.25
  -4   5 -13    0.85    0.25
  -1  -4 -13    0.17    0.11
  -1  -4 -13    0.27    0.35
   5  -1 -13    0.32    0.18
   1   4  13    0.35    0.21
  -5   1  13    0.81    0.67
   4  -5  13    0.21    0.65
   1   4  13    0.03    0.14
   4  -5  13    0.16    0.12
  -5   1  13    0.25    0.24
  -5   1  13    0.28    0.12
   4  -5  13    0.09    0.18
   4  -5  13    0.26    0.19
   4  -5  13    0.05    0.18
  -5   1  13    0.28    0.20
  -5   1 -13    0.09    0.59
   1   4 -13    0.02    0.12
   1   4 -13    0.73    0.21
   1   4 -13    0.10    0.23
   1   4 -13    0.10    0.13
  -1  -4  13    0.24    0.31
  -4   5  13    0.20    0.18
  -1  -4  13    0.48    0.25
  -4   5  13    0.14    0.16
  -1  -4  13    0.18    0.11
   5  -1  13    0.26    0.16
   5  -1  13    0.25    0.18
   5  -1  13    0.19    0.13
  -4   5  13    0.25    0.07
  -1  -4  13    0.22    0.37
  -4   5  13    0.42    0.24
   2   3 -13   29.10    1.13
  -5   2 -13   27.89    1.70
   3  -5 -13   29.55    1.79
  -5   2 -13   28.87    1.21
   2   3 -13   29.27    1.12
   2   3 -13   28.39    1.16
  -3   5  13   29.06    1.23
   5  -2  13   28.55    1.16
   5  -2  13   28.67    1.09
  -3   5  13   31.06    1.31
  -2  -3  13   28.52    1.07
  -2  -3  13   27.52    1.48
  -2  -3  13   29.50    1.12
  -3   5  13   29.47    1.16
  -2  -3  13   27.81    1.22
   3   2 -13   28.27    1.14
  -5   3 -13   28.78    1.18
   2  -5 -13   29.09    1.61
   3   2 -13   28.65    1.13
   3   2 -13   28.20    1.08
  -5   3 -13   28.07    1.70
  -2   5  13   27.62    1.25
  -2   5  13   28.40    1.20
  -3  -2  13   27.74    1.55
   5  -3  13   28.03    1.07
  -3  -2  13   26.44    1.17
   5  -3  13   27.66    1.15
  -3  -2  13   27.90    1.04
  -2   5  13   28.92    1.16
   5  -3  13   28.02    1.09
   4   1 -13    0.33    0.19
   1  -5 -13    0.49    0.41
  -5   4 -13   -0.01    0.54
  -5   4 -13    0.43    0.25
   4   1 -13   -0.23    0.16
   4   1 -13    0.23    0.20
  -4  -1  13    0.38    0.38
  -4  -1  13    0.29    0.23
   5  -4  13   -0.03    0.17
   5  -4  13    0.35    0.19
  -1   5  13    0.25    0.25
   5  -4  13    0.06    0.18
  -1   5  13    0.18    0.22
  -4  -1  13    0.12    0.52
  -4  -1  13    0.37    0.11
   0   0 -14   36.29    1.26
   0   0 -14   36.99    1.24
   0   0  14   36.34    1.24
   0   0  14   35.97    1.31
   1  -1 -14    0.15    0.07
  -1   0 -14    0.02    0.11
   0   1 -14    0.01    0.19
   0   1 -14    0.18    0.07
   0  -1  14    0.08    0.07
   0  -1  14    0.21    0.10
   1   0  14    0.12    0.06
   1   0 -14    0.14    0.06
   1   0 -14    0.33    0.17
  -1   1 -14    0.09    0.08
  -1   0  14    0.14    0.07
   1  -1  14    0.43    0.11
  -1   0  14    0.16    0.07
  -1   2 -14   29.11    1.51
  -1   2 -14   29.42    1.11
  -2   1  14   28.74    1.02
   1  -2  14   31.25    1.02
   1  -2  14   29.67    1.19
   3  -2 -14    1.35    0.42
  -1   3 -14    0.80    0.57
  -2  -1 -14    0.70    0.13
   1  -3  14    0.15    0.18
  -3   2  14    0.54    0.10
   2   1  14    0.14    0.19
  -3   2  14    0.38    0.22
   1  -3  14    0.03    0.35
   0   2 -14    0.12    0.31
   2  -2 -14    0.20    0.52
   2  -2 -14    0.31    0.22
   2   0  14    0.91    0.09
   2   0  14    0.67    0.54
   1  -2 -14   28.86    1.11
   1   1 -14   27.83    1.31
  -2   1 -14   26.14    1.24
   1  -2 -14   27.97    1.25
   1  -2 -14   29.62    1.13
   1   1 -14   30.98    1.06
  -1  -1  14   31.28    1.01
   2  -1  14   28.31    1.11
  -1  -1  14   30.45    1.09
  -1  -1  14   31.36    1.24
   2   0 -14    0.29    0.10
   0  -2 -14    0.04    0.05
  -2   2 -14    0.15    0.16
   2   0 -14   -0.21    0.24
  -2   0  14    0.00    0.13
  -2   0  14    0.08    0.05
   2  -2  14   -0.05    0.10
   0   2  14    0.21    0.35
   2  -2  14    0.12    0.22
  -2   0  14   -0.03    0.08
   3  -1 -14    0.65    0.41
   3  -1 -14    0.11    0.17
  -2   3 -14    0.23    0.18
  -2   3 -14    0.44    0.14
  -3   1  14    0.25    0.07
   2  -3  14    0.01    0.29
   1   2  14    0.18    0.26
   2  -3  14    0.35    0.41
   2  -3  14    0.18    0.15
   1   2  14    0.12    0.10
  -3   1  14   -0.06    0.13
   2  -3  14    0.12    0.06
  -2   4 -14   21.13    0.82
  -2   4 -14   18.36    2.08
  -2   4 -14   19.89    0.81
   4  -2 -14   21.39    1.69
  -2   4 -14   18.87    0.94
  -4   2  14   20.67    1.09
   2  -4  14   19.79    1.64
  -4   2  14   19.65    0.78
   2  -4  14   19.63    0.98
   2  -4  14   20.05    0.77
   2  -4  14   22.84    1.53
  -2   5 -14    0.64    0.19
  -3  -2 -14    1.55    0.44
   5  -3 -14    0.70    0.24
   5  -3 -14    0.13    0.71
  -2   5 -14    0.56    0.21
  -3  -2 -14    0.89    0.22
  -2   5 -14    0.60    0.18
   2  -5  14    0.80    0.16
   3   2  14    0.63    0.15
   2  -5  14    0.84    0.61
  -5   3  14    0.55    0.23
   2  -5  14    0.47    0.22
  -5   3  14    0.65    0.19
   3   2  14    0.50    0.15
  -5   3  14    0.45    0.12
  -1   4 -14    0.23    0.12
  -1   4 -14    0.25    0.15
  -1   4 -14    0.47    0.20
   4  -3 -14    0.93    0.58
   4  -3 -14    0.38    0.47
   4  -3 -14    0.07    1.14
  -4   3  14    0.80    0.28
   1  -4  14    1.28    0.46
  -4   3  14    0.32    0.08
   1  -4  14    0.41    0.10
   1  -4  14    0.80    0.58
   0   3 -14   22.36    0.90
   3  -3 -14   24.79    1.56
   0   3 -14   22.26    0.84
   3  -3 -14   22.68    1.14
   0   3 -14   21.19    1.60
   3  -3 -14   22.84    1.68
   0  -3  14   22.98    0.95
  -3   3  14   23.15    0.92
  -3   3  14   22.59    0.79
  -3   3  14   24.93    0.88
   3   0  14   21.66    0.99
   0  -3  14   21.62    1.25
   0  -3  14   22.58    0.83
   1   2 -14    0.10    0.08
   2  -3 -14    0.01    0.22
   1   2 -14    0.23    0.10
   2  -3 -14    0.48    0.60
  -3   1 -14    0.01    0.30
   1   2 -14   -0.07    0.36
  -1  -2  14    0.23    0.11
  -1  -2  14    0.03    0.13
  -1  -2  14    0.03    0.25
   2   1 -14    0.09    0.11
   2   1 -14    0.32    0.37
  -3   2 -14    0.00    0.30
   1  -3 -14   -0.02    0.26
   2   1 -14    0.16    0.09
   1  -3 -14    0.12    0.12
   3  -2  14    0.11    0.20
   3  -2  14    0.64    0.58
  -2  -1  14    0.27    0.23
  -2  -1  14    0.03    0.09
   3  -2  14    0.35    0.07
  -2  -1  14    0.06    0.12
  -2  -1  14    0.13    0.06
  -3   3 -14   21.75    0.90
   0  -3 -14   22.23    0.81
   3   0 -14   22.87    0.89
  -3   3 -14   21.62    1.13
   3   0 -14   21.04    1.52
   3  -3  14   23.05    1.76
   0   3  14   23.21    1.37
  -3   0  14   22.47    0.81
   3  -3  14   22.73    0.81
   3  -3  14   23.73    1.13
   4  -1 -14    0.28    0.12
  -3   4 -14    0.66    0.19
  -3   4 -14    0.42    0.35
   4  -1 -14    0.48    0.22
  -3   4 -14    0.40    0.14
   3  -4  14    0.30    0.76
  -4   1  14    0.64    0.64
  -4   1  14    0.54    0.11
   3  -4  14    0.13    0.27
   3  -4  14    0.36    0.10
  -4   1  14    0.63    0.32
  -3   5 -14    0.53    0.22
  -2  -3 -14    1.25    0.40
   5  -2 -14    0.41    0.32
  -3   5 -14    0.44    0.24
  -3   5 -14    0.68    0.25
   5  -2 -14    0.49    0.23
   5  -2 -14    0.83    0.21
   3  -5  14    0.51    0.21
   3  -5  14    0.55    0.67
  -5   2  14    0.69    0.23
   2   3  14    1.04    0.24
  -5   2  14    2.28    0.71
   2   3  14    0.81    0.17
  -5   2  14    0.52    0.15
   3  -5  14    0.68    0.15
  -1   5 -14   14.15    0.72
  -1   5 -14   13.99    0.63
  -1   5 -14   13.29    0.65
  -4  -1 -14   11.45    0.76
  -4  -1 -14   13.87    1.03
   5  -4 -14   13.51    0.63
   5  -4 -14   13.23    1.27
   4   1  14   14.33    0.61
  -5   4  14   14.36    0.64
   1  -5  14   14.77    1.08
   4   1  14   14.06    0.58
  -5   4  14   13.85    0.80
  -5   4  14   14.22    0.69
   1  -5  14   13.03    0.59
   1  -5  14   14.54    0.75
  -5   4  14   13.90    0.55
   4  -4 -14    0.98    0.52
  -4   0 -14    0.88    0.44
   0   4 -14    0.27    0.21
   0   4 -14    0.56    0.14
  -4   0 -14    0.28    0.25
   0   4 -14    0.38    0.24
   0  -4  14    0.44    0.11
  -4   4  14    0.41    0.23
   0  -4  14    0.56    0.29
  -4   4  14    0.78    0.10
   0  -4  14    0.69    0.37
  -4   4  14    0.53    0.18
   4   0  14    0.20    0.15
   4   0  14    0.32    0.12
   3  -4 -14    0.55    0.44
  -4   1 -14    0.27    0.19
   1   3 -14    0.39    0.12
   1   3 -14    0.39    0.17
   3  -4 -14   -0.06    0.31
  -4   1 -14    0.35    0.36
   3  -4 -14   -0.35    0.83
   1   3 -14    0.55    0.14
  -1  -3  14    0.40    0.36
  -1  -3  14    0.31    0.09
  -1  -3  14    0.54    0.45
   2  -4 -14   21.63    1.12
   2  -4 -14   18.88    0.99
  -4   2 -14   20.96    1.25
   2   2 -14   20.89    0.88
  -4   2 -14   20.52    0.85
  -4   2 -14   19.63    1.33
   2   2 -14   20.43    0.80
   2   2 -14   21.56    0.81
   4  -2  14   25.59    2.65
  -2  -2  14   20.90    1.16
  -2  -2  14   20.10    1.16
  -2  -2  14   20.35    0.77
  -2  -2  14   21.01    0.99
   1  -4 -14    0.49    0.19
   3   1 -14    0.38    0.21
  -4   3 -14    0.71    0.49
  -4   3 -14    0.32    0.15
   3   1 -14    0.35    0.15
   3   1 -14    0.35    0.12
  -3  -1  14    0.33    0.19
  -3  -1  14    0.39    0.34
  -3  -1  14    0.02    0.46
   4  -3  14    0.26    0.08
   4  -3  14    1.80    1.24
  -3  -1  14    0.41    0.09
  -4   4 -14    0.68    0.23
  -4   4 -14    0.39    0.17
   4   0 -14    0.17    0.21
   4   0 -14    0.43    0.13
   4   0 -14    0.50    0.19
   0   4  14    0.70    0.23
   4  -4  14    0.42    0.20
   4  -4  14    0.53    0.11
  -4   0  14    0.60    0.59
  -4   0  14    0.45    0.10
  -4   0  14    0.49    0.20
   4  -4  14    0.55    0.17
   5  -1 -14   13.97    0.71
   5  -1 -14   13.46    0.80
  -1  -4 -14   15.24    0.93
   5  -1 -14   14.10    0.68
  -4   5 -14   15.01    0.75
  -4   5 -14   14.13    0.73
   5  -1 -14   13.74    0.73
  -4   5 -14   14.48    0.72
  -1  -4 -14   14.73    0.58
   4  -5  14   14.54    0.69
   4  -5  14   14.79    1.41
  -5   1  14   15.53    1.41
  -5   1  14   13.53    0.72
   4  -5  14   13.58    0.61
  -5   1  14   13.53    0.61
   1   4  14   14.24    0.64
  -5   1  14   14.58    0.71
   4  -5  14   14.45    0.68
   1   4  14   14.83    0.74
   4  -5  14   13.72    0.66
  -5   1 -14   12.28    0.95
   1   4 -14   14.34    0.64
   1   4 -14   14.27    0.63
   4  -5 -14   13.04    1.23
   1   4 -14   14.16    0.72
  -1  -4  14   13.88    0.59
   5  -1  14   12.88    0.59
   5  -1  14   14.19    0.61
   5  -1  14   13.43    0.66
  -4   5  14   14.08    0.64
  -1  -4  14   14.44    0.74
  -4   5  14   12.75    0.74
  -1  -4  14   15.26    0.81
  -4   5  14   13.92    0.65
  -5   2 -14    0.54    0.24
   3  -5 -14    0.78    0.55
   2   3 -14    0.72    0.21
   2   3 -14    0.66    0.17
  -5   2 -14    0.81    0.61
   2   3 -14    0.46    0.16
  -2  -3  14    0.40    0.19
  -2  -3  14    0.51    0.11
   5  -2  14    0.84    0.21
  -3   5  14    0.48    0.18
  -3   5  14    0.70    0.25
  -2  -3  14    1.00    0.44
   5  -2  14    0.58    0.15
  -2  -3  14    0.86    0.22
  -5   3 -14    0.70    0.54
   2  -5 -14    1.48    0.64
   3   2 -14    0.25    0.16
  -5   3 -14    0.61    0.22
   3   2 -14    0.52    0.20
   3   2 -14    0.17    0.16
  -3  -2  14    0.53    0.20
   5  -3  14    0.48    0.20
  -3  -2  14    0.90    0.26
  -2   5  14   -0.07    0.25
  -3  -2  14    0.44    0.48
  -2   5  14    0.60    0.23
   5  -3  14    0.78    0.19
   5  -3  14    0.53    0.10
   5  -3  14    0.70    0.18
  -3  -2  14    0.68    0.14
   1  -5 -14   14.66    1.03
  -5   4 -14   13.49    0.71
  -5   4 -14   13.67    0.75
   4   1 -14   13.84    0.71
  -5   4 -14   12.80    1.18
   4   1 -14   12.94    0.71
   4   1 -14   13.35    0.62
   5  -4  14   13.69    0.57
   5  -4  14   13.87    0.64
  -4  -1  14   14.11    0.77
  -1   5  14   12.76    0.71
  -4  -1  14   14.12    0.59
  -4  -1  14   15.09    1.28
   5  -4  14   14.54    0.69
  -1   5  14   13.42    0.77
   5  -4  14   13.81    0.65
   0   0 -15    0.05    0.03
   0   0  15    0.11    0.09
   0   0  15    0.02    0.03
   1  -1 -15   22.12    0.76
  -1   0 -15   20.04    0.82
   0   1 -15   21.68    0.79
   0  -1  15   21.90    0.83
   1   0  15   21.52    0.86
   0  -1  15   21.45    0.73
   0  -1  15   20.84    0.79
   1   0  15   21.69    0.74
   1   0 -15   22.07    0.78
  -1   1 -15   20.68    0.81
  -1   0  15   21.26    0.78
  -1   0  15   21.85    0.79
  -1   2 -15   -0.29    0.36
  -1   2 -15    0.03    0.09
  -2   1  15    0.10    0.06
   1  -2  15    0.15    0.18
   1  -2  15   -0.03    0.08
   1  -2  15    0.03    0.04
  -1   3 -15   17.25    1.35
  -1   3 -15   15.98    0.71
   1  -3  15   16.34    0.74
  -3   2  15   16.07    0.60
   2   1  15   15.89    0.60
   1  -3  15   16.55    0.61
   1  -3  15   15.35    1.05
  -3   2  15   16.81    0.68
   1  -3  15   15.36    0.79
  -3   2  15   18.09    0.81
   2   1  15   16.13    0.73
   0   2 -15   16.08    0.74
   0   2 -15   16.47    1.06
   2  -2 -15   16.81    1.29
   0   2 -15   16.98    0.67
   2  -2 -15   17.19    0.88
  -2   2  15   16.40    0.61
   0  -2  15   17.01    0.72
   2   0  15   16.20    0.68
   0  -2  15   16.71    0.91
   0  -2  15   17.58    0.61
   2   0  15   16.64    0.60
   1  -2 -15    0.16    0.12
   1  -2 -15    0.17    0.12
   1   1 -15   -0.01    0.25
   1  -2 -15    0.17    0.15
  -2   1 -15    0.42    0.22
  -1  -1  15   -0.02    0.09
   2  -1  15    0.14    0.11
  -1  -1  15    0.07    0.04
   2   0 -15   16.59    0.94
   2   0 -15   16.92    0.68
  -2   2 -15   16.87    0.79
  -2   0  15   17.80    0.69
  -2   0  15   17.33    0.80
   2  -2  15   17.13    0.59
  -2   0  15   17.30    0.61
   2  -2  15   16.76    0.76
  -2   3 -15   16.72    0.66
  -2   3 -15   16.32    0.77
   3  -1 -15   16.22    0.69
   2  -3  15   16.62    1.16
   2  -3  15   16.78    0.61
  -3   1  15   16.30    0.61
   1   2  15   16.43    0.81
   2  -3  15   17.47    0.95
  -3   1  15   16.20    0.79
   1   2  15   15.70    0.62
  -3   1  15   15.05    0.69
   4  -2 -15   -0.30    0.69
  -2   4 -15    0.06    0.13
  -2   4 -15    0.13    0.22
  -2   4 -15    1.40    1.13
  -4   2  15    0.09    0.36
  -4   2  15    0.17    0.10
   2   2  15    0.50    0.41
   2  -4  15    0.15    0.64
   2  -4  15   -0.70    0.53
   2  -4  15   -0.04    0.23
   2  -4  15    0.15    0.08
  -2   5 -15   10.51    0.54
  -3  -2 -15    9.65    0.68
  -3  -2 -15   11.26    0.86
   5  -3 -15   10.04    1.75
  -2   5 -15   10.69    0.60
  -2   5 -15   10.69    0.55
   5  -3 -15   10.82    0.59
   3   2  15   10.34    0.47
   2  -5  15   10.48    0.60
   3   2  15   10.58    0.50
  -5   3  15   10.76    0.58
  -5   3  15    9.97    0.53
   2  -5  15    9.98    0.47
  -5   3  15    9.81    0.46
  -1   4 -15   10.28    0.47
  -1   4 -15   10.30    0.49
   4  -3 -15   10.34    1.13
   4  -3 -15   10.40    1.01
  -3  -1 -15   11.40    0.98
   4  -3 -15   11.47    2.03
  -4   3  15    9.68    0.40
  -4   3  15    9.68    0.65
   1  -4  15   10.48    0.89
   1  -4  15    9.36    0.43
   1  -4  15    9.72    1.10
   0   3 -15    0.63    0.58
   3  -3 -15    0.09    0.65
   0   3 -15    0.08    0.08
   0   3 -15    0.15    0.11
   0   3 -15    0.12    0.12
   3  -3 -15    0.26    0.26
   3  -3 -15    0.71    0.49
   3   0  15    0.05    0.23
  -3   3  15    0.33    0.07
  -3   3  15    0.37    0.17
  -3   3  15    0.25    0.13
   0  -3  15   -0.04    0.14
   0  -3  15    0.57    0.35
   3   0  15    0.37    0.35
   3   0  15    1.19    1.25
   2  -3 -15   18.01    0.84
   2  -3 -15   16.06    1.29
   1   2 -15   16.14    0.63
   2  -3 -15   16.96    0.85
   1   2 -15   16.25    0.68
   1   2 -15   16.66    1.13
  -1  -2  15   15.27    0.92
  -1  -2  15   16.36    0.61
  -1  -2  15   16.43    0.69
  -3   2 -15   15.53    0.98
   2   1 -15   16.64    0.63
   2   1 -15   16.54    0.68
   1  -3 -15   14.71    0.78
   1  -3 -15   16.23    0.65
   2   1 -15   15.14    1.04
  -2  -1  15   16.06    0.59
   3  -2  15   16.44    0.54
  -2  -1  15   15.97    0.86
   3  -2  15   14.99    0.80
   3  -2  15   15.83    1.33
  -2  -1  15   15.40    0.66
   0  -3 -15    0.22    0.14
  -3   3 -15    0.41    0.31
  -3   3 -15    0.27    0.12
   3   0 -15    0.21    0.14
   3   0 -15    1.03    0.67
   0  -3 -15    0.17    0.08
   3   0 -15    0.02    0.09
   3  -3  15   -0.14    0.30
   0   3  15    0.88    0.64
   3  -3  15   -0.56    1.21
   3  -3  15    0.08    0.06
  -3   4 -15   10.05    0.50
   4  -1 -15    9.74    0.47
  -3   4 -15   10.10    0.52
  -4   1  15    9.23    0.43
   3  -4  15    9.92    0.43
   3  -4  15   11.43    1.44
   3  -4  15   11.00    1.06
  -4   1  15   10.08    0.73
  -4   1  15   10.37    1.20
   5  -2 -15   10.20    0.60
  -3   5 -15   10.75    0.62
  -2  -3 -15   10.82    0.88
   5  -2 -15   10.56    0.56
   5  -2 -15    9.32    0.73
  -3   5 -15   10.22    0.58
  -3   5 -15   10.53    0.57
   3  -5  15   11.16    1.19
  -5   2  15   10.43    0.51
   3  -5  15    9.79    0.55
   3  -5  15   10.56    1.31
   3  -5  15   10.39    0.59
  -5   2  15   10.33    0.56
   3  -5  15    9.34    0.47
  -5   2  15   10.62    0.56
   3  -5  15   10.88    0.54
  -5   2  15   11.24    0.59
  -5   2  15   10.89    1.24
   2   3  15   10.47    0.59
   2   3  15   10.39    0.50
   5  -4 -15    0.39    0.51
  -4  -1 -15    0.27    0.45
   5  -4 -15    0.20    0.15
  -1   5 -15    0.31    0.22
  -4  -1 -15    0.19    0.29
  -1   5 -15    0.07    0.15
   4   1  15    0.42    0.16
   1  -5  15    0.33    0.26
  -5   4  15    0.36    0.17
  -5   4  15    0.18    0.09
   1  -5  15    0.24    0.44
  -5   4  15    0.83    0.30
  -5   4  15    0.09    0.22
   4   1  15    0.05    0.12
   0   4 -15   13.12    0.57
  -4   0 -15   12.55    0.70
   4  -4 -15   13.36    1.10
   0   4 -15   13.08    0.67
   0   4 -15   13.17    0.59
  -4   0 -15   11.16    0.96
   0   4 -15   12.20    0.57
   0  -4  15   12.45    0.71
   0  -4  15   12.80    0.54
   4   0  15   12.42    0.57
  -4   4  15   12.41    0.59
   4   0  15   13.00    0.54
   0  -4  15   14.89    0.98
  -4   4  15   12.74    0.73
  -4   4  15   12.74    0.47
   1   3 -15    9.90    0.45
   3  -4 -15    9.55    0.93
   1   3 -15    9.72    0.57
   1   3 -15   10.30    0.47
   3  -4 -15   12.75    1.17
  -4   1 -15    9.87    0.81
  -4   1 -15   10.03    0.55
  -4   1 -15    6.95    1.00
  -1  -3  15   10.55    0.80
  -1  -3  15    9.48    0.42
  -1  -3  15   10.35    0.96
   2   2 -15    0.06    0.16
   2  -4 -15    0.07    0.26
   2   2 -15   -0.08    0.11
  -4   2 -15   -0.13    0.51
  -4   2 -15    0.02    0.45
  -4   2 -15    0.06    0.15
   2   2 -15    0.11    0.10
  -2  -2  15    0.08    0.37
  -2  -2  15   -0.02    0.07
  -2  -2  15    0.06    0.20
  -2  -2  15    0.26    0.39
   4  -2  15    0.54    1.14
   3   1 -15   11.45    0.82
   1  -4 -15    8.12    0.75
   3   1 -15    9.68    0.44
  -4   3 -15    9.61    0.49
  -4   3 -15    9.92    0.93
   1  -4 -15    9.19    0.50
   3   1 -15    9.63    0.49
  -3  -1  15    9.90    0.77
  -3  -1  15   10.04    0.99
  -3  -1  15    9.39    0.41
   4  -3  15    9.64    0.39
  -4   4 -15   13.28    0.79
   4   0 -15   12.71    0.67
   4   0 -15   12.76    0.56
   4   0 -15   13.13    0.67
  -4   4 -15   13.12    0.67
   0   4  15   13.33    0.69
   4  -4  15   12.18    0.52
  -4   0  15   13.32    0.70
   4  -4  15   12.76    0.59
  -4   0  15   11.51    0.66
  -4   0  15   12.78    0.53
  -4   0  15   15.66    1.28
   4  -4  15   12.00    0.64
   5  -1 -15    0.12    0.26
  -4   5 -15   -0.13    0.21
   5  -1 -15    0.34    0.18
  -4   5 -15    0.33    0.22
   5  -1 -15    0.16    0.21
  -4   5 -15    0.25    0.22
  -1  -4 -15    0.31    0.12
   5  -1 -15    0.01    0.18
  -1  -4 -15    0.11    0.38
   1   4  15    0.46    0.25
  -5   1  15    0.20    0.70
   4  -5  15    0.11    0.18
   4  -5  15    0.35    0.13
  -5   1  15    0.24    0.19
   4  -5  15    0.24    0.19
   1   4  15    0.36    0.15
   4  -5  15   -0.19    0.19
  -5   1  15    0.20    0.12
  -5   1  15    0.24    0.23
  -5   1 -15   -0.02    0.24
   1   4 -15    0.28    0.15
   1   4 -15    0.31    0.24
   1   4 -15    0.35    0.21
  -5   1 -15    0.28    0.76
   4  -5 -15    0.12    0.50
   5  -1  15    0.23    0.13
  -4   5  15    0.04    0.22
  -1  -4  15    0.11    0.27
  -1  -4  15   -0.04    0.49
   5  -1  15    0.17    0.16
  -1  -4  15    0.46    0.19
  -4   5  15    0.24    0.17
  -4   5  15    0.43    0.19
  -5   2 -15   10.06    0.61
   2   3 -15    9.67    0.51
   2   3 -15   10.26    0.56
   2   3 -15   10.35    0.52
  -5   2 -15   10.54    1.12
   3  -5 -15   11.13    1.07
  -3   5  15    9.25    0.62
   5  -2  15    9.95    0.48
  -2  -3  15   10.48    0.92
  -2  -3  15   10.00    0.45
  -3   5  15   10.44    0.55
   5  -2  15   10.82    0.56
  -2  -3  15   10.18    0.58
  -5   3 -15    9.80    0.65
   3   2 -15    9.92    0.51
   3   2 -15   10.06    0.54
  -5   3 -15    9.56    1.10
   3   2 -15   10.47    0.57
  -3  -2  15   10.06    0.60
  -3  -2  15   10.06    0.45
   5  -3  15    9.55    0.57
  -2   5  15   10.73    0.65
   5  -3  15    9.76    0.49
  -3  -2  15   11.36    0.99
  -2   5  15   10.04    0.58
   5  -3  15    9.49    0.51
   5  -3  15   10.01    0.38
   4   1 -15    0.33    0.22
  -5   4 -15    0.86    0.27
   1  -5 -15   -0.02    0.47
   4   1 -15    0.22    0.16
  -5   4 -15   -0.10    0.18
  -5   4 -15    0.20    0.55
  -1   5  15   -0.02    0.24
  -1   5  15    0.13    0.32
   5  -4  15    0.31    0.18
  -1   5  15    0.09    0.22
   5  -4  15    0.20    0.18
   5  -4  15    0.54    0.22
   5  -4  15    0.24    0.11
  -4  -1  15    0.18    0.22
   0   0 -16    3.68    0.17
   0   0  16    3.72    0.26
   0   0  16    3.52    0.17
   1  -1 -16   83.24    2.72
   0   1 -16   81.23    2.74
  -1   0 -16   76.68    2.76
   1   0  16   77.10    2.78
   1   0  16   83.08    2.68
   0  -1  16   82.73    2.75
   0  -1  16   80.60    2.79
   0  -1  16   81.67    2.68
  -1   1 -16   80.15    2.90
  -1   1 -16   94.94    3.12
   1   0 -16   83.33    2.87
  -1   0  16   84.60    2.88
   1  -1  16   83.30    2.89
  -1   2 -16    0.80    0.23
   1  -2  16    1.35    0.38
  -2   1  16    0.74    0.19
   1  -2  16    0.72    0.24
  -2   1  16    0.51    0.13
   1  -2  16    0.77    0.07
   1  -2  16    0.91    0.16
  -2   1  16    0.57    0.09
  -1   3 -16   42.87    2.25
  -1   3 -16   43.06    1.61
   1  -3  16   42.92    1.71
   2   1  16   43.13    1.48
   1  -3  16   45.63    1.99
   1  -3  16   43.42    1.63
  -3   2  16   46.07    1.68
   2   1  16   43.82    1.60
  -3   2  16   44.08    1.56
   2   1  16   40.54    1.65
   1  -3  16   42.74    1.50
  -3   2  16   44.55    1.49
   2  -2 -16   52.45    2.04
   2  -2 -16   63.02    2.37
   0   2 -16   58.93    2.05
   0   2 -16   58.98    2.48
   2   0  16   57.56    2.04
   2   0  16   58.50    1.97
  -2   2  16   58.78    1.98
   0  -2  16   59.41    2.31
   0  -2  16   58.86    2.11
   0  -2  16   59.85    1.98
  -2   2  16   59.15    2.00
  -2   1 -16    0.74    0.25
   1  -2 -16    0.88    0.23
   1   1 -16    0.66    0.38
   1   1 -16    0.71    0.11
   1  -2 -16    0.81    0.20
   2  -1  16    0.92    0.17
  -1  -1  16    0.72    0.16
  -1  -1  16    0.91    0.24
  -1  -1  16    0.75    0.08
   2  -1  16    0.03    0.55
   2   0 -16   54.44    2.28
   0  -2 -16   60.04    1.94
   2   0 -16   59.21    2.02
   2  -2  16   53.66    2.12
   2  -2  16   48.36    2.17
  -2   0  16   60.95    2.03
  -2   0  16   60.70    2.15
   2  -2  16   59.54    1.91
  -2   0  16   59.63    1.94
  -2   3 -16   42.18    1.69
   3  -1 -16   43.77    1.76
  -2   3 -16   51.10    1.66
  -3   1  16   43.68    1.73
   2  -3  16   47.80    1.91
   2  -3  16   43.01    1.52
   1   2  16   45.62    1.70
  -3   1  16   42.03    1.61
  -3   1  16   42.74    1.54
   2  -3  16   43.59    2.08
  -2   4 -16    0.89    0.20
   4  -2 -16    1.43    0.47
  -2   4 -16    1.22    0.22
   4  -2 -16    0.80    0.73
  -2   4 -16    0.73    0.29
   2   2  16    0.35    0.43
   2  -4  16    0.86    0.13
  -4   2  16    2.21    0.55
   2  -4  16    1.14    0.70
  -4   2  16    0.96    0.16
   2  -4  16    0.65    0.70
   2  -4  16    1.41    0.32
   5  -3 -16   19.20    0.83
  -3  -2 -16   19.18    1.06
   5  -3 -16   13.84    1.73
  -2   5 -16   16.63    0.77
  -2   5 -16   16.95    0.82
  -5   3  16   17.66    1.05
   3   2  16   17.84    0.73
  -5   3  16   17.91    0.69
  -5   3  16   17.86    0.76
   3   2  16   16.96    0.70
  -5   3  16   16.90    0.79
   2  -5  16   16.45    0.70
   2  -5  16   17.00    0.83
  -1   4 -16   25.90    1.00
  -1   4 -16   26.20    1.01
   4  -3 -16   24.66    1.68
   1  -4  16   26.22    1.64
  -4   3  16   25.39    0.93
   1  -4  16   24.79    1.40
   1  -4  16   24.74    0.96
  -4   3  16   29.30    1.29
   1  -4  16   29.03    1.30
   0   3 -16    0.45    0.12
   3  -3 -16    0.74    0.53
   3  -3 -16    0.23    0.31
   3  -3 -16   -0.14    0.69
   0   3 -16    0.67    0.64
   0   3 -16    0.55    0.16
   0   3 -16    0.93    0.15
   0  -3  16    0.21    0.39
  -3   3  16    0.66    0.15
   0  -3  16    0.42    0.09
   0  -3  16    0.50    0.18
   3   0  16    0.42    0.27
   3   0  16    3.50    1.28
   3   0  16    0.37    0.31
   2  -3 -16   46.51    1.73
   1   2 -16   42.96    1.56
  -3   1 -16   37.01    2.03
   2  -3 -16   37.72    2.05
   1   2 -16   44.35    1.51
   2  -3 -16   46.74    1.71
  -1  -2  16   44.10    1.57
  -1  -2  16   43.23    1.48
   3  -1  16   42.39    1.68
   1  -3 -16   45.18    1.54
   2   1 -16   44.46    1.59
   1  -3 -16   38.73    1.60
  -2  -1  16   45.30    1.82
  -2  -1  16   44.21    1.57
  -2  -1  16   42.80    1.49
   3  -2  16   46.31    2.25
   3  -2  16   41.32    1.69
   3   0 -16    0.48    0.15
   3   0 -16    0.33    0.10
  -3   3 -16    0.49    0.12
  -3   3 -16    0.60    0.33
   3   0 -16    0.69    0.26
   0  -3 -16    0.47    0.18
  -3   0  16    0.61    0.10
   3  -3  16    0.47    0.10
   4  -1 -16   26.05    1.00
  -3   4 -16   25.86    1.02
   3  -4  16   25.10    0.95
  -4   1  16   26.31    1.25
  -4   1  16   26.97    1.76
  -4   1  16   26.02    0.96
   5  -2 -16   18.05    0.85
   5  -2 -16   17.85    0.99
  -3   5 -16   17.45    0.83
  -2  -3 -16   18.45    0.74
   5  -2 -16   16.92    0.79
  -3   5 -16   17.60    0.81
  -5   2  16   17.67    0.82
   2   3  16   17.64    0.75
   3  -5  16   18.77    0.84
  -5   2  16   18.82    0.80
   3  -5  16   17.90    1.06
  -5   2  16   19.71    1.46
  -5   2  16   18.02    0.79
   3  -5  16   16.37    0.71
   3  -5  16   17.97    1.61
   3  -5  16   17.30    0.76
   2   3  16   17.48    0.83
  -5   2  16   17.67    0.74
  -1   5 -16    2.43    0.30
   5  -4 -16    3.04    0.29
  -1   5 -16    2.53    0.39
  -4  -1 -16    1.94    0.38
  -4  -1 -16    2.82    0.60
   5  -4 -16    2.06    0.66
  -1   5 -16    2.60    0.29
  -1   5 -16    3.59    0.41
  -5   4  16    3.31    0.50
  -5   4  16    2.60    0.35
   1  -5  16    2.40    0.21
  -5   4  16    3.09    0.19
  -5   4  16    2.65    0.30
   4   1  16    2.95    0.24
   4   1  16    2.70    0.28
   1  -5  16    3.04    0.43
   0   4 -16   20.43    0.83
   0   4 -16   19.58    0.81
  -4   0 -16   19.18    1.11
   0   4 -16   20.09    0.82
   0   4 -16   20.17    0.91
   0  -4  16   20.44    1.24
  -4   4  16   20.11    0.98
  -4   4  16   19.92    0.84
   0  -4  16   22.59    1.16
   4   0  16   20.91    0.79
   0  -4  16   19.40    0.96
   0  -4  16   19.51    0.78
  -4   4  16   21.30    0.71
   4   0  16   20.98    0.83
   1   3 -16   25.68    0.97
   3  -4 -16   27.23    1.44
  -4   1 -16   25.43    1.36
   1   3 -16   25.37    0.97
  -1  -3  16   25.67    1.33
  -1  -3  16   24.05    1.43
  -1  -3  16   24.68    0.93
   2  -4 -16    0.86    0.30
   2   2 -16    1.08    0.19
  -4   2 -16    1.24    0.24
   2   2 -16    1.22    0.18
  -4   2 -16    1.30    0.58
   2   2 -16    1.17    0.24
  -4   2 -16    1.05    0.57
   4  -2  16    1.13    1.22
  -2  -2  16    0.98    0.12
  -2  -2  16    1.18    0.47
  -2  -2  16    1.43    0.45
   3   1 -16   25.22    1.00
   3   1 -16   25.20    0.96
  -4   3 -16   25.04    1.00
  -4   3 -16   25.55    1.43
  -3  -1  16   25.51    0.93
   4  -3  16   25.92    0.89
   4  -3  16   29.01    2.57
  -3  -1  16   26.53    1.50
  -3  -1  16   23.66    1.27
   4   0 -16   20.43    0.91
  -4   4 -16   19.28    0.85
   4   0 -16   19.60    0.79
  -4   4 -16   20.51    0.89
   4   0 -16   20.20    0.90
   4  -4  16   19.49    0.87
   4  -4  16   19.74    0.76
  -4   0  16   20.06    1.51
  -4   0  16   20.23    0.77
   4  -4  16   20.34    0.82
   0   4  16   19.97    0.92
  -4   0  16   18.94    0.90
  -4   0  16   20.49    0.93
  -4   5 -16    2.52    0.39
  -1  -4 -16    3.83    0.72
  -4   5 -16    2.68    0.38
   5  -1 -16    3.12    0.36
  -4   5 -16    2.43    0.34
   5  -1 -16    2.28    0.31
   5  -1 -16    3.24    0.48
  -1  -4 -16    2.96    0.26
   4  -5  16    2.54    0.35
   1   4  16    2.78    0.28
  -5   1  16    2.77    0.84
   4  -5  16    2.95    0.32
  -5   1  16    3.59    0.38
   4  -5  16    2.56    0.33
  -5   1  16    2.63    0.24
  -5   1  16    2.62    0.35
   1   4  16    3.01    0.42
   4  -5  16    2.65    0.22
   4  -5  16    3.63    0.98
  -5   1 -16    1.85    0.43
   1   4 -16    2.67    0.42
   4  -5 -16    2.14    0.63
   1   4 -16    2.86    0.29
  -4   5  16    2.71    0.29
   5  -1  16    2.75    0.25
  -1  -4  16    2.54    0.47
  -1  -4  16    2.44    0.36
  -4   5  16    2.67    0.41
   5  -1  16    2.56    0.31
  -4   5  16    3.09    0.32
  -1  -4  16    3.06    0.62
   3  -5 -16   17.23    1.30
  -5   2 -16   17.78    1.38
   2   3 -16   16.38    0.74
   2   3 -16   16.30    0.74
   2   3 -16   16.71    0.78
  -2  -3  16   16.19    0.67
  -2  -3  16   17.27    1.16
   5  -2  16   16.38    0.77
  -3   5  16   17.80    0.85
  -3   5  16   18.28    0.77
  -2  -3  16   16.38    0.80
   5  -2  16   17.04    0.70
   3   2 -16   16.72    0.72
   3   2 -16   15.86    0.77
  -5   3 -16   14.52    0.87
   3   2 -16   16.53    0.72
   2  -5 -16   17.41    1.42
   3   2 -16   16.33    0.75
   5  -3  16   17.21    0.70
  -3  -2  16   15.71    0.82
  -3  -2  16   16.22    0.66
   5  -3  16   16.21    0.71
  -3  -2  16   17.16    1.22
  -2   5  16   17.23    0.79
  -2   5  16   17.14    0.86
   5  -3  16   16.88    0.79
   4   1 -16    2.98    0.31
  -5   4 -16    3.10    0.43
   4   1 -16    2.93    0.38
  -5   4 -16    2.67    0.72
   4   1 -16    2.70    0.41
   1  -5 -16    3.01    0.65
  -5   4 -16    3.20    0.36
   5  -4  16    2.67    0.20
  -4  -1  16    2.64    0.39
   5  -4  16    2.67    0.30
  -4  -1  16    2.84    0.25
   5  -4  16    2.65    0.37
  -1   5  16    3.32    0.46
   5  -4  16    2.66    0.31
  -1   5  16    3.18    0.51
  -4  -1  16    3.39    0.46
  -1   5  16    2.82    0.39
  -1   0 -17    0.13    0.09
   0  -1  17    0.45    0.14
   1   0  17    0.37    0.06
   1   0  17   -0.01    0.12
  -1   2 -17   -0.06    0.09
   1  -2  17    0.23    0.27
   1  -2  17    0.06    0.04
   1  -2  17    0.09    0.21
  -2   1  17    0.15    0.06
   1  -2  17    0.06    0.10
  -2   1  17    0.08    0.09
  -1   3 -17    0.23    0.14
  -1   3 -17    0.34    0.13
   3  -2 -17   -0.20    0.56
  -2  -1 -17    0.53    0.13
   1  -3  17    0.31    0.07
   1  -3  17    0.95    0.29
  -3   2  17    0.34    0.21
   1  -3  17    0.39    0.16
  -3   2  17    0.54    0.16
   2   1  17    0.27    0.20
  -3   2  17    0.34    0.07
   1  -3  17    0.08    0.43
   2   1  17    0.38    0.08
   2  -2 -17    0.20    0.22
   0   2 -17   -0.17    0.38
   2  -2 -17   -0.02    0.57
   0   2 -17    0.01    0.10
   0  -2  17    0.02    0.14
   2   0  17    0.06    0.05
   0  -2  17    0.03    0.09
   0  -2  17    0.09    0.24
   1  -2 -17    0.05    0.16
  -2   1 -17    0.17    0.20
   1   1 -17    0.01    0.36
   2  -1  17    0.17    0.29
   2  -1  17   -0.01    0.10
  -1  -1  17   -0.09    0.10
  -1  -1  17    0.08    0.05
  -1  -1  17    0.43    0.22
   2   0 -17    0.46    0.35
  -2   2 -17   -0.01    0.14
   2  -2  17    0.06    0.04
  -2   0  17    0.31    0.13
   2  -2  17   -0.08    0.10
  -2   0  17    0.16    0.08
  -2   0  17    0.16    0.18
  -2   3 -17    0.25    0.13
  -2   3 -17    0.28    0.11
  -2   3 -17    0.31    0.18
  -3   1  17    0.20    0.16
   2  -3  17    0.53    0.09
   2  -3  17    0.17    0.49
  -3   1  17    0.42    0.09
  -3   1  17    0.35    0.23
   2  -3  17    0.42    0.39
  -2   4 -17    0.14    0.14
  -2   4 -17    0.11    0.13
   4  -2 -17    0.57    0.72
   2   2  17    0.42    0.44
  -4   2  17    1.29    0.46
   2  -4  17    0.11    0.70
   5  -3 -17    0.70    0.23
   5  -3 -17    0.86    0.75
  -2   5 -17    0.53    0.19
  -2   5 -17    0.97    0.24
  -3  -2 -17    0.74    0.28
  -3  -2 -17    1.07    0.46
  -5   3  17    0.60    0.13
  -5   3  17    0.55    0.23
  -5   3  17    0.85    0.20
   3   2  17    0.80    0.16
   2  -5  17    1.39    0.63
   3   2  17    0.83    0.18
   2  -5  17    0.87    0.16
   2  -5  17    0.78    0.25
  -1   4 -17    0.19    0.14
   4  -3 -17    0.49    0.60
  -1   4 -17   -0.03    0.20
   1  -4  17    0.59    0.27
   1  -4  17    0.15    0.08
   1  -4  17   -0.03    0.43
  -4   3  17    0.35    0.17
  -4   3  17    0.15    0.07
   3  -3 -17   -0.04    0.71
   0   3 -17    0.76    0.20
   0   3 -17    0.57    0.12
   3  -3 -17    0.34    0.31
   0   3 -17    0.12    0.09
   0   3 -17    0.22    0.71
   3  -3 -17   -0.26    0.53
   3   0  17    0.53    0.31
   0  -3  17    0.23    0.08
   3   0  17    0.37    0.26
   0  -3  17    0.56    0.43
  -3   3  17    0.27    0.13
   0  -3  17    0.15    0.16
   1   2 -17    0.58    0.16
   1   2 -17    0.41    0.11
   2  -3 -17    0.18    0.22
   2  -3 -17    0.53    0.26
  -3   1 -17    0.18    0.39
   1   2 -17    0.52    0.13
   2  -3 -17    0.48    0.55
  -1  -2  17    0.23    0.12
  -1  -2  17    0.28    0.07
   1  -3 -17    0.27    0.12
   2   1 -17    0.24    0.09
  -3   2 -17    0.43    0.34
   2   1 -17    0.24    0.13
   3  -2  17    0.33    0.59
  -2  -1  17    0.52    0.09
  -2  -1  17    0.25    0.12
  -3   3 -17   -0.20    0.28
  -3   3 -17    0.09    0.11
   3   0 -17   -0.02    0.71
   3   0 -17    0.23    0.10
  -3   0  17    0.10    0.07
   0   3  17    0.63    0.84
   3  -3  17    0.26    0.08
   4  -1 -17    0.57    0.25
   4  -1 -17    0.57    0.25
   4  -1 -17    0.04    0.12
  -3   4 -17    0.32    0.14
  -4   1  17   -0.10    0.62
  -4   1  17    0.07    0.09
  -4   1  17   -0.15    0.20
   3  -4  17    0.18    0.09
   3  -4  17   -0.10    0.15
   3  -4  17   -0.14    0.18
  -4   1  17    0.23    0.34
   5  -2 -17    0.89    0.27
  -3   5 -17    0.91    0.24
   5  -2 -17    0.83    0.34
  -3   5 -17    0.86    0.24
   3  -5  17    1.49    0.84
   2   3  17    0.92    0.19
  -5   2  17    1.05    0.25
   3  -5  17    1.12    0.26
   2   3  17    1.13    0.26
   3  -5  17    0.74    0.19
   3  -5  17    0.93    0.16
  -5   2  17    0.85    0.24
  -5   2  17    0.98    0.21
  -5   2  17    1.09    0.23
   0   4 -17    1.45    0.28
   4  -4 -17    0.88    0.53
   0   4 -17    1.14    0.19
   0   4 -17    1.23    0.20
   0   4 -17    1.12    0.24
   4   0  17    1.31    0.20
   0  -4  17    0.88    0.31
   4   0  17    0.99    0.18
   0  -4  17    2.39    0.55
  -4   4  17    1.44    0.26
  -4   4  17    0.66    0.28
   0  -4  17    1.13    0.15
   1   3 -17    0.15    0.14
   1   3 -17    0.19    0.14
   3  -4 -17   -0.04    0.46
  -3   4  17    0.19    0.15
   4  -1  17    0.06    0.14
  -3   4  17    0.28    0.24
  -1  -3  17    0.72    0.52
  -1  -3  17   -0.10    0.37
  -1  -3  17    0.11    0.08
   2  -4 -17   -0.18    0.25
   2   2 -17    0.04    0.11
  -4   2 -17    0.00    0.14
   2   2 -17    0.14    0.11
  -4   2 -17    0.90    0.55
  -4   2 -17    0.17    0.53
  -2  -2  17    0.30    0.45
  -2  -2  17    0.58    0.43
  -2  -2  17    0.08    0.07
  -4   3 -17    0.23    0.15
   3   1 -17    0.05    0.11
   3   1 -17    0.39    0.22
   3   1 -17    0.01    0.17
  -3  -1  17    0.07    0.07
  -3  -1  17    0.18    0.20
  -1   4  17    0.12    0.29
  -3  -1  17    0.41    0.18
  -3  -1  17    0.42    0.53
   4  -3  17   -0.25    1.23
   4  -3  17    0.52    0.20
   4  -3  17    0.07    0.15
   4  -3  17    0.18    0.07
  -3  -1  17    0.26    0.38
   4   0 -17    2.14    0.35
  -4   4 -17    0.77    0.23
   4   0 -17    1.04    0.23
   4   0 -17    0.94    0.17
  -4   4 -17    1.15    0.25
  -4   0  17    1.44    0.16
  -4   0  17    1.48    0.28
   4  -4  17    1.02    0.14
  -4   0  17    1.44    0.33
   0   4  17    1.91    0.33
   4  -4  17    1.01    0.23
   4  -4  17    0.70    0.18
  -4   0  17    1.85    0.73
   2   3 -17    0.61    0.19
   2   3 -17    0.38    0.16
  -5   2 -17    1.52    0.72
  -5   2 -17    0.40    0.23
   3  -5 -17    1.52    0.57
   2   3 -17    0.75    0.17
   2   3 -17    1.16    0.23
   5  -2  17    0.72    0.16
  -2  -3  17    0.64    0.23
  -2  -3  17    0.41    0.43
  -3   5  17    0.73    0.19
  -2  -3  17    0.44    0.11
   5  -2  17    0.81    0.22
  -3   5  17    1.06    0.28
   3   2 -17    0.72    0.19
   3   2 -17    0.91    0.24
  -5   3 -17    0.34    0.21
   2  -5 -17    1.18    0.68
   3   2 -17    0.70    0.18
  -5   3 -17    0.63    0.71
  -3  -2  17    0.07    0.52
  -2   5  17    1.19    0.30
   5  -3  17    0.71    0.23
  -2   5  17    1.80    0.32
  -3  -2  17    1.68    0.35
   5  -3  17    0.59    0.16
  -3  -2  17    1.11    0.15
   5  -3  17    0.71    0.18
   0   0  18  623.67   20.61
   0   1 -18    0.18    0.07
   1   0  18    0.16    0.04
   0  -1  18    0.15    0.07
   0  -1  18    0.25    0.14
   0  -1  18    0.29    0.05
   1   0  18    0.50    0.14
  -1   1 -18    0.20    0.09
   1   0 -18    0.15    0.07
   1  -1  18    0.22    0.08
  -1   2 -18  428.39   15.32
  -2   1  18  485.67   15.21
  -2   1  18  515.60   15.28
   1  -2  18  429.83   15.44
   1  -2  18  467.63   15.33
   1  -2  18  468.39   15.58
  -2   1  18  441.43   15.34
  -1   3 -18    0.12    0.15
   3  -2 -18    0.26    0.66
  -3   2  18    0.28    0.20
  -3   2  18    0.29    0.15
   2   1  18    0.41    0.22
  -3   2  18    0.55    0.08
   1  -3  18    0.13    0.28
   1  -3  18    0.35    0.44
   0   2 -18    0.07    0.09
   2  -2 -18    0.29    0.24
   0   2 -18    0.16    0.51
   2  -2 -18    0.23    0.60
   0  -2  18    0.13    0.26
   0  -2  18    0.31    0.07
   0  -2  18    0.14    0.16
   2   0  18    0.15    0.10
   2   0  18    0.13    0.05
   1  -2 -18  469.06   16.02
   1  -2 -18  478.75   15.95
  -2   1 -18  436.07   16.06
   2  -1  18  480.05   16.21
  -1  -1  18  515.87   15.98
  -1  -1  18  489.37   16.00
  -1  -1  18  510.18   16.19
  -2   2 -18    0.20    0.17
   2   0 -18    0.33    0.34
   2  -2  18   -0.04    0.12
  -2   0  18    0.00    0.12
  -2   0  18    0.03    0.09
  -2   0  18    0.69    0.23
   2  -2  18    0.23    0.43
  -2   3 -18    0.01    0.10
  -2   3 -18    0.21    0.17
  -3   1  18   -0.15    0.22
  -3   1  18    0.02    0.08
   2  -3  18    0.11    0.06
  -3   1  18   -0.03    0.15
   2  -3  18    0.24    0.40
  -2   4 -18  258.16    8.72
  -2   4 -18  267.59    8.64
  -2   4 -18  263.84    8.67
  -4   2  18  251.82    8.67
  -4   2  18  256.48    8.58
   2  -4  18  247.30    8.57
   2  -4  18  252.23    9.27
  -4   2  18  269.26    8.76
  -2   5 -18    0.16    0.18
   5  -3 -18    1.33    0.83
   5  -3 -18    1.44    0.26
  -3  -2 -18    2.18    0.44
  -2   5 -18    0.41    0.22
   2  -5  18    0.03    0.64
   3   2  18    0.69    0.15
  -5   3  18    0.19    0.68
  -5   3  18    0.25    0.17
  -5   3  18    0.83    0.23
   2  -5  18    0.73    0.27
  -5   3  18    0.34    0.11
   2  -5  18    0.33    0.11
   3   2  18    0.37    0.16
   4  -3 -18    0.19    0.19
  -1   4 -18    0.28    0.19
   4  -3 -18    0.34    0.56
  -1   4 -18    0.25    0.14
  -4   3  18    0.58    0.35
   1  -4  18    0.16    0.08
   1  -4  18    0.95    0.50
  -4   3  18    0.37    0.17
  -4   3  18    0.23    0.07
   0   3 -18  323.10   10.20
   3  -3 -18  315.53   10.49
   3  -3 -18  305.31   10.68
   3  -3 -18  287.42   10.93
   0   3 -18  306.77   10.18
  -3   0 -18  296.03   10.36
   0   3 -18  303.68   10.25
   0   3 -18  287.44   10.89
   0  -3  18  331.18   10.32
   0  -3  18  297.50   10.16
   0  -3  18  321.21   10.68
   2  -3 -18    0.28    0.55
   1   2 -18    0.49    0.11
  -3   1 -18    0.17    0.41
   2  -3 -18   -0.15    0.22
   1   2 -18   -0.01    0.85
   2  -3 -18   -0.03    0.24
   1   2 -18    0.28    0.27
   3  -1  18   -0.22    0.58
  -1  -2  18    0.46    0.33
  -1  -2  18    0.44    0.14
   3  -1  18    0.07    0.20
  -1  -2  18    0.19    0.07
   2   1 -18    1.23    0.60
   1  -3 -18    0.23    0.11
   2   1 -18    0.23    0.13
   1  -3 -18    0.21    0.08
  -3   2 -18   -0.11    0.31
   2   1 -18    0.03    0.09
  -2  -1  18    0.31    0.31
  -2  -1  18    0.03    0.05
   3   0 -18  305.25   10.09
  -3   3 -18  313.24   10.39
  -3   3 -18  312.62   10.11
  -3   0  18  285.78   10.06
   4  -1 -18    0.43    0.26
  -3   4 -18    0.39    0.15
   4  -1 -18    0.51    0.14
  -4   1  18    0.28    0.21
   3  -4  18    0.23    0.20
   3  -4  18    0.33    0.09
   3  -4  18    0.19    0.15
  -4   1  18    0.27    0.37
  -4   1  18    0.27    0.10
   5  -2 -18    0.21    0.19
  -3   5 -18    0.50    0.22
   5  -2 -18    0.66    0.27
   5  -2 -18    0.36    0.32
  -3   5 -18    0.46    0.18
  -5   2  18    0.33    0.23
   3  -5  18    0.47    0.19
  -5   2  18    1.88    0.80
  -5   2  18    0.36    0.21
   2   3  18    0.41    0.27
  -5   2  18    0.44    0.20
   2   3  18    0.49    0.17
   3  -5  18    0.32    0.12
   3  -5  18    0.84    0.25
   0   4 -18    0.48    0.15
  -4   0 -18    0.66    0.53
   4  -4 -18    0.83    0.47
   0   4 -18    0.41    0.16
   0   4 -18    0.55    0.14
  -4   0 -18    0.34    0.26
   0   4 -18    0.14    0.21
   0  -4  18    0.58    0.30
  -4   4  18    0.30    0.17
   0  -4  18    0.70    0.47
  -4   4  18    0.47    0.27
   0  -4  18    0.72    0.35
   0  -4  18    0.41    0.11
   4   0  18    0.35    0.14
   4   0  18    0.37    0.15
   1   3 -18    0.25    0.14
  -4   1 -18    0.56    0.64
  -4   1 -18    0.50    0.59
   1   3 -18    0.32    0.15
  -1  -3  18    0.74    0.42
  -1  -3  18    0.40    0.21
  -1  -3  18    0.50    0.10
  -1  -3  18   -0.12    0.52
  -1  -3  18    0.19    0.19
  -3   4  18   -0.01    0.24
  -3   4  18    1.14    0.23
   4  -1  18    0.20    0.14
  -4   2 -18  264.35    8.64
  -4   2 -18  256.71    9.15
   2   2 -18  264.35    8.60
  -4   2 -18  268.87    9.10
   2   2 -18  262.03    8.62
  -2  -2  18  253.94    8.72
  -2   4  18  244.31    8.64
  -2  -2  18  260.12    9.10
   4  -2  18  250.71    8.64
  -2  -2  18  244.78    8.56
  -2  -2  18  270.66    9.02
   3   1 -18    0.18    0.21
  -4   3 -18    0.19    0.15
   3   1 -18    0.28    0.22
   3   1 -18    0.21    0.12
  -1   4  18    1.06    0.31
  -1   4  18    1.06    0.25
   4  -3  18    0.66    0.19
  -3  -1  18    1.22    0.59
  -3  -1  18    0.64    0.34
  -3  -1  18    0.33    0.20
  -3  -1  18    0.37    0.09
  -4   4 -18    0.53    0.17
  -4   4 -18    0.26    0.20
   4   0 -18    0.49    0.23
   4   0 -18    0.31    0.14
  -4   0  18    0.44    0.22
  -4   0  18    0.21    0.09
   4  -4  18    0.50    0.20
  -4   0  18    0.13    0.23
  -4   0  18    0.94    0.69
   4  -4  18    0.26    0.15
   4  -4  18    0.14    0.18
   4  -4  18    0.25    0.09
   0   4  18    0.53    0.27
   2   3 -18    0.49    0.16
   2   3 -18    0.40    0.21
   2   3 -18    0.60    0.20
   2   3 -18    0.42    0.16
   3  -5 -18    0.72    0.58
  -5   2 -18    0.32    0.22
  -2  -3  18    0.30    0.10
   5  -2  18    0.52    0.16
  -2  -3  18    0.69    0.23
  -2  -3  18    0.71    0.46
  -3   5  18    0.43    0.18
   5  -2  18    0.65    0.19
  -3   5  18    1.00    0.28
  -3   5  18    0.55    0.25
   3   2 -18    0.20    0.16
  -5   3 -18    0.62    0.57
   3   2 -18    0.82    0.23
   3   2 -18   -0.05    0.15
   3   2 -18    0.31    0.17
  -5   3 -18    0.43    0.20
   2  -5 -18    0.51    0.61
  -2   5  18    0.36    0.27
   5  -3  18    0.40    0.15
  -2   5  18    0.28    0.20
  -3  -2  18    0.75    0.26
  -3  -2  18    0.80    0.54
   5  -3  18    0.20    0.16
  -3  -2  18    0.54    0.12
   5  -3  18    0.81    0.25
   0   0 -19    1.20    0.31
   1  -1 -19   79.15    2.68
   0   1 -19   82.20    2.71
   0  -1  19   75.41    2.76
   1   0  19   80.85    2.63
   1   0 -19   79.05    2.67
  -1   1 -19   77.93    2.70
   1  -1  19   77.83    2.70
  -1   0  19   80.07    2.68
  -1   2 -19    0.06    0.11
   1  -2  19    0.01    0.04
   1  -2  19    0.10    0.30
  -2   1  19   -0.02    0.10
   1  -2  19    0.08    0.10
   1  -2  19    0.54    0.28
   3  -2 -19   38.83    2.45
   3  -2 -19   43.27    2.39
  -1   3 -19   46.02    1.64
   3  -2 -19   45.25    2.93
  -1   3 -19   46.46    1.69
   1  -3  19   46.66    1.57
  -3   2  19   47.49    1.63
  -3   2  19   46.51    1.53
   1  -3  19   48.36    2.13
   2  -2 -19   63.19    2.38
   2  -2 -19   56.76    2.74
   0   2 -19   61.75    2.19
   0  -2  19   62.44    2.47
   2   0  19   64.58    2.11
   0  -2  19   64.05    2.10
   0  -2  19   63.82    2.28
   2   0  19   61.98    2.08
   1  -2 -19    0.47    0.13
   1  -2 -19    0.21    0.20
  -2   1 -19    0.12    0.18
  -1  -1  19    0.07    0.15
  -1  -1  19    0.12    0.05
   2  -1  19    0.20    0.31
  -1  -1  19    0.03    0.22
   2   0 -19   63.57    2.24
  -2   2 -19   62.56    2.32
   2  -2  19   62.37    2.58
  -2   0  19   65.46    2.38
  -2   0  19   66.96    2.27
  -2   0  19   64.58    2.16
  -2   0  19   62.84    2.23
  -2   3 -19   46.04    1.75
  -2   3 -19   45.68    1.62
  -3   1  19   47.30    1.68
  -3   1  19   41.51    1.61
   2  -3  19   49.27    1.97
  -2   4 -19   -0.06    0.18
  -2   4 -19    0.04    0.12
  -4   2  19   -0.17    0.19
  -4   2  19   -0.21    0.17
   2  -4  19    0.09    0.07
  -4   2  19    0.54    0.47
  -4   2  19    0.07    0.08
   2  -4  19   -0.01    0.24
   4  -3 -19   33.45    2.00
  -1   4 -19   34.50    1.25
  -1   4 -19   33.23    1.33
  -4   3  19   33.01    1.26
   1  -4  19   32.82    1.19
   3   1  19   33.46    1.20
  -4   3  19   34.75    1.14
   1  -4  19   34.78    1.71
  -4   3  19   33.30    1.51
   1  -4  19   29.16    1.33
  -4   3  19   33.60    1.29
   3  -3 -19    0.24    0.34
   0   3 -19    0.09    0.11
  -3   0 -19    0.36    0.34
   0   3 -19   -0.08    0.81
   0   3 -19    0.10    0.14
   3  -3 -19    0.31    0.51
   0   3 -19    0.05    0.10
   0  -3  19   -0.64    0.44
   3   0  19    0.22    0.28
   0  -3  19    0.03    0.07
   0  -3  19    0.10    0.17
   1   2 -19   48.29    1.61
   2  -3 -19   47.84    1.78
   2  -3 -19   39.28    2.04
   2  -3 -19   53.43    2.08
  -3   1 -19   40.08    1.95
   1   2 -19   46.49    1.66
  -1  -2  19   46.45    1.96
   3  -1  19   42.01    1.74
   3  -1  19   45.87    2.17
  -1  -2  19   46.35    1.57
   2   1 -19   48.33    1.73
   2   1 -19   48.15    1.66
  -3   2 -19   44.75    1.94
  -2  -1  19   47.00    1.62
  -2  -1  19   48.65    1.97
  -3   3 -19    0.36    0.32
  -3   3 -19    0.27    0.12
   3   0 -19    0.15    0.10
  -3   0  19    0.18    0.07
   3  -3  19    0.28    0.07
   4  -1 -19   34.63    1.44
   4  -1 -19   34.41    1.35
   1   3  19   34.14    1.27
  -4   1  19   35.73    1.36
  -4   1  19   34.35    1.24
   3  -4  19   32.03    1.33
  -4   1  19   33.73    1.35
  -4   1  19   35.14    1.72
   3  -4  19   34.47    1.28
   3  -4  19   34.00    1.21
   0   4 -19   22.56    0.89
  -4   0 -19   19.04    1.27
   0   4 -19   21.83    0.98
  -4   0 -19   22.54    1.08
   4  -4 -19   21.97    1.46
   0   4 -19   22.98    0.90
   4   0  19   22.50    0.85
  -4   4  19   22.35    0.90
   4   0  19   22.38    0.89
   0  -4  19   22.97    1.36
  -4   4  19   22.61    1.06
   0  -4  19   21.87    0.84
   0  -4  19   21.13    1.04
   1   3 -19   35.32    1.28
   1   3 -19   35.08    1.30
   3  -4 -19   34.25    1.74
  -1  -3  19   30.94    1.35
   4  -1  19   34.69    1.28
  -3   4  19   34.13    1.30
  -1  -3  19   36.55    1.70
  -3   4  19   34.09    1.44
  -1  -3  19   34.29    1.24
  -3   4  19   34.22    1.30
   4  -1  19   36.68    1.29
   2   2 -19    0.04    0.11
  -4   2 -19   -0.16    0.55
   2   2 -19   -0.07    0.12
  -4   2 -19    0.91    0.60
  -2  -2  19   -0.16    0.46
  -2   4  19    0.07    0.16
  -2  -2  19    0.01    0.19
   4  -2  19    0.16    0.18
  -4   3 -19   32.96    1.37
   3   1 -19   36.12    1.28
   3   1 -19   34.69    1.38
  -3  -1  19   35.79    1.76
   4  -3  19   33.91    1.35
  -1   4  19   34.86    1.47
  -3  -1  19   37.11    1.34
  -1   4  19   33.30    1.34
  -3  -1  19   34.88    1.24
   4  -3  19   34.48    1.29
  -3  -1  19   34.41    1.42
  -3  -1  19   36.81    1.84
   4   0 -19   22.31    1.02
   4   0 -19   22.09    0.89
   0   4  19   22.90    1.06
  -4   0  19   23.98    1.61
  -4   0  19   21.83    0.99
   4  -4  19   22.11    0.96
  -4   0  19   22.07    0.85
  -4   0  19   23.41    1.01
   4  -4  19   22.10    0.90
   4  -4  19   21.75    0.81
   0   0 -20  237.38    7.98
   0   0  20  235.64    7.97
   0   0  20  250.98    8.09
   0   1 -20    4.00    0.23
   1  -1 -20    4.00    0.75
   1  -1 -20    4.12    0.21
   0  -1  20    3.84    0.32
   1   0 -20    4.08    0.22
   1   0 -20    3.12    0.27
   0  -1 -20    3.91    0.16
  -1   1 -20    3.84    0.24
   1  -1  20    4.06    0.46
   1  -1  20    3.85    0.25
  -1   0  20    3.94    0.24
  -1   0  20    3.79    0.23
   2  -1 -20  175.83    5.87
   1  -2  20  166.35    6.00
   1  -2  20  177.59    5.88
   1  -2  20  173.04    6.14
  -2   1  20  180.49    5.82
   1  -2  20  173.12    5.75
   3  -2 -20    2.40    1.19
  -1   3 -20    1.22    0.17
   3  -2 -20    1.09    0.73
  -1   3 -20    1.39    0.24
  -3   2  20    0.92    0.22
   1  -3  20    1.25    0.12
  -3   2  20    1.43    0.28
   0   2 -20    2.13    0.20
   2  -2 -20    1.75    0.68
  -2   0 -20    2.15    0.45
   0   2 -20    2.00    0.17
   2  -2 -20    2.26    0.41
   0  -2  20    2.33    0.35
   0  -2  20    2.06    0.43
   0  -2  20    2.08    0.13
  -2   1 -20  163.73    6.02
   1   1 -20  180.97    5.96
  -1  -1  20  182.83    6.19
   2  -1  20  179.86    6.20
  -1  -1  20  182.08    5.97
   2  -1  20  177.18    5.95
  -1  -1  20  185.83    6.02
  -1  -1  20  170.42    5.88
   2   0 -20    2.27    0.18
   2   0 -20    2.19    0.21
  -2   2 -20    2.39    0.36
  -2   0  20    2.38    0.27
  -2   0  20    2.04    0.14
  -2   0  20    2.22    0.36
   2  -2  20    2.12    0.59
  -2   3 -20    1.16    0.29
   3  -1 -20    1.08    0.18
  -2   3 -20    1.25    0.17
   2  -3  20    1.04    0.11
  -3   1  20    1.32    0.28
   2  -3  20    1.17    0.47
   2  -3  20    0.58    0.56
  -3   1  20    1.24    0.41
  -3   1  20    1.27    0.15
  -2   4 -20   76.95    2.78
  -2   4 -20   75.28    2.75
  -2   4 -20   73.62    2.64
   2  -4  20   69.84    2.64
  -4   2  20   68.12    2.85
  -4   2  20   74.46    2.61
  -4   2  20   76.06    2.51
   2  -4  20   72.43    2.50
  -4   2  20   72.68    2.90
  -4   2  20   76.82    2.63
  -1   4 -20    0.38    0.22
   4  -3 -20    1.58    0.93
   1  -4  20    1.22    0.31
  -4   3  20    0.09    0.16
   1  -4  20    0.36    0.10
   3   1  20    0.46    0.14
  -4   3  20    0.51    0.23
  -4   3  20    0.38    0.38
   3  -3 -20  107.54    3.82
   3  -3 -20   96.27    3.90
  -3   0 -20   90.94    3.55
   0   3 -20  100.55    3.35
   0   3 -20   98.10    3.36
   0  -3  20   98.74    3.83
   0  -3  20   96.94    3.31
   1   2 -20    1.56    0.17
   1   2 -20    1.19    0.22
   2  -3 -20    1.27    0.29
   2  -3 -20    0.95    0.58
  -3   1 -20    1.58    0.49
  -1  -2  20    1.62    0.42
  -1  -2  20    0.98    0.11
  -1  -2  20    1.10    0.23
   2   1 -20    1.10    0.22
  -3   2 -20    1.35    0.39
   2   1 -20    1.41    0.16
  -2  -1  20    1.08    0.11
   3  -2  20    1.03    0.63
  -2  -1  20    1.20    0.23
  -2  -1  20    2.37    0.51
  -3   3 -20   97.26    3.58
  -3   3 -20   97.44    3.32
   3   0 -20   98.20    3.31
   3  -3  20   99.76    3.22
   3  -3  20   89.32    4.18
  -3   0  20   99.65    3.28
  -3   4 -20    0.54    0.16
   4  -1 -20    0.36    0.15
   4  -1 -20    0.46    0.26
   1   3  20    0.46    0.16
  -4   1  20    0.35    0.22
   3  -4  20    0.47    0.16
   3  -4  20    0.48    0.09
   3  -4  20    0.20    0.33
  -4   1  20    0.70    0.13
  -4   1  20   -0.08    0.20
   3  -4  20    0.74    0.24
  -4   1  20    0.42    0.28
   4  -4 -20    0.29    0.51
   0   4 -20    0.29    0.15
  -4   0 -20   -0.01    0.50
   0   4 -20    0.21    0.21
   0   4 -20    0.12    0.15
   0  -4  20    0.12    0.50
   4   0  20    0.27    0.15
   0  -4  20    0.20    0.22
   4   0  20    0.34    0.14
   0  -4  20    0.75    0.30
  -4   4  20    0.15    0.26
   0  -4  20    0.05    0.08
  -4   4  20    0.10    0.16
   1   3 -20    0.16    0.13
   3  -4 -20    0.47    0.50
   1   3 -20    0.32    0.14
   4  -1  20    0.46    0.15
  -1  -3  20    0.29    0.20
   4  -1  20    0.46    0.17
  -1  -3  20    0.24    0.48
  -3   4  20    0.35    0.18
  -3   4  20    0.33    0.15
  -3   4  20   -0.21    0.26
  -1  -3  20    0.25    0.09
  -4   2 -20   68.40    3.08
   2   2 -20   76.40    2.66
  -4   2 -20   73.68    3.20
   2   2 -20   77.40    2.64
  -4   2 -20   77.13    2.67
  -2  -2  20   75.78    2.77
   4  -2  20   78.58    2.68
  -2  -2  20   74.56    2.60
  -2   4  20   76.10    2.79
  -2   4  20   74.99    2.66
  -2   4  20   82.30    3.10
  -2  -2  20   80.18    3.11
  -2  -2  20   75.56    3.40
   4  -2  20   76.19    2.66
   3   1 -20    0.32    0.22
  -4   3 -20    0.57    0.16
   3   1 -20    0.37    0.16
  -1   4  20    0.49    0.22
  -3  -1  20    0.29    0.22
   4  -3  20    0.53    0.21
   4  -3  20    0.80    0.17
  -3  -1  20    0.41    0.21
  -3  -1  20    0.46    0.10
  -3  -1  20    2.03    0.66
   4   0 -20    0.16    0.13
  -4   4 -20    0.03    0.15
   4   0 -20    0.07    0.22
  -4   0  20    0.34    0.22
   0   4  20   -0.10    0.29
   4  -4  20    0.04    0.20
   0   4  20    0.15    0.26
  -4   0  20    0.90    0.77
   4  -4  20    0.14    0.15
  -4   0  20    0.50    0.24
   4  -4  20    0.14    0.08
  -4   0  20    0.17    0.10
   0   0 -21    0.33    0.08
   0   0  21    0.19    0.15
   1  -1 -21    4.88    0.80
   1  -1 -21    5.38    0.26
   1   0  21    5.67    0.33
   0  -1  21    5.25    0.47
   0  -1  21    5.35    0.36
  -1   1 -21    5.44    0.29
   1   0 -21    5.11    0.27
   2  -1 -21    0.17    0.13
  -1   2 -21    0.06    0.12
   1  -2  21    0.14    0.29
  -2   1  21    0.12    0.11
   1  -2  21    0.44    0.35
  -1   3 -21    5.42    0.30
   3  -2 -21    5.85    0.86
   3  -2 -21    5.37    1.16
   3  -2 -21    4.91    1.47
  -1   3 -21    5.13    0.37
   1  -3  21    5.39    0.24
   0   2 -21    4.82    0.30
   2  -2 -21    4.72    0.50
   2  -2 -21    4.79    1.03
  -2   0 -21    3.82    0.47
   0   2 -21    4.86    0.26
   0  -2  21    5.14    0.63
   0  -2  21    4.62    0.21
   0  -2  21    5.11    0.46
  -2   1 -21   -0.08    0.17
   1   1 -21    0.18    0.11
   1   1 -21   -0.05    0.08
  -1  -1  21    0.60    0.21
  -1  -1  21    0.15    0.26
  -1  -1  21    0.32    0.06
   2  -1  21    0.01    0.11
   2   0 -21    4.57    0.26
   2   0 -21    5.57    0.32
  -2   2 -21    4.53    0.36
  -2   0  21    4.25    0.47
  -2   0  21    5.35    0.37
  -2   0  21    4.95    0.22
  -2   3 -21    5.30    0.31
   3  -1 -21    5.34    0.33
  -2   3 -21    5.36    0.43
   2  -3  21    6.40    0.72
   2  -3  21    5.71    0.24
  -3   1  21    5.61    0.27
   2  -3  21    5.32    1.05
  -3   1  21    5.67    0.42
  -2   4 -21   -0.18    0.19
  -2   4 -21    0.07    0.12
  -4   2  21    0.07    0.19
  -4   2  21    0.14    0.21
  -4   2  21   -0.57    0.45
   2  -4  21    0.21    0.43
   2  -4  21    0.19    0.24
  -4   2  21    0.03    0.09
   2  -4  21   -0.04    0.07
   4  -3 -21    4.57    0.97
  -1   4 -21    3.60    0.38
  -1   4 -21    3.44    0.28
   1  -4  21    3.08    0.47
  -4   3  21    3.88    0.38
   1  -4  21    3.40    0.22
   3   1  21    3.27    0.25
  -4   3  21    3.49    0.33
   1  -4  21    3.35    0.45
  -4   3  21    4.20    0.65
  -3   0 -21    0.07    0.42
   0   3 -21    0.28    0.12
   3  -3 -21    0.42    0.54
  -3   3  21   -0.39    0.34
  -3   3  21    0.14    0.35
   3   0  21    0.46    0.35
   0  -3  21    0.12    0.07
   1   2 -21    5.56    0.31
   2  -3 -21    4.98    0.48
   1   2 -21    5.69    0.30
  -3   1 -21    4.50    0.69
   2  -3 -21    5.15    0.82
   1   2 -21    5.27    0.35
  -1  -2  21    5.54    0.38
  -1  -2  21    5.47    0.25
  -1  -2  21    4.84    0.72
   2   1 -21    5.46    0.32
  -3   2 -21    4.52    0.55
   2   1 -21    5.01    0.35
   2   1 -21    5.57    0.29
  -2  -1  21    4.65    0.76
  -2  -1  21    5.45    0.25
   3   0 -21    0.19    0.11
  -3   3 -21    0.03    0.32
  -3   3 -21    0.46    0.13
   3  -3  21    0.22    0.15
  -3   0  21    0.07    0.07
  -3   0  21   -0.18    0.24
   4  -1 -21    3.45    0.30
   4  -1 -21    3.64    0.47
  -3   4 -21    3.63    0.30
   3  -4  21    3.50    0.19
   3  -4  21    3.55    0.39
  -4   1  21    3.48    0.39
  -4   1  21    3.64    0.25
   1   3  21    4.45    0.52
  -4   1  21    3.90    0.37
  -4   1  21    2.97    0.38
   3  -4  21    4.01    0.60
   3  -4  21    3.73    0.29
   0   4 -21    6.15    0.43
   0   4 -21    6.33    0.47
   0   4 -21    6.66    0.39
   4  -4 -21    4.95    1.21
   0  -4  21    5.87    0.32
   4   0  21    6.16    0.34
  -4   4  21    6.28    0.40
   0  -4  21    6.62    0.53
  -4   4  21    6.01    0.58
   4   0  21    5.93    0.38
   0  -4  21    6.10    0.57
  -4   1 -21    3.69    0.34
   1   3 -21    3.86    0.29
   3  -4 -21    4.13    0.82
  -4   1 -21    3.32    0.83
   1   3 -21    3.67    0.30
  -3   4  21    3.31    0.49
  -1  -3  21    4.00    0.77
   4  -1  21    3.34    0.30
  -1  -3  21    3.48    0.39
  -3   4  21    3.84    0.31
  -3   4  21    4.37    0.34
  -1  -3  21    3.51    0.22
  -4   2 -21    0.68    0.65
   2  -4 -21    0.45    0.54
  -4   2 -21    0.15    0.16
   2   2 -21    0.03    0.14
  -4   2 -21    0.24    0.60
  -2  -2  21    0.23    0.64
  -2  -2  21    0.09    0.20
   4  -2  21   -0.07    0.14
  -2  -2  21    0.13    0.07
   4  -2  21    0.37    0.17
  -2   4  21   -0.09    0.28
  -2   4  21    0.04    0.42
  -2   4  21    0.22    0.17
   3   1 -21    3.62    0.27
   3   1 -21    3.38    0.40
  -4   3 -21    3.47    0.31
  -3  -1  21    3.53    0.22
  -3  -1  21    3.93    0.35
  -1   4  21    3.48    0.36
  -3  -1  21    3.65    0.44
   4  -3  21    3.35    0.36
   4  -3  21    3.53    0.29
   4   0 -21    5.36    0.37
  -4   4 -21    5.28    0.40
   4   0 -21    6.48    0.52
   0   4  21    6.46    0.48
  -4   0  21    6.69    0.50
  -4   0  21    6.03    0.31
   0   4  21    5.89    0.58
   4  -4  21    5.92    0.25
  -4   0  21    6.03    0.48
   4  -4  21    5.63    0.45
   4  -4  21    6.04    0.38
   0   0 -22   73.24    2.49
   0   0  22   74.24    2.48
   0   0  22   73.96    2.60
   1  -1 -22   12.52    0.48
   1  -1 -22   10.56    0.66
   0   1 -22   12.24    0.68
   0   1 -22   12.45    0.50
   1  -1 -22    9.80    0.95
   0  -1  22   11.68    0.53
   1   0  22   12.20    0.52
   0  -1  22   12.63    0.72
   1   0 -22   11.54    0.54
  -1   1 -22   11.81    0.50
   1   0 -22   11.93    0.48
   1  -1  22   11.83    0.69
  -1   0  22   10.79    0.55
   2  -1 -22   67.45    2.42
  -1   2 -22   67.05    2.42
  -1   2 -22   66.61    2.35
   1  -2  22   70.84    2.53
   1  -2  22   71.25    2.71
   1  -2  22   71.42    2.64
   3  -2 -22    8.02    1.16
  -1   3 -22    5.90    0.32
  -1   3 -22    5.22    0.39
   3  -2 -22    5.00    1.02
   1  -3  22    5.96    0.26
   2  -2 -22    8.74    1.22
   0   2 -22    8.81    0.43
   0   2 -22    8.45    0.38
   2  -2 -22    7.98    0.62
   0  -2  22    8.20    0.32
   0  -2  22    9.41    0.61
   0  -2  22    7.57    0.73
  -2   1 -22   63.85    2.42
   1   1 -22   68.95    2.38
   2  -1  22   68.51    2.59
  -1  -1  22   68.14    2.29
   2  -1  22   68.56    2.35
  -1  -1  22   70.69    2.45
  -1  -1  22   70.07    2.41
  -1  -1  22   68.93    2.63
  -2   2 -22    8.45    0.49
   2   0 -22    8.61    0.39
   2   0 -22    8.75    0.44
  -2   0  22    9.04    0.61
  -2   0  22    8.70    0.49
  -2   0  22    8.81    0.52
  -2   0  22    8.19    0.33
  -2   0  22    8.43    0.43
  -2   3 -22    6.42    0.34
   3  -1 -22    6.19    0.35
  -2   3 -22    5.82    0.46
  -3   1  22    6.00    0.27
   2  -3  22    6.11    0.87
  -3   1  22    6.22    0.58
  -3   1  22    6.64    0.45
   2  -3  22    6.42    1.04
   2  -3  22    6.03    0.26
  -2   4 -22   52.46    1.87
  -2   4 -22   51.74    1.93
   2  -4  22   52.03    2.09
  -4   2  22   51.17    2.11
   2  -4  22   52.32    1.87
  -4   2  22   50.87    1.90
  -4   2  22   53.20    1.92
  -4   2  22   52.78    1.75
   2  -4  22   51.33    1.78
  -4   2  22   50.81    2.28
   2  -4  22   48.44    1.92
  -1   4 -22    3.65    0.37
   4  -3 -22    3.91    0.98
  -1   4 -22    3.12    0.28
  -4   3  22    3.50    0.64
  -4   3  22    4.14    0.34
   3   1  22    3.59    0.26
   1  -4  22    3.62    0.22
   1  -4  22    3.33    0.44
  -4   3  22    4.09    0.39
  -4   3  22    3.66    0.57
   1  -4  22    3.38    0.49
   0   3 -22   56.46    1.95
   3  -3 -22   55.04    2.55
  -3   3  22   56.71    2.20
   0  -3  22   53.25    2.07
   0  -3  22   56.22    1.89
  -3   3  22   54.86    2.21
  -3   3  22   52.80    1.97
   1   2 -22    6.06    0.32
   2  -3 -22    5.34    0.91
   2  -3 -22    6.94    1.11
   1   2 -22    6.29    0.39
  -3   1 -22    4.46    1.05
   1   2 -22    5.91    0.39
  -1  -2  22    6.07    0.27
   2   1 -22    6.46    0.43
  -3   2 -22    6.64    0.59
   2   1 -22    6.12    0.33
   2   1 -22    6.29    0.40
  -2  -1  22    6.18    0.28
  -3   3 -22   54.87    1.98
  -3   3 -22   54.44    2.19
   3   0 -22   57.75    2.18
   3   0 -22   55.77    1.97
   3  -3  22   55.81    1.98
  -3   0  22   56.60    2.25
   3  -3  22   54.55    2.29
  -3   0  22   56.74    2.05
  -3   0  22   57.25    1.92
  -3   4 -22    3.41    0.35
   4  -1 -22    3.64    0.31
   4  -1 -22    3.72    0.49
   3  -4  22    3.66    0.39
  -4   1  22    3.45    0.36
   3  -4  22    3.88    0.29
  -4   1  22    3.12    0.39
   3  -4  22    3.70    0.19
   3  -4  22    3.62    0.59
  -4   1  22    3.83    0.26
  -4   1  22    4.28    0.42
   4  -4 -22    2.29    0.68
  -4   0 -22    3.95    0.94
   0   4 -22    3.28    0.38
   0   4 -22    2.98    0.29
  -4   0 -22    1.93    0.43
   0   4 -22    2.78    0.30
   0  -4  22    3.11    0.21
   4   0  22    3.19    0.25
   4   0  22    2.91    0.28
  -4   4  22    3.07    0.51
   0  -4  22    2.82    0.50
  -4   4  22    2.85    0.31
   0  -4  22    2.98    0.43
   0  -4  22    3.87    0.87
  -4   1 -22    3.48    0.35
  -4   1 -22    3.02    0.82
   1   3 -22    3.39    0.28
   1   3 -22    3.61    0.30
   3  -4 -22    3.27    0.84
   1   3 -22    3.74    0.29
  -1  -3  22    3.37    0.21
   4  -1  22    3.49    0.30
  -3   4  22    3.95    0.35
  -1  -3  22    3.89    0.40
  -3   4  22    3.36    0.49
  -3   4  22    3.24    0.60
  -1  -3  22    3.22    0.38
  -4   2 -22   53.19    1.95
   2   2 -22   50.94    1.88
  -4   2 -22   52.93    2.49
   2   2 -22   51.53    1.86
  -2   4  22   52.21    2.05
  -2  -2  22   55.48    1.89
   4  -2  22   51.72    1.89
  -2  -2  22   50.76    1.81
   4  -2  22   51.44    1.86
  -2   4  22   51.95    1.89
  -2   4  22   53.45    2.16
  -2  -2  22   51.99    2.01
   3   1 -22    3.57    0.28
   3   1 -22    3.89    0.41
  -4   3 -22    4.07    0.32
  -3  -1  22    3.43    0.34
   4  -3  22    3.52    0.36
  -3  -1  22    3.33    0.22
  -3  -1  22    3.83    0.44
  -1   4  22    3.37    0.36
   4  -3  22    3.45    0.29
   4   0 -22    2.82    0.28
  -4   4 -22    2.87    0.30
   4   0 -22    2.92    0.44
   4  -4  22    2.81    0.37
  -4   0  22    3.14    0.23
   0   4  22    2.88    0.40
   4  -4  22    2.98    0.28
  -4   0  22    2.38    0.38
  -4   0  22    2.97    0.40
   0   4  22    2.80    0.52
  -4   0  22    3.81    0.96
   0   0 -23    0.22    0.07
   0   0  23   -0.03    0.17
   0   0  23    0.36    0.09
   0   1 -23    0.05    0.09
   1  -1 -23    0.14    0.45
   0   1 -23    0.27    0.18
   1  -1 -23    0.24    0.09
   1   0 -23    0.16    0.09
  -1   1 -23    0.37    0.13
   1   0 -23    0.16    0.14
   1  -1  23    0.15    0.10
   2  -1 -23    0.02    0.14
  -1   2 -23   -0.07    0.13
  -1   2 -23    0.00    0.09
   1  -2  23    0.01    0.26
   3  -2 -23    0.46    0.74
  -1   3 -23    0.21    0.11
  -3   2  23    0.37    0.45
  -3   2  23    0.39    0.20
   1  -3  23    0.16    0.06
   0   2 -23    0.03    0.12
   2  -2 -23    0.31    0.29
   0   2 -23    0.06    0.09
   0  -2  23   -0.25    0.38
   0  -2  23    0.17    0.06
   0  -2  23    0.06    0.31
   1   1 -23    0.11    0.11
  -2   1 -23    0.07    0.16
  -1  -1  23    0.01    0.11
  -1  -1  23    0.08    0.22
   2  -1  23    0.08    0.11
  -1  -1  23   -0.14    0.31
   2  -1  23    0.42    0.38
  -1  -1  23    0.01    0.05
   2   0 -23    0.06    0.10
   2   0 -23    0.25    0.14
  -2   2 -23    0.14    0.18
   2  -2  23   -0.06    0.43
  -2   0  23    0.31    0.07
  -2   0  23    0.32    0.23
  -2   0  23    0.32    0.29
  -2   0  23    0.24    0.21
  -2   3 -23    0.26    0.11
   3  -1 -23    0.09    0.12
  -2   3 -23   -0.10    0.22
  -3   1  23    0.50    0.08
  -3   1  23    0.38    0.31
  -3   1  23    0.15    0.23
   2  -3  23    0.17    0.64
  -2   4 -23    0.11    0.15
  -2   4 -23    0.17    0.19
   2  -4  23    0.12    0.29
   2  -4  23    0.07    0.15
   2  -4  23    0.13    0.08
  -4   2  23    0.10    0.51
   2  -4  23   -0.12    0.22
  -4   2  23   -0.02    0.18
  -4   2  23    0.01    0.22
  -4   2  23    0.28    0.07
  -4   2  23    0.04    0.42
  -1   4 -23    0.19    0.19
   4  -3 -23   -0.23    0.72
  -4   3  23    0.53    0.19
  -4   3  23   -0.27    0.33
   1  -4  23   -0.31    0.25
   1  -4  23   -0.12    0.25
  -4   3  23    0.35    0.23
   1  -4  23    0.02    0.07
   3   1  23    0.01    0.13
  -4   3  23    0.21    0.35
   3  -3 -23   -0.07    0.60
   0  -3  23   -0.14    0.21
  -3   3  23    0.17    0.37
  -3   3  23    0.12    0.35
   0  -3  23    0.02    0.06
  -3   3  23    0.46    0.20
   1   2 -23    0.28    0.11
  -3   1 -23    0.43    0.39
  -1  -2  23    0.35    0.08
  -1  -2  23    0.02    0.20
   2   1 -23    0.25    0.10
  -2  -1  23    0.22    0.07
   3   0 -23    0.40    0.23
  -3   3 -23    0.23    0.12
  -3   0  23    0.99    0.28
  -3   0  23    0.34    0.20
  -3   0  23    0.85    0.38
   3  -3  23    0.34    0.19
   3  -3  23    0.14    0.36
   3  -3  23    0.20    0.15
  -3   0  23    0.26    0.09
  -3   4 -23    0.08    0.13
   4  -1 -23   -0.10    0.25
   4  -1 -23    0.07    0.13
  -3   4 -23    0.06    0.29
  -4   1  23    0.37    0.24
   3  -4  23    0.09    0.22
   3  -4  23   -0.03    0.13
   3  -4  23    0.05    0.32
  -4   1  23    0.01    0.21
   3  -4  23    0.14    0.07
  -4   1  23    0.38    0.20
  -4   1  23   -0.12    0.11
   1   3 -23   -0.06    0.14
   3  -4 -23   -0.23    0.75
  -4   1 -23    0.28    0.76
  -4   1 -23    0.09    0.21
   1   3 -23   -0.06    0.14
  -3   4  23    0.10    0.19
   4  -1  23    0.24    0.14
  -1  -3  23   -0.07    0.20
   4  -1  23    0.03    0.14
  -1  -3  23    0.05    0.08
  -3   4  23    0.20    0.30
  -3   4  23    0.79    0.39
  -4   2 -23    0.13    0.16
   2   2 -23    0.03    0.12
   2   2 -23    0.13    0.14
  -4   2 -23    0.19    0.63
  -2  -2  23    0.04    0.07
   4  -2  23   -0.10    0.14
  -2   4  23   -0.31    0.29
  -2   4  23    0.38    0.44
  -2  -2  23   -0.11    0.20
   4  -2  23    0.25    0.16
  -2   4  23    0.22    0.17
   3   1 -23    0.19    0.22
  -3  -1  23    0.16    0.19
   4  -3  23    0.19    0.14
  -3  -1  23    0.05    0.09
  -1   4  23   -0.20    0.17
  -3  -1  23   -0.05    0.75
  -3  -1  23   -0.05    0.22
   4  -3  23   -0.10    0.18
   0   0 -24   38.83    1.28
   0   0  24   37.01    1.27
   0   0  24   33.60    1.48
   1  -1 -24    0.57    0.13
   0  -1  24    0.27    0.11
   1   0 -24    0.30    0.11
   1  -1  24    0.10    0.10
   1  -1  24    0.29    0.27
  -1   0  24    0.38    0.11
  -1   2 -24   27.84    1.07
  -1   2 -24   27.54    0.99
   2  -1 -24   26.84    1.06
   1  -2  24   26.98    1.37
  -1   3 -24    0.21    0.12
   1  -3  24    0.39    0.28
  -3   2  24    0.43    0.18
  -3   2  24   -0.19    0.41
   1  -3  24    0.10    0.06
   0   2 -24    0.15    0.10
   2  -2 -24    0.06    0.77
   0   2 -24    0.02    0.13
   2  -2 -24    0.20    0.30
   0  -2  24    0.04    0.05
   0  -2  24    0.84    0.37
   1   1 -24   26.79    1.04
   1   1 -24   27.73    0.99
  -1  -1  24   26.13    0.92
  -1  -1  24   27.79    1.13
   2   0 -24    0.43    0.16
  -2   2 -24    0.28    0.19
   2   0 -24    0.22    0.10
  -2   0  24    0.80    0.28
  -2   0  24    0.21    0.37
  -2   3 -24    0.29    0.12
   3  -1 -24    0.26    0.13
  -3   1  24    0.35    0.16
  -3   1  24    0.57    0.22
   2  -3  24   -0.06    0.29
   2  -3  24    0.45    0.16
  -2   4 -24   11.21    0.65
  -2   4 -24   11.63    0.57
   2  -4  24   11.95    0.46
   2  -4  24   11.10    0.63
   2  -4  24   12.06    0.55
  -4   2  24   11.21    0.91
  -4   2  24   11.79    0.61
  -4   2  24   12.39    0.65
   2  -4  24   12.31    0.82
  -1   4 -24    0.52    0.23
  -1   4 -24    0.63    0.16
   4  -3 -24   -0.05    0.78
   1  -4  24    0.78    0.29
   3   1  24    0.91    0.17
   1  -4  24    0.77    0.13
  -4   3  24    1.06    0.26
  -4   3  24    0.81    0.20
  -4   3  24    0.64    0.37
  -4   3  24    0.70    0.40
   1  -4  24    0.97    0.31
   0   3 -24   15.03    0.64
   3  -3 -24   14.22    1.26
   0  -3  24   14.80    0.80
   0  -3  24   15.26    0.63
   3   0  24   14.40    0.63
  -3   3  24   14.77    0.97
  -3   3  24   14.51    0.95
   0  -3  24   14.41    0.56
  -3   3  24   14.94    0.69
   1   2 -24    0.38    0.15
  -3   1 -24    0.95    0.40
   1   2 -24    0.34    0.12
  -1  -2  24    0.22    0.07
  -1  -2  24    0.24    0.22
  -1  -2  24    0.36    0.15
  -2   3  24    0.69    0.42
  -2   3  24    0.44    0.35
   2   1 -24    0.36    0.11
  -2  -1  24    0.24    0.08
   3  -2  24    0.46    0.16
  -2  -1  24    0.19    0.16
   3   0 -24   14.84    0.76
   3   0 -24   14.85    0.65
  -3   3 -24   14.62    0.70
  -3   0  24   16.17    0.80
   3  -3  24   14.55    0.68
   3  -3  24   14.41    0.99
  -3   0  24   15.42    0.72
  -3   0  24   15.21    0.58
  -3   0  24   14.81    0.63
   4  -1 -24    1.26    0.35
  -3   4 -24    0.69    0.17
   4  -1 -24    0.54    0.17
   3  -4  24    0.68    0.38
   3  -4  24    0.60    0.18
  -4   1  24    0.88    0.25
   3  -4  24    0.91    0.23
  -4   1  24    0.79    0.18
  -4   1  24    0.73    0.21
  -4   1  24    0.78    0.27
   1   3 -24    0.67    0.16
   1   3 -24    0.81    0.19
   3  -4 -24    0.63    0.51
  -4   1 -24    0.19    0.78
  -1  -3  24    0.77    0.13
  -3   4  24    0.58    0.39
  -1  -3  24    0.82    0.62
  -3   4  24    0.73    0.22
   4  -1  24    0.80    0.16
  -1  -3  24    0.60    0.26
   4  -1  24    0.86    0.18
  -3   4  24    0.96    0.34
  -4   2 -24   11.23    2.04
   2   2 -24   11.94    0.57
  -4   2 -24   12.04    0.57
  -2   4  24   11.89    0.93
   4  -2  24   11.67    0.55
  -2  -2  24   12.35    0.56
  -2  -2  24   10.63    0.69
  -2   4  24   12.09    0.80
  -2   4  24   11.85    0.57
  -2  -2  24   11.30    0.48
   4  -2  24   11.29    0.57
   3   1 -24    0.91    0.20
   3   1 -24    1.08    0.28
  -4   3 -24    0.46    0.17
   4  -3  24    0.97    0.22
  -3  -1  24    1.14    0.27
  -3  -1  24    0.71    0.14
   4  -3  24    1.00    0.21
  -1   4  24    1.10    0.42
  -3  -1  24    0.53    0.27
  -1   4  24    0.75    0.21
   0   0 -25    0.27    0.20
   0   0 -25    0.44    0.11
   0   0  25    0.27    0.09
   1  -1 -25   21.00    0.98
   1  -1 -25   23.57    0.85
   0   1 -25   23.60    0.87
   1   0 -25   22.23    0.85
  -1   1 -25   22.48    0.87
   1  -1  25   22.71    1.06
   1  -1  25   21.31    0.86
  -1   0  25   23.40    1.01
  -1   2 -25   -0.01    0.09
  -1   2 -25   -0.03    0.15
   1  -2  25   -0.12    0.42
  -1   3 -25   15.97    0.84
   1  -3  25   16.02    0.89
  -3   2  25   17.56    1.04
  -3   2  25   16.01    0.78
   1  -3  25   16.78    0.59
  -3   2  25   16.37    0.74
  -3   2  25   16.97    1.13
   0   2 -25   20.98    0.80
   0   2 -25   20.42    0.85
   0  -2  25   20.50    0.71
   0  -2  25   21.61    1.24
   1   1 -25    0.17    0.09
  -2   1 -25    0.08    0.18
   1   1 -25    0.10    0.13
  -1  -1  25   -0.21    0.35
   2   0 -25   20.80    0.86
   2   0 -25   21.06    0.80
  -2   2 -25   21.06    0.90
  -2   3 -25   16.81    0.74
   3  -1 -25   17.61    0.80
  -3   1  25   17.27    1.25
  -3   1  25   17.53    0.73
   2  -3  25   16.63    0.97
  -3   1  25   15.92    0.78
   2  -3  25   16.82    0.72
  -2   4 -25    0.17    0.13
  -2   4 -25    0.14    0.22
   2  -4  25    0.05    0.07
  -4   2  25   -0.22    0.41
   2  -4  25    0.42    0.31
  -4   2  25    0.06    0.18
  -4   2  25   -0.13    0.22
   2  -4  25   -0.12    0.22
   2  -4  25   -0.09    0.15
   0   3 -25    0.11    0.11
   3  -3 -25    1.27    0.67
  -3   3  25    0.38    0.38
   3   0  25   -0.10    0.19
   0  -3  25    0.08    0.07
  -3   3  25    0.13    0.19
   0  -3  25    0.34    0.24
   0  -3  25    0.07    0.15
  -3   3  25   -0.18    0.38
   1   2 -25   17.18    0.77
   1   2 -25   16.74    0.71
  -1  -2  25   16.79    0.86
   3  -1  25   16.66    0.71
  -1  -2  25   17.11    0.70
  -1  -2  25   16.78    0.61
  -2   3  25   16.14    1.02
  -2   3  25   15.86    1.01
  -3   2 -25   16.38    0.68
   2   1 -25   17.42    0.83
  -2  -1  25   16.64    0.61
  -2  -1  25   17.54    0.72
  -2  -1  25   16.79    0.73
   3  -2  25   16.67    0.71
  -2  -1  25   16.04    0.86
  -1   3  25   16.44    0.98
  -3   3 -25    0.02    0.12
   3   0 -25    0.43    0.23
   3   0 -25    0.14    0.12
  -3   0  25    0.13    0.40
  -3   0  25   -0.08    0.24
   3  -3  25    0.42    0.36
   3  -3  25   -0.03    0.17
  -3   0  25    0.06    0.09
  -3   0  25    0.09    0.14
   3  -3  25    0.17    0.14
  -3   0  25    0.07    0.21
  -4   2 -25    0.00    0.16
  -4   2 -25   -0.25    0.76
   2   2 -25    0.04    0.12
  -2   4  25    0.35    0.44
  -2   4  25   -0.06    0.15
   4  -2  25    0.15    0.16
  -2  -2  25    0.22    0.23
  -2   4  25    0.46    0.34
  -2  -2  25    0.02    0.08
   4  -2  25   -0.05    0.14
  -2  -2  25    0.18    0.17
   0   0 -26   70.66    2.26
   0   0 -26   57.65    2.32
   0   0  26   69.61    2.24
  -1   0 -26   21.45    0.80
   0   1 -26   20.34    0.83
   0  -1  26   23.50    1.20
  -1   1 -26   20.72    0.81
   1   0 -26   20.60    0.80
  -1   2 -26   56.14    1.93
  -1   2 -26   55.35    2.00
  -1   3 -26    8.72    0.44
   1  -3  26    9.39    0.48
  -3   2  26    7.98    0.93
  -3   2  26    9.30    0.81
   1  -3  26    9.11    0.66
  -3   2  26    8.58    0.55
  -3   2  26    9.16    0.51
   1  -3  26    9.28    0.34
   0   2 -26   14.11    0.62
   0   2 -26   13.12    0.56
   0  -2  26   13.32    0.77
   0  -2  26   13.16    0.59
  -2   2  26   14.13    1.07
  -2   2  26   13.18    0.86
   1   1 -26   55.33    1.94
  -2   1 -26   53.90    1.95
   1   1 -26   56.20    1.88
  -1  -1  26   49.50    2.57
   2   0 -26   12.90    0.62
   2   0 -26   13.45    0.55
   2  -2  26   13.02    0.60
   2  -2  26   13.17    0.88
  -2   0  26   13.47    0.62
  -2   0  26   12.84    0.56
  -2   3 -26    9.09    0.44
   3  -1 -26    9.14    0.48
  -3   1  26    9.04    0.49
  -3   1  26    8.90    0.55
   2  -3  26    9.63    0.49
   2  -3  26    8.53    0.73
  -3   1  26    9.68    0.78
   3  -3 -26   35.56    2.28
   0  -3  26   36.03    1.55
  -3   3  26   36.52    1.68
   3   0  26   37.37    1.35
   0  -3  26   37.93    1.36
  -3   3  26   37.33    1.69
   0  -3  26   35.83    1.27
  -3   3  26   37.39    1.41
   1   2 -26    9.06    0.45
   1   2 -26    9.79    0.48
  -1  -2  26   10.19    0.49
  -2   3  26    8.84    0.81
   3  -1  26    9.80    0.50
  -2   3  26    9.67    0.81
  -1  -2  26   10.24    0.64
  -1  -2  26    9.29    0.38
   2   1 -26    9.19    0.45
  -3   2 -26    9.29    0.45
  -2  -1  26    9.97    0.64
   3  -2  26    9.61    0.49
  -2  -1  26    9.29    0.49
  -2  -1  26    9.13    0.37
   3  -2  26    8.89    0.46
  -1   3  26    9.63    0.74
  -3   3 -26   34.74    1.33
   3   0 -26   35.90    1.47
  -3   0  26   37.47    1.26
  -3   0  26   37.72    1.42
   3  -3  26   35.60    1.35
   3  -3  26   34.15    1.34
   3  -3  26   33.39    1.68
  -3   0  26   36.73    1.33
  -3   0  26   36.93    1.49
   0   0 -27    0.70    0.24
  -1   0 -27   75.02    2.52
   0   1 -27   74.38    2.55
   1  -1 -27   71.50    2.57
   1  -1 -27   73.58    2.53
   1   0 -27   73.60    2.30
  -1   1 -27   57.85    2.42
  -1   2 -27   -0.03    0.17
  -1   2 -27    0.06    0.10
   1  -2  27    0.26    0.17
   1  -2  27    0.28    0.15
   1  -2  27    0.31    0.32
  -2   1  27    0.06    0.30
  -2   1  27   -0.01    0.13
  -1   3 -27   48.01    1.71
  -3   2  27   47.05    1.76
   1  -3  27   46.69    1.94
  -3   2  27   47.48    1.79
   1  -3  27   48.18    1.72
  -3   2  27   47.84    2.01
   0   2 -27   58.35    1.99
  -2   2  27   55.80    2.37
  -2   2  27   57.51    2.27
   0  -2  27   56.39    2.22
   0  -2  27   57.20    2.01
  -2   2  27   55.82    2.02
   1   1 -27    0.14    0.16
   1   1 -27    0.04    0.10
  -1  -1  27    0.40    0.17
  -1   2  27    0.09    0.31
  -1  -1  27    0.01    0.29
   2  -1  27   -0.03    0.15
  -2   2 -27   61.66    2.14
   2   0 -27   56.36    1.99
  -2   2 -27   55.78    2.04
   2   0 -27   55.63    2.11
   2  -2  27   56.26    2.33
  -2   0  27   55.11    1.99
   2  -2  27   56.63    2.03
  -2   0  27   56.65    2.05
   3  -1 -27   49.02    1.80
  -2   3 -27   49.31    1.76
  -3   1  27   50.36    1.89
  -3   1  27   49.49    1.99
   2  -3  27   49.73    2.08
  -3   1  27   49.68    1.79
  -3   1  27   47.56    1.85
   2  -3  27   48.75    1.79
   0   3 -27    0.00    0.11
   3  -3 -27    0.67    0.78
  -3   3  27    0.10    0.19
  -3   3  27    0.28    0.42
   0  -3  27   -0.14    0.24
   3   0  27    0.15    0.15
  -3   3  27    0.99    0.40
   0  -3  27    0.11    0.07
   0  -3  27   -0.09    0.15
   1   2 -27   48.30    1.76
   1   2 -27   49.26    1.78
  -1  -2  27   50.20    1.78
  -2   3  27   50.56    2.08
  -1  -2  27   48.63    1.95
  -2   3  27   48.95    2.07
  -1  -2  27   50.05    1.67
   3  -1  27   48.10    1.78
  -3   2 -27   48.86    1.74
   2   1 -27   49.21    1.77
  -2  -1  27   50.38    1.67
  -1   3  27   51.17    1.98
  -2  -1  27   47.74    1.79
  -2  -1  27   47.66    1.95
  -1   3  27   49.71    2.15
   3  -2  27   49.15    1.79
   3   0 -27    0.22    0.14
  -3   3 -27    0.14    0.16
   3  -3  27    0.09    0.36
  -3   0  27    0.04    0.15
   3  -3  27   -0.04    0.14
   3  -3  27    0.25    0.17
  -3   0  27    0.00    0.24
  -3   0  27    0.03    0.21
  -3   0  27    0.14    0.10
   1  -1 -28  131.76    4.43
   0  -1  28  129.62    4.64
  -1   1  28  132.08    4.64
  -1   1 -28  130.57    4.65
   1   0 -28  146.84    4.75
   1  -1  28  135.89    4.75
  -1   2 -28    6.20    0.31
  -1   2 -28    5.41    0.40
  -2   1  28    4.96    0.41
   1  -2  28    5.29    0.61
   1  -2  28    5.35    0.41
  -2   1  28    6.32    0.35
   1  -2  28    6.11    0.37
  -2   1  28    4.98    0.88
  -1   3 -28   70.35    2.56
   1  -3  28   73.79    2.56
  -3   2  28   75.26    2.63
  -3   2  28   71.59    2.84
   1  -3  28   73.84    2.82
  -3   2  28   72.83    2.59
   0   2 -28   98.33    3.37
   0  -2  28   95.11    3.53
   0  -2  28   97.43    3.31
  -2   2  28   95.66    3.69
  -2   2  28   93.43    3.54
   2   0  28   95.65    3.32
  -2   2  28   96.14    3.31
   0  -2  28   96.79    3.41
   1   1 -28    5.69    0.31
  -1   2  28    5.33    0.55
  -1  -1  28    5.53    0.56
  -1  -1  28    5.26    0.36
   2  -1  28    5.52    0.37
  -1  -1  28    6.66    0.56
   2  -1  28    5.92    0.83
  -2   2 -28   94.16    3.24
  -2   0  28   96.61    3.27
   0   2  28   95.60    3.38
  -2   0  28   94.86    3.32
   2  -2  28   96.61    3.31
   2  -2  28   96.57    3.63
  -2   0  28   93.69    3.44
  -3   1  28   78.13    2.76
   2  -3  28   76.56    2.97
  -3   1  28   75.60    2.86
  -3   1  28   71.90    2.71
   2  -3  28   75.76    2.66
  -3   1  28   75.56    2.66
   0   3 -28    5.66    0.36
   3  -3 -28    7.34    1.36
   0  -3  28    6.17    0.26
  -3   3  28    4.71    0.72
   3   0  28    6.31    0.40
  -3   3  28    5.79    0.43
   0  -3  28    5.89    0.38
   0  -3  28    5.81    0.58
  -3   3  28    6.17    0.77
   1   2 -28   72.68    2.62
   1   2 -28   76.40    2.64
  -1  -2  28   74.40    2.83
   3  -1  28   74.58    2.60
  -1  -2  28   76.66    2.63
  -2   3  28   76.33    2.64
  -2   3  28   78.44    2.94
  -2   3  28   77.35    2.95
  -1  -2  28   70.10    2.51
   3  -1  28   75.90    2.64
   2   1 -28   74.67    2.66
  -3   2 -28   77.37    2.66
   3  -2  28   76.43    2.64
  -2  -1  28   75.36    2.68
  -1   3  28   75.20    2.94
   3  -2  28   77.41    2.68
  -1   3  28   77.42    2.87
  -2  -1  28   75.57    2.86
  -3   3 -28    4.54    0.34
   3   0 -28    5.78    0.55
   3   0 -28    5.56    0.37
   3  -3  28    5.00    0.72
   3  -3  28    4.82    0.37
   3  -3  28    5.68    0.37
  -3   0  28    6.11    0.53
  -3   0  28    5.67    0.43
  -3   0  28    6.51    0.39
   0   0 -29    0.15    0.13
   0   0  29    0.11    0.20
   1  -1 -29   47.18    1.88
   0   1 -29   57.84    1.89
   1   0  29   52.31    1.89
   0  -1  29   49.55    2.12
   0  -1  29   49.56    2.09
  -1   1  29   50.87    1.82
   0  -1  29   51.75    1.84
  -1   1  29   51.58    1.96
   1   0 -29   53.12    1.86
  -1   1 -29   52.61    1.88
   0   1  29   50.85    1.94
  -1   0  29   51.30    1.83
   1  -1  29   53.19    1.90
  -1   0  29   51.82    1.88
   1  -1  29   53.01    2.26
   1  -1  29   51.23    1.86
  -1   2 -29    0.36    0.26
  -1   2 -29    0.19    0.11
  -2   1  29    0.01    0.22
  -2   1  29    0.47    0.31
  -2   1  29    0.25    0.14
   1  -2  29    0.29    0.15
   1   1  29    0.28    0.22
   1  -2  29   -0.04    0.16
   1  -2  29    0.09    0.31
  -1   3 -29   33.54    1.27
   1  -3  29   34.05    1.28
  -3   2  29   34.11    1.31
  -3   2  29   34.06    1.36
   1  -3  29   34.64    1.55
  -3   2  29   31.23    1.57
   0   2 -29   41.41    1.48
  -2   2  29   41.24    1.74
   0  -2  29   41.43    1.53
   0  -2  29   40.13    1.50
   2   0  29   40.00    1.52
  -2   2  29   40.31    1.51
   0  -2  29   41.68    1.75
   1   1 -29    0.31    0.19
  -1   2  29   -0.13    0.30
   2  -1  29    0.01    0.48
  -1  -1  29    0.27    0.29
  -1  -1  29   -0.08    0.15
  -1  -1  29    1.16    0.26
   2  -1  29    0.06    0.16
   2   0 -29   40.45    1.47
  -2   2 -29   40.38    1.44
  -2   0  29   40.06    1.67
  -2   0  29   40.15    1.53
  -2   0  29   41.42    1.60
   2  -2  29   39.88    1.51
   2  -2  29   39.40    1.85
   0   2  29   42.12    1.60
  -2   0  29   41.18    1.47
   3  -1 -29   35.01    1.88
  -2   3 -29   34.07    1.28
  -3   1  29   36.21    1.43
  -3   1  29   33.36    1.37
  -3   1  29   34.11    1.52
  -3   1  29   33.86    1.30
   2  -3  29   32.68    1.61
   2  -3  29   34.24    1.31
   1   2 -29   33.72    1.30
   1   2 -29   34.81    1.32
  -2   3  29   34.58    1.64
  -1  -2  29   35.52    1.32
   3  -1  29   34.60    1.33
  -2   3  29   34.94    1.34
  -1  -2  29   34.98    1.54
   3  -1  29   35.95    1.29
  -2   3  29   35.67    1.68
  -3   2 -29   34.64    1.30
   2   1 -29   35.14    1.33
  -2  -1  29   35.89    1.37
  -2  -1  29   35.79    1.55
  -1   3  29   36.31    1.69
   3  -2  29   35.93    1.32
   3  -2  29   34.16    1.34
  -1   3  29   36.64    1.56
   0   0  30    3.55    0.31
   0   0  30    3.40    0.37
   0  -1  30    2.49    0.58
   1   0  30    2.70    0.35
  -1   1  30    2.66    0.42
  -1   1  30    2.54    0.32
   0  -1  30    2.95    0.27
   0  -1  30    2.44    0.34
  -1   1  30    2.81    0.26
  -1   0  30    2.91    0.24
  -1   0  30    2.86    0.30
  -1   0  30    2.11    0.39
   1  -1  30    2.65    0.32
   1  -1  30    2.51    0.66
   1  -1  30    2.14    0.28
   0   1  30    2.58    0.39
  -1   2 -30    2.77    0.23
  -2   1  30    2.69    0.35
   1  -2  30    2.83    0.56
  -2   1  30    3.43    0.49
   1  -2  30    2.67    0.30
   1   1  30    2.39    0.37
  -2   1  30    2.49    0.27
   0   2 -30    0.96    0.22
   0  -2  30    1.37    0.23
   0  -2  30    1.03    0.23
   2   0  30    1.28    0.29
  -2   2  30    1.48    0.41
  -2   2  30    1.34    0.28
   0  -2  30    1.14    0.36
   1   1 -30    2.40    0.23
  -1  -1  30    2.21    0.36
  -1   2  30    3.29    0.48
  -1  -1  30    1.82    0.39
  -1  -1  30    2.45    0.27
   2  -1  30    3.48    0.81
   2  -1  30    2.75    0.29
   2   0 -30    1.31    0.41
  -2   2 -30    1.19    0.20
   2   0 -30    1.44    0.21
   0   2  30    1.43    0.33
   2  -2  30    1.27    0.26
  -2   0  30    1.76    0.28
  -2   0  30    1.23    0.35
  -2   0  30    1.50    0.23
  -2   0  30    1.55    0.33
   2  -2  30    1.10    0.41
   0   0  31   -0.03    0.17
   0   0  31    0.23    0.21
   0   1 -31   22.14    0.82
  -1   1  31   21.15    0.84
   1   0  31   22.83    1.41
   1   0  31   21.62    0.93
   0  -1  31   21.15    0.87
   0  -1  31   23.13    1.20
   0  -1  31   20.92    0.93
  -1   1  31   20.38    0.89
  -1   1  31   20.12    0.99
   1   0 -31   21.95    0.82
   1  -1  31   20.54    0.91
   0   1  31   21.87    0.96
  -1   0  31   20.79    0.89
  -1   0  31   21.20    0.96
   1  -1  31   21.63    1.29
  -1   2 -31    0.29    0.12
   2  -1 -31   -0.02    0.15
   1  -2  31    0.06    0.34
   1  -2  31   -0.04    0.15
   1   1  31    0.48    0.24
  -2   1  31   -0.21    0.21
  -2   1  31    0.00    0.15
  -2   1  31    0.22    0.28
   0   2 -31   18.78    0.77
   0  -2  31   20.38    1.09
   0  -2  31   18.69    0.80
  -2   2  31   17.95    1.04
   0  -2  31   19.68    0.84
  -2   2  31   18.41    0.87
  -2   2  31   19.09    0.80
   2   0  31   19.43    0.83
   1   1 -31    0.11    0.14
   2  -1  31    0.32    0.51
  -1  -1  31    0.43    0.22
  -1  -1  31    0.13    0.16
  -1   2  31    0.41    0.29
  -1  -1  31    0.73    0.35
   2  -1  31   -0.04    0.16
  -1   2  31    0.28    0.17
  -2   2 -31   20.11    0.79
   2   0 -31   20.42    0.83
  -2   0  31   20.10    0.89
  -2   0  31   20.54    0.97
  -2   0  31   20.68    0.83
   0   2  31   20.13    0.97
   2  -2  31   20.34    0.87
   2  -2  31   19.69    1.24
  -2   0  31   20.51    1.06
   0   0  32   11.23    0.55
   0   0  32   11.35    1.01
   0   0  32   11.00    0.61
   0   1 -32    0.47    0.15
   0  -1  32    0.53    0.40
  -1   1  32    0.74    0.22
   1   0  32    0.95    0.23
   0  -1  32    0.59    0.22
   1   0  32    0.71    0.58
  -1   1  32    0.10    0.24
   0  -1  32    0.47    0.17
  -1   1  32    0.59    0.16
  -1   1 -32    0.61    0.17
  -1   0  32    0.73    0.25
  -1   0  32    0.57    0.40
   1  -1  32    0.14    0.18
  -1   0  32    0.45    0.19
   0   1  32    0.53    0.25
   1  -1  32    1.03    0.52
  -1   2 -32    6.85    0.54
   2  -1 -32    8.34    0.45
  -2   1  32    7.83    0.52
   1   1  32    8.99    0.55
  -2   1  32    7.41    0.64
   1  -2  32    8.24    0.79
   1  -2  32    8.78    0.47
  -2   1  32    7.86    0.45
   1   1 -32    8.37    0.43
  -1  -1  32    9.72    0.77
  -1   2  32    8.08    0.46
   2  -1  32    7.98    0.47
  -1  -1  32    8.30    0.47
   2  -1  32    8.94    1.01
  -1  -1  32    7.88    0.54
  -1   2  32    8.66    0.66
   0   0  33    0.28    0.51
   0   0  33    0.30    0.22
   0   0  33    0.04    0.16
   0   1 -33    2.37    0.24
  -1   1  33    2.45    0.28
   1   0  33    3.59    0.95
  -1   1  33    2.96    0.34
   1   0  33    2.87    0.35
   0  -1  33    2.86    0.36
  -1   1  33    2.80    0.43
   0  -1  33    2.75    0.29
   0  -1  33    2.65    0.65
   1   0 -33    2.81    0.24
  -1   1 -33    2.50    0.23
   1  -1  33    3.17    0.77
  -1   0  33    2.53    0.64
  -1   0  33    2.39    0.38
  -1   0  33    2.19    0.30
   1  -1  33    2.70    0.32
   0   1  33    3.12    0.40
   0   0  34    3.38    0.38
   0   0  34    2.64    0.32
   0   0  34    3.36    0.84
   0   0   0    0.00    0.00
;
_shelx_hkl_checksum              37612
loop_
_space_group_symop_operation_xyz
'x, y, z'
'-y, x-y, z'
'-x+y, -x, z'
'-x, -y, z+1/2'
'y, -x+y, z+1/2'
'x-y, x, z+1/2'
'y, x, -z'
'x-y, -y, -z'
'-x, -x+y, -z'
'-y, -x, -z+1/2'
'-x+y, y, -z+1/2'
'x, x-y, -z+1/2'
'-x, -y, -z'
'y, -x+y, -z'
'x-y, x, -z'
'x, y, -z-1/2'
'-y, x-y, -z-1/2'
'-x+y, -x, -z-1/2'
'-y, -x, z'
'-x+y, y, z'
'x, x-y, z'
'y, x, z-1/2'
'x-y, -y, z-1/2'
'-x, -x+y, z-1/2'
loop_
_atom_site_label
_atom_site_type_symbol
_atom_site_fract_x
_atom_site_fract_y
_atom_site_fract_z
_atom_site_U_iso_or_equiv
_atom_site_adp_type
_atom_site_occupancy
_atom_site_site_symmetry_order
_atom_site_calc_flag
_atom_site_refinement_flags_posn
_atom_site_refinement_flags_adp
_atom_site_refinement_flags_occupancy
Sb1 Sb 0.040(3) 0.0201(13) 0.250000 0.0159(13) Uani 0.3333 4 d S T P
Sb2 Sb 0.333333 0.666667 0.08937(2) 0.00357(17) Uani 1 6 d S T P
Cu1 Cu 0.666667 0.333333 0.35942(5) 0.0143(3) Uani 1 6 d S T P
Cu2 Cu 0.333333 0.666667 0.19687(4) 0.0111(2) Uani 1 6 d S T P
Cu3 Cu 0.000000 0.000000 0.13953(4) 0.0047(2) Uani 1 6 d S T P
Cu4 Cu 0.666667 0.333333 0.250000 0.0066(12) Uani 0.343(8) 12 d S T P
Na1 Na 0.000000 0.000000 0.000000 0.0094(8) Uani 1 12 d S T P
loop_
_atom_site_aniso_label
_atom_site_aniso_U_11
_atom_site_aniso_U_22
_atom_site_aniso_U_33
_atom_site_aniso_U_23
_atom_site_aniso_U_13
_atom_site_aniso_U_12
Sb1 0.040(5) 0.0134(8) 0.0029(3) 0.000 0.000 0.020(2)
Sb2 0.00417(19) 0.00417(19) 0.0024(2) 0.000 0.000 0.00208(10)
Cu1 0.0037(3) 0.0037(3) 0.0357(7) 0.000 0.000 0.00183(15)
Cu2 0.0153(3) 0.0153(3) 0.0027(4) 0.000 0.000 0.00767(17)
Cu3 0.0039(3) 0.0039(3) 0.0063(4) 0.000 0.000 0.00197(13)
Cu4 0.0055(14) 0.0055(14) 0.0086(18) 0.000 0.000 0.0028(7)
Na1 0.0108(12) 0.0108(12) 0.0067(17) 0.000 0.000 0.0054(6)
loop_
_atom_type_symbol
_atom_type_description
_atom_type_scat_dispersion_real
_atom_type_scat_dispersion_imag
_atom_type_scat_source
Na Na 0.0362 0.0249 'International Tables Vol C Tables 4.2.6.8 and 6.1.1.4'
Cu Cu 0.3201 1.2651 'International Tables Vol C Tables 4.2.6.8 and 6.1.1.4'
Sb Sb -0.5866 1.5461 'International Tables Vol C Tables 4.2.6.8 and 6.1.1.4'
loop_
_geom_angle_atom_site_label_1
_geom_angle_atom_site_label_2
_geom_angle_atom_site_label_3
_geom_angle
_geom_angle_site_symmetry_1
_geom_angle_site_symmetry_3
Sb1 Sb1 Sb1 60.0 3 2
Sb1 Sb1 Cu4 150.004(2) 3 .
Sb1 Sb1 Cu4 149.998(4) 2 .
Sb1 Sb1 Cu4 27.11(18) 3 1_445
Sb1 Sb1 Cu4 87.10(18) 2 1_445
Cu4 Sb1 Cu4 122.90(18) . 1_445
Sb1 Sb1 Cu4 87.10(17) 3 1_455
Sb1 Sb1 Cu4 27.10(17) 2 1_455
Cu4 Sb1 Cu4 122.90(18) . 1_455
Cu4 Sb1 Cu4 114.2(4) 1_445 1_455
Sb1 Sb1 Cu3 87.27(17) 3 .
Sb1 Sb1 Cu3 87.27(17) 2 .
Cu4 Sb1 Cu3 93.2(2) . .
Cu4 Sb1 Cu3 88.29(12) 1_445 .
Cu4 Sb1 Cu3 88.29(11) 1_455 .
Sb1 Sb1 Cu3 87.27(17) 3 16_556
Sb1 Sb1 Cu3 87.27(17) 2 16_556
Cu4 Sb1 Cu3 93.2(2) . 16_556
Cu4 Sb1 Cu3 88.29(12) 1_445 16_556
Cu4 Sb1 Cu3 88.29(11) 1_455 16_556
Cu3 Sb1 Cu3 173.7(4) . 16_556
Sb1 Sb1 Cu2 137.50(16) 3 16_556
Sb1 Sb1 Cu2 87.29(17) 2 16_556
Cu4 Sb1 Cu2 66.52(18) . 16_556
Cu4 Sb1 Cu2 151.05(11) 1_445 16_556
Cu4 Sb1 Cu2 63.749(9) 1_455 16_556
Cu3 Sb1 Cu2 119.77(12) . 16_556
Cu3 Sb1 Cu2 63.09(4) 16_556 16_556
Sb1 Sb1 Cu2 87.30(17) 3 1_545
Sb1 Sb1 Cu2 137.50(17) 2 1_545
Cu4 Sb1 Cu2 66.52(18) . 1_545
Cu4 Sb1 Cu2 63.749(9) 1_445 1_545
Cu4 Sb1 Cu2 151.05(11) 1_455 1_545
Cu3 Sb1 Cu2 63.09(4) . 1_545
Cu3 Sb1 Cu2 119.77(12) 16_556 1_545
Cu2 Sb1 Cu2 133.0(4) 16_556 1_545
Sb1 Sb1 Cu2 87.30(17) 3 16_546
Sb1 Sb1 Cu2 137.50(17) 2 16_546
Cu4 Sb1 Cu2 66.52(18) . 16_546
Cu4 Sb1 Cu2 63.749(9) 1_445 16_546
Cu4 Sb1 Cu2 151.05(11) 1_455 16_546
Cu3 Sb1 Cu2 119.77(12) . 16_546
Cu3 Sb1 Cu2 63.09(4) 16_556 16_546
Cu2 Sb1 Cu2 103.3(2) 16_556 16_546
Cu2 Sb1 Cu2 56.75(9) 1_545 16_546
Sb1 Sb1 Cu2 137.49(16) 3 .
Sb1 Sb1 Cu2 87.29(17) 2 .
Cu4 Sb1 Cu2 66.52(18) . .
Cu4 Sb1 Cu2 151.05(11) 1_445 .
Cu4 Sb1 Cu2 63.749(9) 1_455 .
Cu3 Sb1 Cu2 63.09(4) . .
Cu3 Sb1 Cu2 119.77(12) 16_556 .
Cu2 Sb1 Cu2 56.76(9) 16_556 .
Cu2 Sb1 Cu2 103.3(2) 1_545 .
Cu2 Sb1 Cu2 133.0(4) 16_546 .
Sb1 Sb1 Cu2 39.09(6) 3 1_445
Sb1 Sb1 Cu2 39.09(5) 2 1_445
Cu4 Sb1 Cu2 153.67(8) . 1_445
Cu4 Sb1 Cu2 60.87(17) 1_445 1_445
Cu4 Sb1 Cu2 60.87(17) 1_455 1_445
Cu3 Sb1 Cu2 60.51(12) . 1_445
Cu3 Sb1 Cu2 113.2(3) 16_556 1_445
Cu2 Sb1 Cu2 124.60(18) 16_556 1_445
Cu2 Sb1 Cu2 98.41(12) 1_545 1_445
Cu2 Sb1 Cu2 124.60(18) 16_546 1_445
Cu2 Sb1 Cu2 98.41(12) . 1_445
Cu2 Sb2 Cu3 63.649(18) . 1_565
Cu2 Sb2 Cu3 63.649(18) . 1_665
Cu3 Sb2 Cu3 101.80(2) 1_565 1_665
Cu2 Sb2 Cu3 63.648(18) . .
Cu3 Sb2 Cu3 101.80(2) 1_565 .
Cu3 Sb2 Cu3 101.80(2) 1_665 .
Cu2 Sb2 Cu1 63.17(2) . 16_556
Cu3 Sb2 Cu1 126.82(3) 1_565 16_556
Cu3 Sb2 Cu1 53.120(8) 1_665 16_556
Cu3 Sb2 Cu1 53.120(8) . 16_556
Cu2 Sb2 Cu1 63.17(2) . 16_566
Cu3 Sb2 Cu1 53.120(8) 1_565 16_566
Cu3 Sb2 Cu1 53.121(8) 1_665 16_566
Cu3 Sb2 Cu1 126.82(3) . 16_566
Cu1 Sb2 Cu1 101.22(3) 16_556 16_566
Cu2 Sb2 Cu1 63.17(2) . 16_456
Cu3 Sb2 Cu1 53.120(8) 1_565 16_456
Cu3 Sb2 Cu1 126.82(3) 1_665 16_456
Cu3 Sb2 Cu1 53.120(8) . 16_456
Cu1 Sb2 Cu1 101.22(3) 16_556 16_456
Cu1 Sb2 Cu1 101.22(3) 16_566 16_456
Cu2 Sb2 Na1 131.429(6) . .
Cu3 Sb2 Na1 129.023(10) 1_565 .
Cu3 Sb2 Na1 129.023(10) 1_665 .
Cu3 Sb2 Na1 67.781(17) . .
Cu1 Sb2 Na1 87.941(18) 16_556 .
Cu1 Sb2 Na1 165.40(3) 16_566 .
Cu1 Sb2 Na1 87.941(18) 16_456 .
Cu2 Sb2 Na1 131.429(6) . 1_565
Cu3 Sb2 Na1 67.780(17) 1_565 1_565
Cu3 Sb2 Na1 129.023(10) 1_665 1_565
Cu3 Sb2 Na1 129.024(10) . 1_565
Cu1 Sb2 Na1 165.40(3) 16_556 1_565
Cu1 Sb2 Na1 87.941(18) 16_566 1_565
Cu1 Sb2 Na1 87.941(18) 16_456 1_565
Na1 Sb2 Na1 80.981(9) . 1_565
Cu2 Sb2 Na1 131.429(6) . 1_665
Cu3 Sb2 Na1 129.023(10) 1_565 1_665
Cu3 Sb2 Na1 67.780(17) 1_665 1_665
Cu3 Sb2 Na1 129.024(10) . 1_665
Cu1 Sb2 Na1 87.941(18) 16_556 1_665
Cu1 Sb2 Na1 87.941(18) 16_566 1_665
Cu1 Sb2 Na1 165.40(3) 16_456 1_665
Na1 Sb2 Na1 80.981(9) . 1_665
Na1 Sb2 Na1 80.981(9) 1_565 1_665
Cu3 Cu1 Cu3 119.989(2) 16_656 16_666
Cu3 Cu1 Cu3 119.989(1) 16_656 16_556
Cu3 Cu1 Cu3 119.989(1) 16_666 16_556
Cu3 Cu1 Cu4 90.59(4) 16_656 .
Cu3 Cu1 Cu4 90.59(4) 16_666 .
Cu3 Cu1 Cu4 90.59(4) 16_556 .
Cu3 Cu1 Sb2 152.58(6) 16_656 16_556
Cu3 Cu1 Sb2 63.201(14) 16_666 16_556
Cu3 Cu1 Sb2 63.201(14) 16_556 16_556
Cu4 Cu1 Sb2 116.82(2) . 16_556
Cu3 Cu1 Sb2 63.201(14) 16_656 16_656
Cu3 Cu1 Sb2 63.202(14) 16_666 16_656
Cu3 Cu1 Sb2 152.58(6) 16_556 16_656
Cu4 Cu1 Sb2 116.82(2) . 16_656
Sb2 Cu1 Sb2 101.22(3) 16_556 16_656
Cu3 Cu1 Sb2 63.201(14) 16_656 16_546
Cu3 Cu1 Sb2 152.58(6) 16_666 16_546
Cu3 Cu1 Sb2 63.202(14) 16_556 16_546
Cu4 Cu1 Sb2 116.82(2) . 16_546
Sb2 Cu1 Sb2 101.22(3) 16_556 16_546
Sb2 Cu1 Sb2 101.22(3) 16_656 16_546
Cu3 Cu1 Cu2 151.53(6) 16_656 16_556
Cu3 Cu1 Cu2 64.409(16) 16_666 16_556
Cu3 Cu1 Cu2 64.409(16) 16_556 16_556
Cu4 Cu1 Cu2 60.93(3) . 16_556
Sb2 Cu1 Cu2 55.893(17) 16_556 16_556
Sb2 Cu1 Cu2 127.535(5) 16_656 16_556
Sb2 Cu1 Cu2 127.535(5) 16_546 16_556
Cu3 Cu1 Cu2 64.408(16) 16_656 16_546
Cu3 Cu1 Cu2 151.53(6) 16_666 16_546
Cu3 Cu1 Cu2 64.409(16) 16_556 16_546
Cu4 Cu1 Cu2 60.93(3) . 16_546
Sb2 Cu1 Cu2 127.535(5) 16_556 16_546
Sb2 Cu1 Cu2 127.534(5) 16_656 16_546
Sb2 Cu1 Cu2 55.893(17) 16_546 16_546
Cu2 Cu1 Cu2 98.39(3) 16_556 16_546
Cu3 Cu1 Cu2 64.408(16) 16_656 16_656
Cu3 Cu1 Cu2 64.409(16) 16_666 16_656
Cu3 Cu1 Cu2 151.53(6) 16_556 16_656
Cu4 Cu1 Cu2 60.93(3) . 16_656
Sb2 Cu1 Cu2 127.535(5) 16_556 16_656
Sb2 Cu1 Cu2 55.893(17) 16_656 16_656
Sb2 Cu1 Cu2 127.534(5) 16_546 16_656
Cu2 Cu1 Cu2 98.39(3) 16_556 16_656
Cu2 Cu1 Cu2 98.39(3) 16_546 16_656
Cu2 Cu2 Sb2 180.0 16_556 .
Cu2 Cu2 Sb1 61.62(5) 16_556 3_665
Sb2 Cu2 Sb1 118.38(4) . 3_665
Cu2 Cu2 Sb1 61.62(5) 16_556 2_665
Sb2 Cu2 Sb1 118.38(5) . 2_665
Sb1 Cu2 Sb1 5.4(3) 3_665 2_665
Cu2 Cu2 Sb1 61.62(5) 16_556 2
Sb2 Cu2 Sb1 118.38(5) . 2
Sb1 Cu2 Sb1 99.27(6) 3_665 2
Sb1 Cu2 Sb1 103.3(2) 2_665 2
Cu2 Cu2 Sb1 61.62(4) 16_556 .
Sb2 Cu2 Sb1 118.38(4) . .
Sb1 Cu2 Sb1 95.0(3) 3_665 .
Sb1 Cu2 Sb1 99.27(6) 2_665 .
Sb1 Cu2 Sb1 5.4(3) 2 .
Cu2 Cu2 Sb1 61.62(5) 16_556 1_565
Sb2 Cu2 Sb1 118.38(5) . 1_565
Sb1 Cu2 Sb1 99.27(6) 3_665 1_565
Sb1 Cu2 Sb1 95.0(3) 2_665 1_565
Sb1 Cu2 Sb1 99.27(6) 2 1_565
Sb1 Cu2 Sb1 103.3(2) . 1_565
Cu2 Cu2 Sb1 61.62(5) 16_556 3_565
Sb2 Cu2 Sb1 118.38(5) . 3_565
Sb1 Cu2 Sb1 103.3(2) 3_665 3_565
Sb1 Cu2 Sb1 99.27(6) 2_665 3_565
Sb1 Cu2 Sb1 95.0(3) 2 3_565
Sb1 Cu2 Sb1 99.27(6) . 3_565
Sb1 Cu2 Sb1 5.4(3) 1_565 3_565
Cu2 Cu2 Cu4 62.313(16) 16_556 .
Sb2 Cu2 Cu4 117.686(16) . .
Sb1 Cu2 Cu4 49.76(18) 3_665 .
Sb1 Cu2 Cu4 55.00(16) 2_665 .
Sb1 Cu2 Cu4 55.00(16) 2 .
Sb1 Cu2 Cu4 49.76(18) . .
Sb1 Cu2 Cu4 123.86(6) 1_565 .
Sb1 Cu2 Cu4 123.86(6) 3_565 .
Cu2 Cu2 Cu4 62.314(16) 16_556 1_565
Sb2 Cu2 Cu4 117.686(16) . 1_565
Sb1 Cu2 Cu4 55.00(16) 3_665 1_565
Sb1 Cu2 Cu4 49.76(18) 2_665 1_565
Sb1 Cu2 Cu4 123.86(6) 2 1_565
Sb1 Cu2 Cu4 123.86(6) . 1_565
Sb1 Cu2 Cu4 49.76(18) 1_565 1_565
Sb1 Cu2 Cu4 55.00(16) 3_565 1_565
Cu4 Cu2 Cu4 100.15(2) . 1_565
Cu2 Cu2 Cu4 62.314(16) 16_556 1_455
Sb2 Cu2 Cu4 117.686(16) . 1_455
Sb1 Cu2 Cu4 123.86(6) 3_665 1_455
Sb1 Cu2 Cu4 123.86(6) 2_665 1_455
Sb1 Cu2 Cu4 49.76(18) 2 1_455
Sb1 Cu2 Cu4 55.00(16) . 1_455
Sb1 Cu2 Cu4 55.00(16) 1_565 1_455
Sb1 Cu2 Cu4 49.76(18) 3_565 1_455
Cu4 Cu2 Cu4 100.15(2) . 1_455
Cu4 Cu2 Cu4 100.15(2) 1_565 1_455
Cu2 Cu2 Cu1 119.07(3) 16_556 16_556
Sb2 Cu2 Cu1 60.93(3) . 16_556
Sb1 Cu2 Cu1 79.12(10) 3_665 16_556
Sb1 Cu2 Cu1 83.26(16) 2_665 16_556
Sb1 Cu2 Cu1 83.26(16) 2 16_556
Sb1 Cu2 Cu1 79.12(10) . 16_556
Sb1 Cu2 Cu1 177.22(16) 1_565 16_556
Sb1 Cu2 Cu1 177.22(16) 3_565 16_556
Cu4 Cu2 Cu1 56.75(2) . 16_556
Cu4 Cu2 Cu1 127.787(6) 1_565 16_556
Cu4 Cu2 Cu1 127.787(6) 1_455 16_556
Cu1 Cu3 Cu1 119.990(1) 16_556 16_446
Cu1 Cu3 Cu1 119.989(1) 16_556 16_456
Cu1 Cu3 Cu1 119.989(1) 16_446 16_456
Cu1 Cu3 Sb1 90.99(10) 16_556 3
Cu1 Cu3 Sb1 86.2(2) 16_446 3
Cu1 Cu3 Sb1 90.99(10) 16_456 3
Cu1 Cu3 Sb1 86.2(2) 16_556 .
Cu1 Cu3 Sb1 90.99(11) 16_446 .
Cu1 Cu3 Sb1 90.99(10) 16_456 .
Sb1 Cu3 Sb1 5.5(3) 3 .
Cu1 Cu3 Sb1 90.99(10) 16_556 2
Cu1 Cu3 Sb1 90.99(10) 16_446 2
Cu1 Cu3 Sb1 86.2(2) 16_456 2
Sb1 Cu3 Sb1 5.5(3) 3 2
Sb1 Cu3 Sb1 5.5(3) . 2
Cu1 Cu3 Sb2 154.24(5) 16_556 1_445
Cu1 Cu3 Sb2 63.676(16) 16_446 1_445
Cu1 Cu3 Sb2 63.677(16) 16_456 1_445
Sb1 Cu3 Sb2 114.74(11) 3 1_445
Sb1 Cu3 Sb2 119.5(2) . 1_445
Sb1 Cu3 Sb2 114.74(11) 2 1_445
Cu1 Cu3 Sb2 63.677(16) 16_556 1_545
Cu1 Cu3 Sb2 63.677(16) 16_446 1_545
Cu1 Cu3 Sb2 154.24(5) 16_456 1_545
Sb1 Cu3 Sb2 114.74(10) 3 1_545
Sb1 Cu3 Sb2 114.74(10) . 1_545
Sb1 Cu3 Sb2 119.5(2) 2 1_545
Sb2 Cu3 Sb2 101.80(2) 1_445 1_545
Cu1 Cu3 Sb2 63.677(16) 16_556 .
Cu1 Cu3 Sb2 154.24(5) 16_446 .
Cu1 Cu3 Sb2 63.678(16) 16_456 .
Sb1 Cu3 Sb2 119.5(2) 3 .
Sb1 Cu3 Sb2 114.74(11) . .
Sb1 Cu3 Sb2 114.74(11) 2 .
Sb2 Cu3 Sb2 101.80(2) 1_445 .
Sb2 Cu3 Sb2 101.80(2) 1_545 .
Cu1 Cu3 Cu2 63.884(18) 16_556 .
Cu1 Cu3 Cu2 149.89(5) 16_446 .
Cu1 Cu3 Cu2 63.885(18) 16_456 .
Sb1 Cu3 Cu2 63.6(2) 3 .
Sb1 Cu3 Cu2 58.94(10) . .
Sb1 Cu3 Cu2 58.94(10) 2 .
Sb2 Cu3 Cu2 127.487(4) 1_445 .
Sb2 Cu3 Cu2 127.487(4) 1_545 .
Sb2 Cu3 Cu2 55.870(17) . .
Cu1 Cu3 Cu2 149.89(5) 16_556 1_445
Cu1 Cu3 Cu2 63.884(18) 16_446 1_445
Cu1 Cu3 Cu2 63.886(18) 16_456 1_445
Sb1 Cu3 Cu2 58.94(10) 3 1_445
Sb1 Cu3 Cu2 63.6(2) . 1_445
Sb1 Cu3 Cu2 58.94(10) 2 1_445
Sb2 Cu3 Cu2 55.870(17) 1_445 1_445
Sb2 Cu3 Cu2 127.487(4) 1_545 1_445
Sb2 Cu3 Cu2 127.488(4) . 1_445
Cu2 Cu3 Cu2 97.81(3) . 1_445
Cu1 Cu3 Cu2 63.885(18) 16_556 1_545
Cu1 Cu3 Cu2 63.885(18) 16_446 1_545
Cu1 Cu3 Cu2 149.89(5) 16_456 1_545
Sb1 Cu3 Cu2 58.94(10) 3 1_545
Sb1 Cu3 Cu2 58.94(10) . 1_545
Sb1 Cu3 Cu2 63.6(2) 2 1_545
Sb2 Cu3 Cu2 127.487(4) 1_445 1_545
Sb2 Cu3 Cu2 55.869(17) 1_545 1_545
Sb2 Cu3 Cu2 127.488(4) . 1_545
Cu2 Cu3 Cu2 97.81(3) . 1_545
Cu2 Cu3 Cu2 97.81(3) 1_445 1_545
Sb1 Cu4 Sb1 120.000(2) 2_655 .
Sb1 Cu4 Sb1 120.000(3) 2_655 3_665
Sb1 Cu4 Sb1 120.000(1) . 3_665
Sb1 Cu4 Sb1 2.90(18) 2_655 1_655
Sb1 Cu4 Sb1 122.90(18) . 1_655
Sb1 Cu4 Sb1 117.10(18) 3_665 1_655
Sb1 Cu4 Sb1 2.90(18) 2_655 3_655
Sb1 Cu4 Sb1 117.10(18) . 3_655
Sb1 Cu4 Sb1 122.90(18) 3_665 3_655
Sb1 Cu4 Sb1 5.8(4) 1_655 3_655
Sb1 Cu4 Sb1 117.10(18) 2_655 1_665
Sb1 Cu4 Sb1 122.90(18) . 1_665
Sb1 Cu4 Sb1 2.90(17) 3_665 1_665
Sb1 Cu4 Sb1 114.2(4) 1_655 1_665
Sb1 Cu4 Sb1 120.000(1) 3_655 1_665
Sb1 Cu4 Sb1 117.10(18) 2_655 3
Sb1 Cu4 Sb1 2.90(18) . 3
Sb1 Cu4 Sb1 122.90(18) 3_665 3
Sb1 Cu4 Sb1 120.000(2) 1_655 3
Sb1 Cu4 Sb1 114.2(4) 3_655 3
Sb1 Cu4 Sb1 125.8(4) 1_665 3
Sb1 Cu4 Sb1 122.90(18) 2_655 2
Sb1 Cu4 Sb1 2.90(18) . 2
Sb1 Cu4 Sb1 117.10(17) 3_665 2
Sb1 Cu4 Sb1 125.8(4) 1_655 2
Sb1 Cu4 Sb1 120.0 3_655 2
Sb1 Cu4 Sb1 120.0 1_665 2
Sb1 Cu4 Sb1 5.8(4) 3 2
Sb1 Cu4 Sb1 122.90(18) 2_655 2_665
Sb1 Cu4 Sb1 117.10(17) . 2_665
Sb1 Cu4 Sb1 2.90(18) 3_665 2_665
Sb1 Cu4 Sb1 120.000(1) 1_655 2_665
Sb1 Cu4 Sb1 125.8(4) 3_655 2_665
Sb1 Cu4 Sb1 5.8(4) 1_665 2_665
Sb1 Cu4 Sb1 120.0 3 2_665
Sb1 Cu4 Sb1 114.2(4) 2 2_665
Sb1 Cu4 Cu1 90.0 2_655 16_556
Sb1 Cu4 Cu1 90.000(1) . 16_556
Sb1 Cu4 Cu1 90.000(2) 3_665 16_556
Sb1 Cu4 Cu1 90.000(1) 1_655 16_556
Sb1 Cu4 Cu1 90.000(1) 3_655 16_556
Sb1 Cu4 Cu1 90.000(2) 1_665 16_556
Sb1 Cu4 Cu1 90.000(2) 3 16_556
Sb1 Cu4 Cu1 90.0 2 16_556
Sb1 Cu4 Cu1 90.0 2_665 16_556
Sb1 Cu4 Cu1 90.0 2_655 .
Sb1 Cu4 Cu1 90.000(1) . .
Sb1 Cu4 Cu1 90.000(1) 3_665 .
Sb1 Cu4 Cu1 90.0 1_655 .
Sb1 Cu4 Cu1 90.0 3_655 .
Sb1 Cu4 Cu1 90.000(1) 1_665 .
Sb1 Cu4 Cu1 90.000(1) 3 .
Sb1 Cu4 Cu1 90.0 2 .
Sb1 Cu4 Cu1 90.0 2_665 .
Cu1 Cu4 Cu1 180.0 16_556 .
Sb1 Cu4 Cu2 152.315(16) 2_655 16_556
Sb1 Cu4 Cu2 63.720(4) . 16_556
Sb1 Cu4 Cu2 63.720(4) 3_665 16_556
Sb1 Cu4 Cu2 152.18(2) 1_655 16_556
Sb1 Cu4 Cu2 152.18(2) 3_655 16_556
Sb1 Cu4 Cu2 66.21(15) 1_665 16_556
Sb1 Cu4 Cu2 66.21(15) 3 16_556
Sb1 Cu4 Cu2 61.25(15) 2 16_556
Sb1 Cu4 Cu2 61.25(15) 2_665 16_556
Cu1 Cu4 Cu2 117.685(16) 16_556 16_556
Cu1 Cu4 Cu2 62.315(16) . 16_556
Sb2 Na1 Sb2 180.0 . 13
Sb2 Na1 Sb2 99.020(9) . 13_665
Sb2 Na1 Sb2 80.980(9) 13 13_665
Sb2 Na1 Sb2 80.980(9) . 1_445
Sb2 Na1 Sb2 99.020(9) 13 1_445
Sb2 Na1 Sb2 180.000(12) 13_665 1_445
Sb2 Na1 Sb2 80.981(9) . 1_545
Sb2 Na1 Sb2 99.021(9) 13 1_545
Sb2 Na1 Sb2 99.021(9) 13_665 1_545
Sb2 Na1 Sb2 80.979(9) 1_445 1_545
Sb2 Na1 Sb2 99.019(9) . 13_565
Sb2 Na1 Sb2 80.979(9) 13 13_565
Sb2 Na1 Sb2 80.979(9) 13_665 13_565
Sb2 Na1 Sb2 99.021(9) 1_445 13_565
Sb2 Na1 Sb2 180.000(12) 1_545 13_565
Sb2 Na1 Cu3 131.429(6) . 13
Sb2 Na1 Cu3 48.570(6) 13 13
Sb2 Na1 Cu3 48.570(6) 13_665 13
Sb2 Na1 Cu3 131.430(6) 1_445 13
Sb2 Na1 Cu3 131.430(6) 1_545 13
Sb2 Na1 Cu3 48.570(6) 13_565 13
Sb2 Na1 Cu3 48.571(6) . .
Sb2 Na1 Cu3 131.431(6) 13 .
Sb2 Na1 Cu3 131.430(6) 13_665 .
Sb2 Na1 Cu3 48.570(6) 1_445 .
Sb2 Na1 Cu3 48.570(6) 1_545 .
Sb2 Na1 Cu3 131.430(6) 13_565 .
Cu3 Na1 Cu3 180.0 13 .
Sb2 Na1 Na1 49.509(5) . 1_665
Sb2 Na1 Na1 130.490(5) 13 1_665
Sb2 Na1 Na1 49.510(5) 13_665 1_665
Sb2 Na1 Na1 130.490(5) 1_445 1_665
Sb2 Na1 Na1 90.0 1_545 1_665
Sb2 Na1 Na1 90.0 13_565 1_665
Cu3 Na1 Na1 90.0 13 1_665
Cu3 Na1 Na1 90.0 . 1_665
Sb2 Na1 Na1 130.491(5) . 1_445
Sb2 Na1 Na1 49.510(5) 13 1_445
Sb2 Na1 Na1 130.490(5) 13_665 1_445
Sb2 Na1 Na1 49.510(5) 1_445 1_445
Sb2 Na1 Na1 90.0 1_545 1_445
Sb2 Na1 Na1 90.0 13_565 1_445
Cu3 Na1 Na1 90.0 13 1_445
Cu3 Na1 Na1 90.0 . 1_445
Na1 Na1 Na1 180.0 1_665 1_445
Sb2 Na1 Na1 130.491(5) . 1_545
Sb2 Na1 Na1 49.511(5) 13 1_545
Sb2 Na1 Na1 90.0 13_665 1_545
Sb2 Na1 Na1 90.0 1_445 1_545
Sb2 Na1 Na1 49.510(5) 1_545 1_545
Sb2 Na1 Na1 130.490(5) 13_565 1_545
Cu3 Na1 Na1 90.0 13 1_545
Cu3 Na1 Na1 90.0 . 1_545
Na1 Na1 Na1 120.0 1_665 1_545
Na1 Na1 Na1 60.0 1_445 1_545
Sb2 Na1 Na1 90.0 . 1_455
Sb2 Na1 Na1 90.0 13 1_455
Sb2 Na1 Na1 130.489(5) 13_665 1_455
Sb2 Na1 Na1 49.511(5) 1_445 1_455
Sb2 Na1 Na1 130.490(5) 1_545 1_455
Sb2 Na1 Na1 49.510(5) 13_565 1_455
Cu3 Na1 Na1 90.0 13 1_455
Cu3 Na1 Na1 90.0 . 1_455
Na1 Na1 Na1 120.0 1_665 1_455
Na1 Na1 Na1 60.0 1_445 1_455
Na1 Na1 Na1 120.0 1_545 1_455
loop_
_geom_bond_atom_site_label_1
_geom_bond_atom_site_label_2
_geom_bond_distance
_geom_bond_site_symmetry_2
Sb1 Sb1 0.254(16) 3
Sb1 Sb1 0.254(16) 2
Sb1 Cu4 2.288(9) .
Sb1 Cu4 2.511(5) 1_445
Sb1 Cu4 2.511(5) 1_455
Sb1 Cu3 2.6598(10) .
Sb1 Cu3 2.6599(10) 16_556
Sb1 Cu2 2.688(4) 16_556
Sb1 Cu2 2.688(4) 1_545
Sb1 Cu2 2.688(4) 16_546
Sb1 Cu2 2.688(4) .
Sb1 Cu2 2.880(8) 1_445
Sb2 Cu2 2.5843(9) .
Sb2 Cu3 2.7167(4) 1_565
Sb2 Cu3 2.7167(4) 1_665
Sb2 Cu3 2.7168(4) .
Sb2 Cu1 2.7280(6) 16_556
Sb2 Cu1 2.7281(6) 16_566
Sb2 Cu1 2.7281(6) 16_456
Sb2 Na1 3.2469(3) .
Sb2 Na1 3.2469(3) 1_565
Sb2 Na1 3.2469(3) 1_665
Cu1 Cu3 2.43459(12) 16_656
Cu1 Cu3 2.43459(12) 16_666
Cu1 Cu3 2.43459(12) 16_556
Cu1 Cu4 2.6305(12) .
Cu1 Cu2 2.7853(7) 16_556
Cu1 Cu2 2.7853(7) 16_546
Cu1 Cu2 2.7853(7) 16_656
Cu2 Cu2 2.5547(17) 16_556
Cu2 Cu4 2.7492(4) .
Cu2 Cu4 2.7492(4) 1_565
Cu2 Cu4 2.7492(4) 1_455
Na1 Na1 4.2166(2) 1_665
Na1 Na1 4.2166(2) 1_445
Na1 Na1 4.2166(2) 1_545
Na1 Na1 4.2166(2) 1_455
