#------------------------------------------------------------------------------
#$Date: 2019-11-17 09:50:46 +0200 (Sun, 17 Nov 2019) $
#$Revision: 229193 $
#$URL: file:///home/coder/svn-repositories/cod/cif/7/04/67/7046714.cif $
#------------------------------------------------------------------------------
#
# This file is available in the Crystallography Open Database (COD),
# http://www.crystallography.net/
#
# All data on this site have been placed in the public domain by the
# contributors.
#
data_7046714
loop_
_publ_author_name
'Wen, Ming'
'Hu, Cong'
'Yang, Zhihua'
'Wu, Xiaohong'
'Pan, Shilie'
_publ_section_title
;
 K<sub>2</sub>TeP<sub>2</sub>O<sub>8</sub>: a new telluro-phosphate with a
 pentagonal Te-P-O layer structure.
;
_journal_issue                   28
_journal_name_full
'Dalton transactions (Cambridge, England : 2003)'
_journal_page_first              9453
_journal_page_last               9458
_journal_paper_doi               10.1039/c8dt01576g
_journal_volume                  47
_journal_year                    2018
_chemical_absolute_configuration rm
_chemical_formula_sum            'K2 O8 P2 Te'
_chemical_formula_weight         395.74
_space_group_crystal_system      orthorhombic
_space_group_IT_number           18
_space_group_name_Hall           'P 2 2ab'
_space_group_name_H-M_alt        'P 21 21 2'
_symmetry_space_group_name_Hall  'P 2 2ab'
_symmetry_space_group_name_H-M   'P 21 21 2'
_audit_creation_method           SHELXL-2016/6
_cell_angle_alpha                90
_cell_angle_beta                 90
_cell_angle_gamma                90
_cell_formula_units_Z            4
_cell_length_a                   11.9684(5)
_cell_length_b                   12.1871(5)
_cell_length_c                   5.5283(2)
_cell_measurement_reflns_used    3456
_cell_measurement_temperature    293(2)
_cell_measurement_theta_max      27.45
_cell_measurement_theta_min      3.34
_cell_volume                     806.36(6)
_computing_cell_refinement       'Bruker SMART'
_computing_data_collection       'Bruker SMART'
_computing_data_reduction        'Bruker SAINT'
_computing_molecular_graphics    'Bruker SHELXTL'
_computing_publication_material  'Bruker SHELXTL'
_computing_structure_refinement  'SHELXL-2016/6 (Sheldrick, 2016)'
_computing_structure_solution    'Bruker SHELXTL'
_diffrn_ambient_temperature      293(2)
_diffrn_measured_fraction_theta_full 1.000
_diffrn_measured_fraction_theta_max 1.000
_diffrn_measurement_device_type  'CCD area detector'
_diffrn_measurement_method       'phi and omega scans'
_diffrn_radiation_type           MoK\a
_diffrn_radiation_wavelength     0.71073
_diffrn_reflns_av_R_equivalents  0.0216
_diffrn_reflns_av_unetI/netI     0.0270
_diffrn_reflns_Laue_measured_fraction_full 1.000
_diffrn_reflns_Laue_measured_fraction_max 1.000
_diffrn_reflns_limit_h_max       15
_diffrn_reflns_limit_h_min       -9
_diffrn_reflns_limit_k_max       15
_diffrn_reflns_limit_k_min       -15
_diffrn_reflns_limit_l_max       7
_diffrn_reflns_limit_l_min       -7
_diffrn_reflns_number            4961
_diffrn_reflns_point_group_measured_fraction_full 1.000
_diffrn_reflns_point_group_measured_fraction_max 1.000
_diffrn_reflns_theta_full        25.242
_diffrn_reflns_theta_max         27.473
_diffrn_reflns_theta_min         2.385
_exptl_absorpt_coefficient_mu    5.129
_exptl_absorpt_correction_T_max  0.7456
_exptl_absorpt_correction_T_min  0.6574
_exptl_absorpt_correction_type   numerical
_exptl_crystal_colour            colorless
_exptl_crystal_density_diffrn    3.260
_exptl_crystal_description       block
_exptl_crystal_F_000             736
_exptl_crystal_size_max          0.114
_exptl_crystal_size_mid          0.095
_exptl_crystal_size_min          0.093
_refine_diff_density_max         1.341
_refine_diff_density_min         -1.584
_refine_diff_density_rms         0.166
_refine_ls_abs_structure_details
; 
 Refined as an inversion twin. 
;
_refine_ls_abs_structure_Flack   0.01(6)
_refine_ls_extinction_coef       0.0060(5)
_refine_ls_extinction_expression Fc^*^=kFc[1+0.001xFc^2^\l^3^/sin(2\q)]^-1/4^
_refine_ls_extinction_method     'SHELXL-2016/6 (Sheldrick 2016)'
_refine_ls_goodness_of_fit_ref   0.983
_refine_ls_hydrogen_treatment    undef
_refine_ls_matrix_type           full
_refine_ls_number_parameters     125
_refine_ls_number_reflns         1843
_refine_ls_number_restraints     12
_refine_ls_restrained_S_all      1.017
_refine_ls_R_factor_all          0.0315
_refine_ls_R_factor_gt           0.0306
_refine_ls_shift/su_max          0.003
_refine_ls_shift/su_mean         0.000
_refine_ls_structure_factor_coef Fsqd
_refine_ls_weighting_details
'w=1/[\s^2^(Fo^2^)+10.0000P] where P=(Fo^2^+2Fc^2^)/3'
_refine_ls_weighting_scheme      calc
_refine_ls_wR_factor_gt          0.0701
_refine_ls_wR_factor_ref         0.0707
_reflns_Friedel_coverage         0.678
_reflns_Friedel_fraction_full    1.000
_reflns_Friedel_fraction_max     1.000
_reflns_number_gt                1793
_reflns_number_total             1843
_reflns_threshold_expression     'I > 2\s(I)'
_cod_data_source_file            c8dt01576g1.cif
_cod_data_source_block           1
_cod_depositor_comments          'Adding full bibliography for 7046714.cif.'
_cod_database_code               7046714
_shelx_shelxl_version_number     2016/6
_shelx_space_group_comment
; 
The symmetry employed for this shelxl refinement is uniquely defined 
by the following loop, which should always be used as a source of 
symmetry information in preference to the above space-group names. 
They are only intended as comments. 
;
_shelx_res_file
; 
TITL 1 in P2(1)2(1)2             New: P21212 
    1.res 
    created by SHELXL-2016/6 at 18:05:33 on 11-Jan-2018 
CELL  0.71073   11.9684   12.1871    5.5283    90.000    90.000    90.000 
ZERR  4           0.0005    0.0005    0.0002     0.000     0.000     0.000 
LATT -1 
SYMM             - X ,            - Y ,              Z 
SYMM     0.50000 + X ,    0.50000 - Y ,            - Z 
SYMM     0.50000 - X ,    0.50000 + Y ,            - Z 
SFAC K  O  P  Te H 
UNIT 8 32 8 4 0 
L.S. 20 
ACTA 
BOND $H 
FMAP 2 
PLAN 10 
TWIN 
CONF 
ISOR 0.004 O5 
ISOR 0.001 O9 
FREE P2   K2 
FREE Te1  K2 
FREE P1   K2 
FREE Te1  K1 
FREE P1   K1 
FREE K1   K2 
WGHT    0.000000   10.000000 
EXTI    0.005980 
BASF   0.01356 
FVAR       0.13205 
K1    1    0.984947    0.826217   -0.007234    11.00000    0.02981    0.02343 = 
         0.01861    0.00346    0.00421   -0.00446 
K2    1    0.822713    0.500557   -0.001041    11.00000    0.02150    0.05325 = 
         0.02017    0.00452    0.00013    0.00537 
TE1   4    0.734177    0.752047    0.463019    11.00000    0.01562    0.02348 = 
         0.01588    0.00037    0.00118    0.00514 
P1    3    0.993888    0.620936    0.489362    11.00000    0.01220    0.01234 = 
         0.01908    0.00126    0.00170   -0.00054 
P2    3    0.623804    0.511166    0.492593    11.00000    0.04072    0.01738 = 
         0.01590    0.00076    0.00108   -0.00354 
O1    2    0.787469    0.778236    0.168145    11.00000    0.03044    0.03853 = 
         0.01727    0.00340    0.00679   -0.00313 
O2    2    1.015025    0.626702    0.227173    11.00000    0.02720    0.02144 = 
         0.02251    0.00236    0.00430    0.00450 
O3    2    0.665621    0.607784    0.336500    11.00000    0.06194    0.02327 = 
         0.02666    0.00070   -0.00065   -0.02110 
O4    2    0.625582    0.534163    0.755275    11.00000    0.03173    0.03247 = 
         0.01862   -0.00511   -0.00096    0.00380 
O5    2    0.881933    0.657726    0.582333    11.00000    0.04961    0.09006 = 
         0.04842    0.01570    0.00765    0.02854 
O6    2    0.817759    0.912086    0.603219    11.00000    0.16820    0.03241 = 
         0.03129   -0.00859    0.01188   -0.04424 
O7    2    0.580904    0.823981    0.353746    11.00000    0.05279    0.11918 = 
         0.03244   -0.01706   -0.01455    0.06412 
O8    2    0.500000    0.500000    0.392328    10.50000    0.04518    0.17437 = 
         0.02438    0.00000    0.00000   -0.06188 
O9    2    1.034112    0.502332    0.586275    10.50000    0.01689    0.01573 = 
         0.01679    0.00010   -0.00158    0.00037 
HKLF 4 
  
  
  
  
REM  1 in P2(1)2(1)2             New: P21212 
REM R1 =  0.0306 for    1793 Fo > 4sig(Fo)  and  0.0315 for all    1843 data 
REM    125 parameters refined using     12 restraints 
  
END 
  
WGHT      0.0000      5.8698 
  
REM Highest difference peak  1.341,  deepest hole -1.584,  1-sigma level  0.166 
Q1    1   0.8756  0.6120  0.5470  11.00000  0.05    1.34 
Q2    1   0.9008  0.7056  0.5880  11.00000  0.05    1.21 
Q3    1   1.0000  0.5000  0.6678  10.50000  0.05    0.79 
Q4    1   0.5192  0.4496  0.4527  11.00000  0.05    0.79 
Q5    1   0.7119  0.7383  0.6566  11.00000  0.05    0.76 
Q6    1   0.7750  0.7046  0.4310  11.00000  0.05    0.67 
Q7    1   0.8753  0.8915  0.5567  11.00000  0.05    0.66 
Q8    1   1.0646  0.5135  0.5259  11.00000  0.05    0.59 
Q9    1   0.7801  0.9426  0.5196  11.00000  0.05    0.57 
Q10   1   0.5601  0.7914  0.4112  11.00000  0.05    0.55 
;
_shelx_res_checksum              55031
_shelx_hkl_file
; 
   0   0   1  671.83   20.86 
   0   0   2 1000.00   31.18 
   0   0   3   86.11    2.94 
   0   0   4  440.68   13.92 
   0   0  -5    0.21    0.19 
   0   0  -6   98.59    3.66 
   0   0  -7    0.67    0.36 
   1   0   0   -0.10    0.03 
   1   0   1    4.08    0.24 
  -1   0   1    4.55    0.23 
   1   0   2  121.59    3.98 
  -1   0   2  122.05    3.97 
   1   0   2  126.99    3.96 
   1   0   3  103.97    3.48 
  -1   0   3  102.79    3.47 
   1   0   3  104.15    3.42 
   1   0   4    0.29    0.19 
  -1   0   4    0.13    0.18 
  -1   0  -5    0.15    0.18 
   1   0  -5    0.23    0.19 
  -1   0  -6    0.19    0.25 
   1   0  -6    0.21    0.25 
   1   0  -7    1.71    0.47 
  -1   0  -7    2.08    0.53 
   2   0   0  130.80    4.11 
   2   0   1  258.16    7.79 
   2   0   1  256.23    7.78 
   2   0  -1  235.29    7.74 
  -2   0   2  109.54    3.57 
   2   0   2  111.83    3.58 
   2   0   2  110.10    3.60 
   2   0   3  133.74    4.54 
  -2   0   3  140.35    4.52 
   2   0   3  139.72    4.49 
   2   0   4    5.71    0.49 
   2   0  -4    5.17    0.51 
   2   0   5   15.71    0.91 
  -2   0  -5   13.80    0.88 
   2   0  -5   14.93    0.87 
   2   0  -6    0.21    0.25 
  -2   0  -6    0.21    0.23 
   2   0  -7    3.66    0.63 
  -2   0  -7    3.14    0.60 
   3   0   0    0.04    0.04 
   3   0   0   -0.03    0.06 
   3   0  -1   18.83    0.65 
   3   0   1   18.47    0.69 
   3   0  -1   18.31    0.70 
   3   0   2   64.80    2.14 
   3   0  -2   61.66    2.09 
   3   0   2   61.34    2.14 
   3   0  -3   19.03    0.84 
   3   0   3   18.91    0.84 
   3   0   3   19.24    0.88 
   3   0   4   19.41    0.91 
   3   0  -4   18.11    0.93 
   3   0   4   20.23    0.99 
   3   0  -5   11.87    0.78 
   3   0   5   13.05    0.85 
  -3   0  -6   14.30    0.99 
   3   0  -6   17.10    1.04 
  -3   0  -7    7.71    0.88 
   4   0   0  488.95   14.85 
   4   0   0  473.97   14.92 
   4   0   1  116.11    3.62 
   4   0  -1  110.33    3.66 
   4   0  -1  115.36    3.56 
   4   0   1  112.82    3.69 
   4   0   2  368.72   11.31 
   4   0  -2  346.99   11.20 
   4   0   2  364.72   11.28 
   4   0  -2  362.71   11.26 
   4   0   3  117.38    3.84 
   4   0  -3  114.27    3.78 
   4   0   3  112.97    3.85 
   4   0   4   97.28    3.35 
   4   0   4   93.28    3.28 
   4   0  -4   92.39    3.26 
   4   0  -5    1.66    0.35 
   4   0   5    1.66    0.31 
   4   0   5    1.49    0.36 
  -4   0  -6    9.41    0.81 
   4   0  -6   10.79    0.82 
   5   0   0    0.04    0.09 
   5   0  -1    0.77    0.08 
   5   0  -1    0.53    0.13 
   5   0   1    0.92    0.13 
   5   0   1    0.52    0.14 
   5   0  -2   21.37    0.90 
   5   0   2   21.78    0.90 
   5   0   2   23.00    0.76 
   5   0  -2   21.86    0.83 
   5   0   3   22.23    0.99 
   5   0  -3   21.16    0.91 
   5   0  -3   21.53    0.94 
   5   0   3   22.38    0.99 
   5   0   4    4.34    0.49 
   5   0   4    4.10    0.45 
   5   0  -4    4.68    0.47 
   5   0  -5   22.46    1.11 
   5   0   5   21.06    1.16 
   5   0   5   21.42    1.10 
  -5   0  -6    7.27    0.81 
   5   0  -6    6.13    0.68 
   6   0   0    6.03    0.40 
   6   0  -1  356.91   11.03 
   6   0   1  346.85   10.91 
   6   0   1  350.91   11.06 
   6   0   2    1.97    0.29 
   6   0  -2    1.49    0.23 
   6   0  -2    1.80    0.20 
   6   0   2    1.72    0.15 
   6   0   2    1.58    0.23 
   6   0   3  176.27    5.73 
   6   0   3  177.57    5.77 
   6   0  -3  169.32    5.69 
   6   0  -3  177.62    5.61 
   6   0   4    9.03    0.63 
   6   0  -4    8.57    0.57 
   6   0  -4    7.59    0.54 
   6   0   4    7.30    0.57 
  -6   0  -5   42.71    1.88 
   6   0   5   45.26    1.90 
   6   0   5   42.05    1.82 
   6   0  -5   44.26    1.79 
  -6   0  -6   14.64    1.01 
   6   0   6   12.17    0.88 
   7   0   0   -0.18    0.09 
   7   0   1    9.93    0.45 
   7   0   2   27.50    1.18 
   7   0   2   28.11    1.09 
   7   0  -2   25.96    1.12 
   7   0   2   26.70    1.03 
   7   0  -3   12.98    0.72 
   7   0   3   13.55    0.74 
   7   0   3   13.75    0.77 
   7   0   4   37.14    1.58 
   7   0   4   34.87    1.56 
   7   0  -4   37.75    1.54 
   7   0   5   47.12    1.99 
  -7   0  -5   48.22    2.03 
   7   0  -5   47.97    1.95 
  -7   0  -6   27.39    1.47 
   7   0   6   25.12    1.37 
   7   0  -6   26.46    1.34 
   8   0   0  349.06   11.05 
   8   0   1  301.45    9.88 
   8   0   1  315.43    9.95 
   8   0  -1  318.21    9.91 
   8   0   2  175.52    5.60 
   8   0  -2  176.68    5.72 
   8   0   2  169.75    5.75 
   8   0  -3  190.17    6.15 
   8   0   3  187.89    6.21 
   8   0   3  181.74    6.09 
   8   0   4  104.40    3.59 
   8   0  -4   99.24    3.54 
   8   0   4   96.90    3.59 
  -8   0  -5   38.24    1.72 
   8   0   5   35.68    1.69 
   8   0  -5   37.64    1.65 
   8   0   6    5.20    0.67 
  -8   0  -6    6.61    0.79 
   8   0  -6    6.74    0.73 
   9   0   0   -0.01    0.15 
   9   0   1    0.04    0.16 
   9   0  -1    0.35    0.19 
   9   0   2   28.74    1.32 
   9   0  -2   30.11    1.30 
   9   0  -3   52.27    2.08 
   9   0   3   55.89    2.05 
   9   0   3   53.63    2.15 
   9   0  -4   35.72    1.56 
   9   0   4   33.66    1.58 
  -9   0  -4   34.24    1.53 
  -9   0  -5   39.86    1.79 
   9   0   5   37.99    1.79 
   9   0  -5   37.35    1.71 
  10   0   0    0.31    0.20 
  10   0   1   34.71    1.51 
  10   0  -1   34.30    1.48 
  10   0   2    3.26    0.46 
  10   0  -2    1.98    0.36 
  10   0  -3   11.81    0.76 
  10   0   3   11.19    0.79 
  10   0  -4    0.05    0.19 
  10   0   4    0.24    0.24 
  10   0  -5    5.24    0.64 
  11   0   0    0.03    0.18 
  11   0   1    2.41    0.41 
  11   0  -1    2.47    0.41 
  11   0   2   20.38    1.10 
  11   0  -2   18.95    1.04 
  11   0  -3   40.72    1.75 
  11   0   3   37.99    1.77 
  11   0  -4   53.73    2.23 
  11   0   4   53.14    2.28 
  11   0   5   54.27    2.35 
  11   0  -5   51.34    2.24 
  12   0   0   48.89    2.05 
  12   0   1    3.74    0.55 
  12   0  -1    4.30    0.57 
  12   0   2   43.18    1.92 
  12   0  -2   44.66    1.91 
  12   0   3    0.09    0.22 
  12   0  -3    0.08    0.20 
  12   0   4   19.38    1.20 
  12   0  -4   19.65    1.17 
  13   0   0    0.06    0.23 
  13   0   1    4.48    0.59 
  13   0  -1    4.26    0.56 
  13   0  -2   11.29    0.85 
  13   0   2   12.02    0.88 
  13   0  -3   14.44    0.98 
  13   0   3   14.04    1.00 
  14   0   0    0.84    0.33 
  14   0  -1    2.67    0.52 
  14   0   1    3.37    0.55 
  14   0   2    1.95    0.44 
  14   0  -2    4.11    0.61 
  14   0   3    6.41    0.76 
  14   0  -3    4.90    0.68 
  15   0   0   -0.14    0.22 
  15   0   1    6.57    0.80 
  15   0  -1    6.33    0.80 
   0  -1   0   -0.14    0.02 
   0   1   0   -0.15    0.02 
   0  -1   1    1.81    0.16 
   0   1  -1    1.96    0.13 
   0  -1  -1    1.63    0.16 
   0  -1   1    2.06    0.13 
   0  -1   2    8.67    0.43 
   0  -1  -2    8.04    0.43 
   0  -1  -3    5.79    0.42 
   0  -1  -4    0.06    0.16 
   0  -1   4    0.23    0.18 
   0  -1   5    0.17    0.20 
   0  -1  -6    0.08    0.25 
   0   1  -6    0.17    0.24 
   0  -1  -7    1.69    0.50 
   0   1  -7    2.26    0.52 
   1  -1   0   -0.29    0.04 
   1   1   0   -0.22    0.04 
   1  -1   0   -0.29    0.04 
   1   1   0   -0.15    0.05 
  -1  -1   0   -0.27    0.04 
   1  -1   1   76.52    2.41 
   1  -1   1   74.07    2.44 
  -1  -1  -1   76.75    2.45 
  -1   1  -1   75.40    2.36 
   1  -1  -1   74.97    2.44 
   1   1   1   76.08    2.43 
  -1  -1   1   77.48    2.42 
  -1  -1  -2   45.18    1.63 
   1  -1   2   48.03    1.58 
   1  -1   2   44.13    1.62 
   1   1   2   47.67    1.60 
  -1  -1   2   48.55    1.62 
  -1   1  -2   46.81    1.49 
   1  -1  -2   44.71    1.62 
   1  -1   3  102.05    3.25 
  -1  -1  -3   91.14    3.30 
   1  -1   3  101.06    3.32 
   1  -1  -3   97.09    3.31 
  -1  -1   3   99.29    3.30 
   1  -1   4  110.20    3.96 
  -1  -1  -4  117.56    4.00 
   1  -1  -4  117.74    3.98 
  -1  -1   4  120.42    3.98 
   1  -1   5   74.49    2.81 
  -1  -1  -5   75.25    2.82 
  -1  -1   5   74.89    2.80 
   1  -1  -5   74.31    2.80 
  -1  -1  -6   83.82    3.24 
   1   1  -6   87.14    3.23 
   1  -1  -6   83.40    3.23 
  -1   1  -6   83.81    3.24 
   1   1  -7   65.52    2.80 
   1  -1  -7   66.63    2.84 
  -1   1  -7   71.34    2.87 
  -2  -1   0   10.92    0.40 
   2  -1   0   10.87    0.42 
   2   1   0   10.34    0.45 
  -2  -1  -1   32.60    1.13 
   2   1  -1   31.09    1.09 
   2  -1   1   31.86    1.12 
   2  -1   1   31.14    1.12 
   2   1   1   33.06    1.07 
   2   1   1   32.06    1.13 
  -2  -1   1   33.56    1.09 
   2  -1  -1   32.26    1.11 
   2  -1   2   13.69    0.56 
   2  -1   2   13.28    0.59 
   2   1   2   10.83    0.57 
  -2  -1   2   11.98    0.55 
   2  -1  -2   11.27    0.56 
   2  -1   3    2.89    0.32 
  -2  -1   3    2.87    0.32 
   2  -1  -3    2.02    0.28 
   2   1   3    1.78    0.24 
   2   1   3    2.03    0.30 
   2  -1   4    2.71    0.32 
   2  -1   4    2.09    0.34 
  -2  -1  -4    2.56    0.37 
   2  -1  -4    3.10    0.40 
  -2  -1   4    3.42    0.41 
   2   1   4    2.02    0.30 
  -2  -1  -5    8.60    0.67 
   2  -1   5    8.42    0.66 
   2  -1  -5    8.09    0.65 
  -2  -1   5    8.07    0.64 
  -2  -1  -6    0.06    0.23 
   2   1  -6   -0.06    0.21 
   2  -1   6    0.13    0.25 
   2  -1  -6    0.28    0.25 
  -2   1  -6    0.37    0.26 
   2   1  -7    1.41    0.44 
  -2  -1  -7    1.44    0.46 
   2  -1  -7    2.40    0.55 
  -2   1  -7    1.96    0.49 
   3  -1   0   36.09    1.26 
   3   1   0   35.35    1.26 
   3  -1   0   36.12    1.20 
  -3  -1   0   37.43    1.18 
   3  -1   1  433.22   13.23 
  -3  -1  -1  426.21   13.23 
   3  -1   1  446.03   13.27 
   3   1  -1  442.12   13.23 
   3   1   1  401.05   13.26 
   3  -1  -1  426.13   13.25 
   3   1   1  445.01   13.26 
  -3  -1   1  401.61   13.17 
   3  -1  -1  429.55   13.36 
   3  -1   2   68.51    2.46 
   3  -1   2   70.62    2.45 
  -3  -1   2   74.33    2.41 
   3   1   2   77.98    2.48 
   3   1   2   73.44    2.47 
   3  -1  -2   74.44    2.44 
   3  -1   3  247.57    7.67 
   3  -1   3  258.57    7.62 
  -3  -1   3  232.68    7.59 
   3  -1  -3  227.95    7.61 
   3   1   3  239.21    7.62 
   3   1   3  229.60    7.66 
   3  -1   4  148.15    4.77 
   3  -1   4  144.38    4.84 
  -3  -1  -4  140.90    4.84 
  -3  -1   4  145.50    4.80 
   3  -1  -4  143.47    4.81 
   3   1   4  140.18    4.77 
   3   1  -5  170.29    5.63 
   3  -1   5  169.90    5.68 
  -3  -1  -5  164.74    5.68 
   3  -1  -5  162.79    5.62 
  -3  -1  -6   67.44    2.74 
   3  -1   6   68.76    2.75 
   3   1  -6   67.19    2.68 
   3  -1  -6   68.87    2.72 
   3   1  -7   83.66    3.13 
  -3  -1  -7   76.74    3.14 
   3  -1  -7   72.97    3.05 
  -3   1  -7   69.21    3.06 
   4  -1   0   45.78    1.48 
   4  -1   1   67.06    2.16 
   4  -1   1   68.98    2.23 
  -4  -1  -1   70.45    2.17 
   4   1  -1   67.66    2.19 
   4   1   1   66.93    2.14 
   4  -1  -1   62.89    2.11 
  -4  -1   1   65.01    2.08 
   4  -1  -1   61.32    2.19 
   4   1   1   61.70    2.21 
   4  -1   2   99.67    3.30 
   4   1  -2  100.00    3.26 
   4  -1   2  102.37    3.31 
  -4  -1   2   98.47    3.22 
   4  -1  -2   99.49    3.24 
   4   1   2  101.24    3.13 
   4   1   2  105.02    3.33 
   4   1   2   94.41    3.28 
   4  -1  -2   98.57    3.29 
   4  -1   3    7.45    0.49 
   4  -1   3    8.15    0.53 
   4   1   3    8.80    0.53 
   4   1   3    8.91    0.55 
  -4  -1   3    8.80    0.49 
   4  -1  -3    8.69    0.51 
   4   1  -4   26.83    1.16 
   4  -1   4   26.46    1.21 
  -4  -1  -4   25.97    1.21 
   4  -1   4   25.67    1.14 
   4   1   4   26.18    1.17 
   4  -1  -4   26.04    1.17 
  -4  -1  -5    7.03    0.71 
   4  -1   5    6.31    0.53 
   4  -1   5    6.20    0.66 
   4   1  -5    7.72    0.60 
   4  -1  -5    6.82    0.59 
   4   1   5    5.57    0.59 
   4   1  -6    2.46    0.45 
  -4  -1  -6    1.78    0.44 
   4  -1   6    1.06    0.38 
   4  -1  -6    2.26    0.46 
   5   1   0   54.87    1.92 
   5  -1   0   56.08    1.80 
   5  -1   0   56.95    1.93 
  -5  -1  -1   23.34    0.84 
   5  -1   1   23.08    0.93 
   5   1  -1   22.26    0.89 
   5  -1   1   22.07    0.84 
   5  -1  -1   22.57    0.90 
   5  -1  -1   22.84    0.78 
   5   1  -2   81.53    2.71 
   5  -1   2   79.90    2.80 
   5   1  -2   80.37    2.79 
   5  -1   2   85.50    2.85 
   5  -1  -2   80.85    2.81 
   5   1   2   83.59    2.81 
   5   1   2   88.34    2.87 
   5  -1  -2   84.81    2.74 
   5   1   2   88.07    2.67 
   5  -1   3  115.88    3.86 
   5   1  -3  111.33    3.80 
   5  -1   3  111.79    3.86 
   5   1  -3  109.32    3.76 
   5   1   3  118.48    3.88 
   5   1   3  118.61    3.88 
   5  -1  -3  118.54    3.80 
   5   1  -4  157.61    5.35 
   5  -1   4  164.83    5.47 
   5  -1   4  158.04    5.41 
  -5  -1  -4  158.95    5.45 
   5  -1  -4  166.76    5.38 
   5   1   4  173.43    5.46 
   5  -1   5   64.79    2.61 
  -5  -1  -5   67.52    2.64 
   5  -1   5   63.67    2.53 
   5  -1  -5   72.27    2.58 
   5   1   5   69.69    2.59 
   5  -1   6   65.27    2.69 
   5  -1   6   64.40    2.57 
  -5  -1  -6   63.18    2.67 
   5  -1  -6   69.50    2.65 
   6  -1   0   42.40    1.40 
   6   1   0   41.99    1.56 
   6  -1   0   44.10    1.57 
  -6  -1  -1  194.65    6.12 
   6   1  -1  193.05    6.23 
   6  -1   1  188.46    6.13 
   6  -1   1  193.29    6.26 
   6  -1  -1  203.45    6.06 
   6  -1  -1  198.98    6.24 
   6   1   1  192.86    6.26 
   6  -1   2   44.14    1.67 
   6   1  -2   45.31    1.55 
   6   1  -2   44.63    1.68 
   6  -1   2   44.23    1.73 
   6   1   2   49.38    1.56 
   6  -1  -2   48.56    1.72 
   6   1   2   46.68    1.67 
   6  -1  -2   47.83    1.59 
   6   1   2   47.10    1.75 
   6   1  -3   36.00    1.37 
   6  -1   3   37.08    1.50 
   6  -1   3   36.99    1.48 
   6   1  -3   36.83    1.45 
  -6  -1  -3   38.24    1.49 
   6   1   3   37.42    1.52 
   6  -1  -3   37.41    1.40 
   6  -1  -3   37.27    1.47 
   6  -1   4    3.59    0.45 
   6   1  -4    4.86    0.42 
  -6  -1  -4    4.79    0.53 
   6  -1   4    5.43    0.56 
   6  -1  -4    4.08    0.45 
   6  -1  -4    4.66    0.46 
   6   1   4    4.06    0.48 
   6   1  -5    6.46    0.53 
   6  -1   5    6.06    0.66 
   6  -1   5    7.04    0.60 
  -6  -1  -5    8.02    0.69 
   6   1   5    7.23    0.60 
  -6  -1  -6    2.29    0.50 
   6  -1   6    2.45    0.46 
   6  -1   6    2.96    0.53 
   6   1  -6    2.31    0.41 
  -6   1  -6    3.23    0.55 
   6   1   6    3.22    0.52 
   7  -1   0    4.80    0.38 
   7  -1   0    4.68    0.23 
   7   1   0    4.48    0.37 
  -7  -1  -1    9.66    0.44 
   7   1  -1    9.09    0.53 
   7  -1   1    9.99    0.57 
   7  -1   1    9.77    0.45 
   7  -1  -1    8.70    0.53 
   7  -1  -1    9.09    0.36 
   7   1   1    9.08    0.56 
   7   1  -2   15.62    0.76 
   7  -1   2   16.74    0.74 
  -7  -1  -2   15.87    0.72 
   7  -1   2   15.62    0.80 
   7   1   2   14.52    0.79 
   7   1   2   15.83    0.65 
   7  -1  -2   15.60    0.78 
  -7  -1  -3   49.41    1.76 
   7  -1   3   45.75    1.79 
   7  -1   3   45.44    1.74 
   7   1  -3   46.81    1.74 
   7  -1  -3   42.20    1.73 
   7   1   3   40.34    1.76 
   7  -1   4   39.18    1.62 
  -7  -1  -4   38.20    1.61 
   7  -1   4   37.18    1.60 
   7   1  -4   36.80    1.54 
   7   1   4   35.37    1.60 
   7  -1  -4   38.44    1.57 
   7  -1   5   43.59    1.91 
   7  -1   5   46.30    1.98 
  -7  -1  -5   46.25    1.97 
   7   1  -5   47.02    1.87 
   7  -1  -5   46.32    1.90 
   7   1   5   43.59    1.93 
   7   1  -6   25.79    1.31 
   7  -1   6   25.99    1.36 
  -7  -1  -6   26.23    1.46 
  -7   1  -6   27.99    1.47 
   7  -1  -6   26.53    1.35 
   7   1   6   24.91    1.37 
   8   1   0  146.53    4.86 
   8  -1   0  146.90    4.87 
   8  -1   1   84.19    2.79 
   8  -1   1   89.05    3.01 
   8   1  -1   84.16    2.95 
   8  -1  -1   84.67    2.97 
   8   1   1   84.23    2.99 
  -8  -1  -2  166.95    5.27 
   8  -1   2  159.00    5.27 
   8   1  -2  159.81    5.36 
   8  -1   2  164.88    5.43 
   8  -1  -2  162.91    5.39 
   8   1   2  165.25    5.44 
   8  -1   3   19.25    0.98 
   8   1  -3   19.58    0.93 
  -8  -1  -3   19.36    0.92 
   8  -1   3   18.28    0.90 
   8   1   3   17.54    0.96 
   8  -1  -3   16.27    0.90 
  -8  -1  -4   43.74    1.79 
   8   1  -4   41.75    1.73 
   8  -1   4   43.52    1.82 
   8  -1   4   44.01    1.80 
   8  -1  -4   42.28    1.77 
   8   1   4   42.18    1.82 
   8   1  -5    5.13    0.57 
   8  -1   5    5.03    0.62 
  -8  -1  -5    4.17    0.59 
   8  -1   5    4.36    0.58 
   8  -1  -5    6.09    0.64 
   8   1   5    4.13    0.57 
   8  -1   6    4.36    0.62 
   8   1  -6    4.55    0.58 
  -8  -1  -6    4.70    0.68 
  -8   1  -6    4.43    0.65 
   8   1   6    5.51    0.70 
   8  -1  -6    5.00    0.62 
   9  -1   0   14.58    0.79 
   9   1   0   13.91    0.78 
   9   1  -1   23.51    1.10 
   9  -1   1   23.50    1.12 
   9   1   1   23.91    1.13 
   9  -1  -1   26.11    1.13 
   9   1  -2   28.38    1.26 
   9  -1   2   29.50    1.32 
   9  -1  -2   28.78    1.28 
   9   1   2   28.74    1.31 
   9   1  -3   29.59    1.36 
   9  -1   3   31.01    1.33 
   9  -1   3   29.82    1.42 
   9   1   3   32.77    1.45 
   9  -1  -3   33.26    1.41 
  -9  -1  -4   33.57    1.51 
   9  -1   4   34.58    1.52 
   9   1  -4   32.49    1.48 
   9  -1   4   35.41    1.59 
   9  -1  -4   34.70    1.54 
   9   1   4   33.05    1.56 
   9   1  -5   29.05    1.38 
   9  -1   5   27.72    1.42 
   9  -1   5   27.74    1.43 
  -9  -1  -5   26.08    1.39 
   9  -1  -5   27.13    1.37 
   9   1   5   28.65    1.46 
  10   1   0   38.63    1.65 
  10  -1   0   41.33    1.68 
  10  -1   1  117.74    4.12 
  10   1  -1  114.97    4.07 
  10   1   1  120.60    4.12 
  10  -1  -1  119.65    4.10 
  10   1  -2   28.80    1.33 
  10  -1   2   29.73    1.40 
  10   1   2   31.21    1.41 
  10  -1  -2   31.33    1.38 
  10  -1   3   62.94    2.50 
  10   1  -3   64.85    2.44 
  10  -1  -3   63.88    2.46 
  10   1   3   61.49    2.49 
  10   1  -4   12.98    0.85 
  10  -1   4   13.58    0.91 
  10   1   4   15.30    0.96 
  10  -1  -4   15.79    0.94 
  10   1  -5   12.74    0.87 
  10  -1   5   11.97    0.89 
  10  -1  -5   12.91    0.90 
  10   1   5   13.32    0.96 
  11  -1   0   34.82    1.55 
  11   1   0   34.85    1.54 
  11   1  -1    4.21    0.51 
  11  -1   1    3.97    0.51 
  11   1   1    3.90    0.51 
  11  -1  -1    4.87    0.57 
  11   1  -2   24.13    1.22 
  11  -1   2   26.03    1.29 
  11  -1  -2   25.44    1.25 
  11   1   2   25.06    1.26 
  11   1  -3    9.62    0.72 
  11  -1   3   10.86    0.78 
  11   1   3    9.33    0.74 
  11  -1  -3    8.99    0.71 
  11   1  -4   28.96    1.35 
  11  -1   4   26.34    1.38 
  11  -1  -4   24.10    1.31 
  11   1   4   21.88    1.31 
  11  -1   5   12.43    0.96 
  11   1  -5   13.48    0.93 
  11  -1  -5   11.96    0.91 
  11   1   5   12.24    0.95 
  12   1   0  144.95    4.99 
  12  -1   0  143.24    5.00 
  12  -1   1   79.88    3.01 
  12   1  -1   79.02    2.97 
  12  -1  -1   77.25    2.98 
  12   1   1   78.43    3.00 
  12   1  -2  117.13    4.18 
  12  -1   2  115.17    4.23 
  12  -1  -2  118.20    4.21 
  12   1   2  119.30    4.24 
  12   1  -3   23.68    1.25 
  12  -1   3   22.82    1.29 
  12  -1  -3   23.49    1.27 
  12   1   3   25.15    1.33 
  12  -1   4   33.68    1.66 
  12   1  -4   32.85    1.58 
  12   1   4   27.87    1.57 
  12  -1  -4   33.23    1.61 
  13   1   0    2.12    0.43 
  13  -1   0    1.85    0.40 
  13   1  -1    8.44    0.72 
  13  -1   1    9.50    0.78 
  13   1   1    9.54    0.77 
  13  -1  -1    9.27    0.76 
  13  -1   2    3.34    0.55 
  13   1  -2    4.00    0.58 
  13  -1  -2    3.72    0.54 
  13   1   2    5.68    0.72 
  13  -1   3   11.85    0.92 
  13   1  -3   13.30    0.93 
  13   1   3   12.38    0.93 
  13  -1  -3   12.86    0.93 
  14   1   0   43.38    1.97 
  14  -1   0   43.04    1.96 
  14  -1   1   72.16    2.95 
  14   1  -1   72.08    2.93 
  14  -1  -1   76.56    2.97 
  14   1   1   74.31    2.97 
  14  -1   2   16.19    1.12 
  14   1  -2   19.66    1.19 
  14  -1  -2   20.95    1.21 
  14   1   2   19.93    1.20 
  14   1  -3   34.36    1.70 
  14  -1   3   33.29    1.73 
  14  -1  -3   33.51    1.70 
  14   1   3   33.29    1.72 
  15  -1   0    0.85    0.38 
  15   1   0    0.75    0.35 
  15   1  -1    3.07    0.57 
  15  -1   1    2.79    0.54 
   0   2   0  122.79    3.94 
   0  -2   0  127.79    3.94 
   0  -2   1  246.74    7.61 
   0   2  -1  243.55    7.58 
   0  -2  -1  235.99    7.63 
   0  -2   1  249.95    7.58 
   0   2  -2  100.91    3.21 
   0  -2  -2   97.64    3.31 
   0  -2   2  102.58    3.28 
   0   2  -3  152.25    4.89 
   0  -2  -3  154.54    5.06 
   0  -2   3  155.94    5.03 
   0  -2   4    3.19    0.39 
   0  -2  -4    4.15    0.48 
   0  -2   5   12.10    0.79 
   0  -2   6    0.00    0.24 
   0  -2  -6    0.44    0.30 
   0  -2  -7    1.84    0.50 
   0   2  -7    2.29    0.51 
   1  -2   0   -1.08    0.07 
   1   2   0   -0.94    0.08 
   1  -2   0   -1.01    0.06 
   1   2   0   -0.92    0.06 
  -1  -2   0   -1.01    0.07 
   1  -2   1    5.16    0.26 
   1   2  -1    5.00    0.29 
   1  -2   1    5.07    0.30 
   1   2   1    5.38    0.29 
  -1   2  -1    5.24    0.25 
   1   2   1    5.52    0.28 
  -1  -2   1    5.36    0.29 
  -1  -2  -2    0.80    0.19 
   1  -2   2    0.79    0.14 
   1  -2   2    1.00    0.20 
  -1   2  -2    0.66    0.12 
   1  -2  -2    0.52    0.17 
   1   2   2    0.68    0.17 
  -1  -2   2    0.65    0.16 
   1  -2   3    1.49    0.21 
   1  -2   3    1.66    0.26 
  -1  -2  -3    1.73    0.28 
   1  -2  -3    1.85    0.29 
  -1   2  -3    1.55    0.16 
  -1  -2   3    1.39    0.24 
  -1  -2  -4    1.21    0.28 
   1  -2   4    1.21    0.28 
   1  -2  -4    1.51    0.31 
  -1  -2   4    0.89    0.25 
   1  -2   5    2.57    0.42 
  -1  -2  -5    2.89    0.46 
   1  -2  -5    3.63    0.50 
  -1  -2   5    3.90    0.50 
   1  -2   6    0.33    0.26 
  -1  -2  -6   -0.02    0.23 
  -1  -2   6    0.14    0.26 
   1  -2  -6    0.24    0.23 
   1   2  -7    0.06    0.29 
  -1   2  -7    0.18    0.29 
   1  -2  -7    0.42    0.34 
   2   2   0  271.15    8.52 
   2  -2   0  280.72    8.49 
  -2  -2   0  283.09    8.47 
   2  -2   0  270.94    8.49 
   2   2   0  265.90    8.48 
   2   2  -1  859.44   23.99 
   2  -2   1  783.07   24.08 
   2  -2   1  820.00   24.24 
  -2  -2  -1  686.13   24.11 
  -2  -2   1  764.74   23.97 
   2  -2  -1  763.07   24.18 
   2   2   1  757.03   24.09 
   2   2   1  743.06   23.95 
   2  -2   2   89.27    3.02 
   2  -2   2   93.84    2.97 
  -2  -2   2   93.81    3.00 
   2  -2  -2   91.06    3.02 
   2   2   2   90.62    3.01 
  -2   2  -2   91.11    2.87 
  -2  -2  -3  422.89   13.14 
   2  -2   3  413.80   13.03 
   2  -2   3  415.13   13.12 
  -2   2  -3  418.13   12.86 
   2   2   3  429.84   13.09 
   2  -2  -3  405.92   13.11 
  -2  -2   3  419.96   13.08 
  -2  -2  -4    9.83    0.65 
   2  -2   4    8.67    0.61 
   2  -2   4    9.01    0.54 
   2  -2  -4   10.31    0.65 
  -2  -2   4    9.21    0.59 
   2  -2   5   52.62    2.16 
  -2  -2  -5   56.06    2.21 
   2  -2  -5   53.27    2.16 
  -2  -2   5   54.37    2.15 
   2   2  -6    1.22    0.36 
  -2  -2  -6    1.28    0.38 
   2  -2   6    1.10    0.35 
   2  -2  -6    1.74    0.42 
  -2  -2   6    1.94    0.42 
   2   2  -7    1.82    0.47 
  -2  -2  -7    2.27    0.54 
  -2   2  -7    1.13    0.40 
   2  -2  -7    2.54    0.53 
   3   2   0    1.57    0.20 
   3  -2   0    1.38    0.16 
   3  -2   0    1.49    0.19 
  -3  -2   0    1.37    0.13 
   3   2   0    1.30    0.17 
   3  -2   1   18.96    0.73 
  -3  -2  -1   19.31    0.74 
   3  -2   1   18.54    0.74 
   3   2  -1   19.40    0.70 
   3   2   1   19.32    0.71 
   3   2   1   19.43    0.76 
   3  -2  -1   19.20    0.74 
   3  -2  -1   18.39    0.71 
  -3  -2   1   18.55    0.67 
  -3  -2  -2   23.42    0.93 
   3  -2   2   23.16    0.92 
   3  -2   2   22.01    0.88 
   3  -2  -2   21.14    0.89 
   3   2   2   21.93    0.79 
  -3  -2   2   23.00    0.86 
   3  -2   3   20.21    0.85 
  -3  -2  -3   20.78    0.93 
   3  -2   3   20.07    0.91 
   3  -2  -3   18.50    0.88 
   3   2   3   18.79    0.87 
  -3  -2  -4   12.09    0.76 
   3  -2   4   13.05    0.69 
   3  -2  -4   12.86    0.75 
   3   2   4   12.47    0.71 
  -3  -2   4   12.94    0.72 
  -3  -2  -5   12.28    0.85 
   3  -2   5   13.67    0.85 
   3  -2  -5   13.10    0.83 
  -3  -2   5   13.10    0.80 
   3   2  -6    5.37    0.67 
  -3  -2  -6    7.23    0.80 
   3  -2   6    7.48    0.79 
   3  -2  -6    6.98    0.76 
  -4  -2   0  858.02   24.53 
   4   2   0  764.64   24.62 
   4  -2   0  783.65   24.56 
   4  -2   0  771.10   24.81 
   4   2  -1  188.93    5.85 
   4  -2   1  181.99    5.85 
  -4  -2  -1  178.08    5.84 
   4  -2   1  184.69    5.89 
   4   2   1  181.67    5.90 
   4  -2  -1  188.24    5.88 
  -4  -2   1  187.12    5.76 
   4   2   1  192.66    5.84 
   4  -2  -1  188.67    5.82 
  -4  -2  -2  365.81   11.62 
   4   2  -2  379.39   11.56 
   4  -2   2  369.23   11.62 
   4  -2   2  381.09   11.62 
   4   2   2  363.39   11.63 
  -4  -2   2  368.59   11.53 
   4   2   2  368.78   11.48 
   4  -2  -2  374.84   11.58 
  -4  -2  -3  151.74    4.93 
   4  -2   3  150.79    4.86 
   4  -2   3  147.73    4.91 
   4   2   3  150.54    4.91 
  -4  -2   3  146.94    4.82 
   4  -2  -3  147.10    4.86 
   4  -2   4  216.76    6.97 
   4  -2   4  206.88    6.86 
  -4  -2  -4  210.31    6.97 
  -4  -2   4  214.57    6.88 
   4  -2  -4  219.92    6.93 
   4   2   4  205.37    6.92 
   4  -2   5   21.86    1.05 
  -4  -2  -5   21.84    1.15 
   4  -2   5   20.88    1.12 
  -4  -2   5   20.28    1.06 
   4  -2  -5   20.14    1.09 
   4   2   5   20.30    1.07 
   4  -2   6   28.25    1.46 
  -4  -2  -6   26.26    1.45 
   4   2  -6   28.21    1.41 
   4  -2  -6   26.83    1.41 
   5  -2   0   67.25    2.28 
  -5  -2   0   68.27    2.12 
   5   2   0   66.20    2.27 
   5  -2   0   66.95    2.18 
   5  -2   1   16.04    0.71 
   5  -2   1   14.68    0.64 
   5   2  -1   15.32    0.67 
  -5  -2  -1   15.16    0.64 
   5   2   1   16.90    0.66 
  -5  -2   1   16.44    0.55 
   5  -2  -1   15.83    0.61 
   5  -2  -1   16.23    0.70 
   5  -2   2    2.92    0.34 
  -5  -2  -2    3.41    0.34 
   5  -2   2    2.98    0.31 
   5   2  -2    3.09    0.27 
   5  -2  -2    3.81    0.31 
  -5  -2   2    3.40    0.23 
   5   2   2    3.36    0.35 
   5  -2  -2    2.96    0.26 
   5   2   2    3.25    0.22 
   5   2  -3   21.90    0.96 
  -5  -2  -3   24.46    1.06 
   5  -2   3   24.27    1.03 
   5  -2   3   22.04    1.03 
   5  -2  -3   22.86    1.00 
   5   2   3   24.28    1.06 
  -5  -2   3   24.82    0.97 
   5   2  -4   15.81    0.78 
   5  -2   4   14.64    0.81 
   5  -2   4   16.67    0.88 
  -5  -2  -4   15.36    0.88 
   5  -2  -4   15.19    0.82 
  -5  -2   4   14.98    0.80 
   5  -2   5   33.67    1.56 
  -5  -2  -5   32.05    1.55 
   5   2  -5   35.22    1.49 
   5  -2   5   33.19    1.47 
   5   2   5   33.49    1.51 
   5  -2  -5   33.85    1.50 
   5  -2   6   22.82    1.19 
   5  -2   6   22.04    1.30 
  -5  -2  -6   23.93    1.33 
   5  -2  -6   23.27    1.26 
   6  -2   0  431.54   13.52 
   6  -2   0  431.26   13.37 
   6   2   0  435.07   13.51 
   6  -2   1  189.49    6.16 
  -6  -2  -1  193.43    6.14 
   6  -2   1  198.77    6.28 
   6   2  -1  191.16    6.22 
   6  -2  -1  202.66    6.27 
   6   2   1  198.36    6.20 
   6   2   1  190.36    6.27 
   6  -2  -1  198.87    6.11 
   6   2  -2  192.57    6.18 
  -6  -2  -2  198.10    6.19 
   6  -2   2  199.99    6.25 
   6  -2   2  200.32    6.20 
   6  -2  -2  187.01    6.22 
  -6  -2   2  188.11    6.04 
   6   2   2  194.95    6.09 
   6   2   2  184.56    6.25 
   6  -2  -2  193.50    6.11 
   6  -2   3   50.38    1.86 
   6  -2   3   48.31    1.85 
   6   2  -3   49.71    1.79 
  -6  -2  -3   52.41    1.87 
   6  -2  -3   46.33    1.76 
   6  -2  -3   47.39    1.84 
   6   2   3   45.63    1.86 
   6  -2   4   34.96    1.54 
   6  -2   4   36.69    1.52 
  -6  -2  -4   37.15    1.57 
   6   2  -4   36.79    1.46 
   6   2   4   34.54    1.54 
   6  -2  -4   35.35    1.47 
   6  -2  -4   38.13    1.53 
   6  -2   5    3.64    0.48 
   6   2  -5    4.11    0.48 
  -6  -2  -5    3.54    0.51 
   6  -2   5    2.95    0.47 
   6  -2  -5    2.88    0.45 
   6   2   5    2.47    0.43 
   6  -2   6    5.05    0.62 
   6  -2   6    5.38    0.70 
   6   2  -6    5.15    0.58 
  -6  -2  -6    4.62    0.68 
   6   2   6    5.49    0.68 
   7   2   0    8.97    0.52 
   7  -2   0    8.32    0.39 
   7  -2   0    9.38    0.54 
   7  -2   1    9.62    0.47 
   7  -2   1    9.62    0.57 
  -7  -2  -1    9.99    0.45 
   7   2  -1   10.25    0.55 
   7  -2  -1    8.93    0.55 
   7   2   1    8.66    0.49 
   7  -2  -1    9.27    0.41 
   7   2  -2   49.24    1.81 
   7  -2   2   49.33    1.88 
  -7  -2  -2   52.27    1.79 
   7  -2   2   49.67    1.79 
   7  -2  -2   47.90    1.69 
   7   2   2   48.85    1.88 
   7   2   2   49.40    1.71 
   7  -2  -2   47.98    1.84 
   7  -2   3   47.85    1.83 
   7  -2   3   46.09    1.85 
   7   2  -3   48.38    1.79 
  -7  -2  -3   48.36    1.82 
   7   2   3   46.77    1.87 
   7  -2  -3   45.77    1.81 
   7   2  -4   31.14    1.29 
   7  -2   4   27.84    1.31 
   7  -2   4   29.30    1.36 
  -7  -2  -4   29.20    1.35 
   7   2   4   30.15    1.38 
   7  -2  -4   29.50    1.33 
   7  -2   5   37.21    1.68 
  -7  -2  -5   38.50    1.71 
   7   2  -5   36.58    1.56 
   7  -2   5   37.46    1.63 
   7  -2  -5   34.24    1.60 
   7   2   5   33.66    1.63 
  -7  -2  -6   25.38    1.43 
   7  -2   6   26.72    1.43 
   7   2  -6   25.80    1.71 
   7  -2   6   24.29    1.31 
   7  -2  -6   23.67    1.29 
   7   2   6   23.63    1.33 
   8  -2   0  123.04    4.05 
   8   2   0  116.74    4.02 
   8   2  -1    5.51    0.42 
   8  -2   1    5.43    0.44 
   8  -2   1    5.44    0.33 
   8   2   1    3.67    0.34 
   8   2   1    3.48    0.40 
   8  -2  -1    3.74    0.43 
   8  -2   2  146.02    4.79 
  -8  -2  -2  141.28    4.63 
   8  -2   2  143.67    4.66 
   8   2  -2  142.43    4.72 
   8  -2  -2  137.40    4.73 
   8   2   2  141.31    4.78 
  -8  -2  -3    1.47    0.30 
   8   2  -3    1.94    0.31 
   8  -2   3    1.51    0.32 
   8  -2   3    2.16    0.34 
   8   2   3    3.30    0.45 
   8  -2  -3    3.01    0.40 
   8  -2   4   32.10    1.43 
   8   2  -4   32.36    1.39 
  -8  -2  -4   28.97    1.40 
   8  -2   4   33.88    1.48 
   8  -2  -4   31.30    1.42 
   8   2   4   31.14    1.47 
   8  -2   5    3.69    0.56 
   8  -2   5    4.16    0.56 
  -8  -2  -5    3.72    0.55 
   8   2  -5    4.04    0.50 
   8   2   5    4.20    0.57 
   8  -2  -5    2.79    0.46 
  -8  -2  -6    5.85    0.75 
   8  -2   6    4.31    0.61 
   8  -2   6    5.44    0.73 
   8   2   6    5.15    0.68 
   8  -2  -6    5.60    0.69 
   9  -2   0    0.05    0.15 
   9   2   0   -0.06    0.15 
   9  -2   1   20.21    1.05 
   9   2  -1   21.11    1.03 
   9  -2  -1   23.32    1.06 
   9   2   1   23.80    1.09 
   9   2   1   22.64    0.99 
   9   2  -2   22.64    1.07 
   9  -2   2   23.49    1.13 
   9  -2   2   21.54    1.17 
   9  -2  -2   21.28    1.07 
   9   2   2   25.90    1.16 
   9  -2   3   27.66    1.34 
   9  -2   3   28.01    1.25 
   9   2  -3   27.23    1.27 
   9  -2  -3   29.81    1.33 
   9   2   3   31.92    1.39 
   9  -2   4   31.85    1.49 
   9   2  -4   31.49    1.42 
  -9  -2  -4   32.21    1.56 
   9  -2   4   31.41    1.44 
   9  -2  -4   30.06    1.44 
   9   2   4   32.35    1.51 
   9   2  -5   47.24    1.96 
   9  -2   5   46.07    2.03 
   9  -2   5   42.48    1.99 
  -9  -2  -5   46.43    2.04 
   9  -2  -5   52.54    2.06 
   9   2   5   44.90    2.04 
  10   2   0   31.29    1.39 
  10  -2   0   32.98    1.43 
  10   2  -1   58.09    2.25 
  10  -2   1   57.56    2.28 
  10  -2  -1   59.90    2.27 
  10   2   1   60.50    2.18 
  10   2   1   58.73    2.28 
  10  -2   2   32.10    1.45 
  10   2  -2   32.51    1.41 
  10  -2  -2   31.19    1.42 
  10   2   2   31.48    1.46 
  10  -2   3   22.61    1.18 
  10   2  -3   22.61    1.12 
  10   2   3   21.82    1.17 
  10  -2  -3   21.96    1.15 
  10  -2   4    7.93    0.69 
  10   2  -4    7.80    0.66 
  10   2   4   10.30    0.77 
  10  -2  -4    9.23    0.71 
  10  -2   5    6.89    0.77 
  10   2  -5    5.80    0.65 
  10  -2  -5    5.70    0.68 
  10   2   5    5.13    0.67 
  11  -2   0    0.38    0.22 
  11   2   0    1.12    0.29 
  11  -2   1   24.07    1.17 
  11   2  -1   22.72    1.13 
  11  -2  -1   21.73    1.13 
  11   2   1   20.61    1.03 
  11   2   1   21.88    1.14 
  11   2  -2   20.49    1.05 
  11  -2   2   19.15    1.06 
  11   2   2   17.53    1.04 
  11  -2  -2   18.20    1.04 
  11   2  -3   32.37    1.47 
  11  -2   3   30.91    1.51 
  11  -2  -3   30.80    1.48 
  11   2   3   30.48    1.51 
  11   2  -4   28.06    1.41 
  11  -2   4   29.38    1.50 
  11  -2  -4   31.14    1.50 
  12  -2   0   19.67    1.07 
  12   2   0   16.83    1.02 
  12  -2   1   47.33    1.98 
  12   2  -1   44.89    1.92 
  12  -2  -1   44.59    1.94 
  12   2   1   44.81    1.95 
  12   2  -2   10.78    0.76 
  12  -2   2    9.68    0.77 
  12   2   2    9.88    0.78 
  12  -2  -2   11.08    0.80 
  12  -2   3   19.54    1.17 
  12   2  -3   20.79    1.14 
  12  -2  -3   21.26    1.19 
  12   2   3   19.34    1.17 
  12   2  -4    7.46    0.78 
  12  -2   4    6.70    0.76 
  12  -2  -4    7.50    0.80 
  12   2   4    6.55    0.78 
  13  -2   0    2.54    0.46 
  13   2   0    2.88    0.49 
  13  -2   1    7.75    0.79 
  13   2  -1    6.61    0.71 
  13  -2  -1    6.48    0.71 
  13   2   1    8.47    0.71 
  13  -2   2   14.57    1.00 
  13   2  -2   15.45    1.00 
  13   2   2   16.35    1.05 
  13  -2  -2   15.75    1.03 
  13   2  -3   29.47    1.52 
  13  -2  -3   32.94    1.60 
  13   2   3   30.07    1.59 
  14   2   0    1.53    0.39 
  14   2   0    1.84    0.42 
  14  -2   1   16.42    1.08 
  14   2  -1   16.18    1.05 
  14  -2  -1   15.59    1.07 
  14   2   1   17.19    1.09 
  14  -2   2    0.95    0.36 
  14   2  -2    1.25    0.38 
  14  -2  -2    0.68    0.35 
  14   2   2    0.95    0.37 
  15  -2   0    0.71    0.35 
  15   2   0    1.03    0.36 
  15  -2   1    7.70    0.86 
  15   2  -1    7.79    0.83 
  15  -2  -1    6.12    0.78 
  15   2   1    5.96    0.75 
   0   3   0    0.10    0.07 
   0  -3   0    0.11    0.09 
   0  -3   1    3.03    0.13 
   0  -3   1    2.94    0.22 
   0  -3  -1    3.00    0.25 
   0   3  -1    2.99    0.21 
   0  -3   2   11.26    0.53 
   0   3  -2   10.94    0.48 
   0  -3  -3   15.86    0.79 
   0  -3   3   16.68    0.77 
   0   3  -3   14.83    0.64 
   0  -3   4    2.63    0.37 
   0  -3  -4    2.47    0.38 
   0  -3   5    4.52    0.53 
   0  -3  -5    4.75    0.60 
   0  -3  -6    1.50    0.39 
   0  -3   6    1.47    0.39 
   0  -3  -7   -0.08    0.31 
   0  -3   7    0.04    0.31 
   1  -3   0   22.40    0.86 
   1   3   0   23.99    0.88 
   1  -3   0   23.60    0.80 
   1   3   0   23.43    0.79 
  -1  -3   0   22.76    0.85 
   1   3  -1  447.67   14.72 
   1  -3   1  495.01   14.74 
   1  -3   1  473.88   14.76 
   1   3  -1  491.56   14.70 
  -1  -3   1  529.59   14.73 
  -1   3  -1  445.84   14.68 
   1   3   1  476.74   14.70 
   1   3   1  458.18   14.71 
   1  -3  -1  464.99   14.74 
   1   3  -2   86.03    2.78 
   1  -3   2   88.21    2.72 
   1  -3   2   86.42    2.81 
  -1  -3  -2   84.98    2.84 
  -1  -3   2   81.30    2.78 
   1   3   2   82.61    2.79 
  -1   3  -2   82.33    2.71 
   1  -3  -2   82.70    2.84 
   1  -3   3  251.41    8.04 
  -1  -3  -3  244.83    8.07 
   1   3  -3  243.40    7.94 
   1  -3   3  246.56    7.92 
   1  -3  -3  254.56    8.08 
  -1  -3   3  262.84    8.03 
  -1   3  -3  261.05    7.87 
   1   3  -4  179.51    5.73 
   1  -3   4  177.76    5.88 
  -1  -3  -4  178.14    5.92 
   1  -3  -4  179.61    5.91 
  -1  -3   4  174.31    5.85 
   1  -3   5  147.75    5.24 
  -1  -3  -5  150.09    5.27 
  -1  -3   5  157.49    5.23 
   1  -3  -5  158.03    5.28 
   1  -3   6   70.24    2.84 
  -1  -3  -6   72.84    2.89 
   1  -3  -6   74.18    2.90 
  -1  -3   6   70.73    2.83 
   1   3  -7   65.83    2.78 
   1  -3   7   61.98    2.77 
  -1  -3  -7   64.94    2.82 
   1  -3  -7   70.56    2.85 
  -2  -3   0    0.16    0.11 
   2  -3   0    0.16    0.12 
   2  -3   0    0.06    0.09 
   2   3   0    0.21    0.09 
   2   3   0    0.30    0.13 
   2  -3   1   31.89    1.18 
   2  -3   1   33.80    1.14 
  -2  -3  -1   34.26    1.21 
   2   3  -1   30.84    1.19 
   2   3  -1   32.79    1.09 
   2   3   1   32.98    1.17 
  -2  -3   1   34.46    1.16 
   2   3   1   34.34    1.17 
   2  -3  -1   33.80    1.19 
   2  -3   2   54.04    1.91 
  -2  -3  -2   57.35    1.96 
   2   3  -2   52.15    1.89 
   2  -3   2   56.96    1.84 
  -2   3  -2   54.57    1.78 
   2  -3  -2   54.35    1.93 
  -2  -3   2   53.44    1.87 
   2   3   2   55.58    1.90 
   2  -3   3    4.58    0.32 
   2  -3   3    4.29    0.37 
   2   3  -3    4.94    0.35 
  -2   3  -3    4.30    0.24 
  -2  -3   3    4.40    0.36 
   2   3   3    5.13    0.38 
   2  -3  -3    4.51    0.40 
  -2  -3  -4    1.85    0.35 
   2  -3   4    3.00    0.34 
   2  -3   4    1.98    0.34 
   2   3  -4    2.83    0.35 
  -2  -3   4    3.14    0.41 
   2  -3  -4    3.48    0.45 
  -2  -3  -5    4.18    0.55 
   2  -3   5    4.86    0.59 
   2  -3  -5    5.79    0.62 
  -2  -3   5    6.22    0.62 
  -2  -3  -6    0.41    0.31 
   2  -3   6    0.39    0.28 
  -2  -3   6    0.78    0.31 
   2  -3  -6    0.67    0.33 
   3  -3   0    2.09    0.20 
   3   3   0    2.49    0.23 
  -3  -3   0    2.35    0.18 
   3  -3   0    1.85    0.19 
  -3  -3  -1   18.50    0.79 
   3   3  -1   19.42    0.73 
   3  -3   1   20.52    0.77 
   3  -3   1   19.40    0.79 
   3   3   1   19.34    0.78 
  -3  -3   1   20.50    0.74 
   3   3   1   21.26    0.78 
   3  -3  -1   19.26    0.78 
   3  -3  -1   20.17    0.78 
   3  -3   2   47.02    1.64 
   3  -3   2   45.22    1.69 
  -3  -3  -2   45.37    1.71 
   3   3  -2   44.19    1.59 
   3   3   2   48.17    1.69 
   3  -3  -2   49.91    1.70 
  -3  -3   2   49.20    1.64 
   3   3   2   48.78    1.60 
   3  -3   3  113.71    3.83 
  -3  -3  -3  114.45    3.86 
  -3  -3   3  114.35    3.77 
   3  -3  -3  115.28    3.83 
   3   3   3  111.93    3.81 
   3  -3   4  119.16    3.90 
  -3  -3  -4  112.30    4.03 
   3  -3   4  115.61    4.01 
  -3  -3   4  117.09    3.96 
   3  -3  -4  114.99    3.99 
   3   3   4  118.19    3.99 
   3  -3   5   76.23    2.89 
  -3  -3  -5   76.51    2.92 
   3  -3  -5   76.53    2.86 
  -3  -3   5   75.58    2.82 
  -3  -3  -6   67.95    2.79 
   3  -3   6   66.90    2.76 
  -3  -3   6   70.30    2.74 
   3  -3  -6   69.70    2.76 
   4   3   0   37.24    1.34 
   4  -3   0   38.39    1.31 
   4   3   0   34.27    1.28 
  -4  -3   0   37.09    1.23 
   4  -3   0   36.48    1.28 
   4  -3   1   55.59    1.94 
   4   3  -1   57.95    2.01 
   4   3  -1   57.72    1.91 
   4  -3   1   59.06    1.96 
  -4  -3  -1   58.24    1.94 
   4   3   1   56.19    1.96 
   4   3   1   58.96    1.94 
   4  -3  -1   56.98    1.95 
   4  -3  -1   55.75    1.91 
  -4  -3   1   56.15    1.86 
  -4  -3  -2   57.25    1.93 
   4  -3   2   53.20    1.90 
   4  -3   2   55.28    1.88 
   4   3  -2   54.67    1.83 
   4   3   2   51.74    1.91 
  -4  -3   2   52.93    1.82 
   4  -3  -2   51.26    1.87 
   4   3   2   54.20    1.81 
   4  -3   3   22.96    0.93 
  -4  -3  -3   23.48    1.02 
   4  -3   3   21.22    0.97 
   4   3  -3   20.83    0.86 
   4  -3  -3   20.20    0.95 
  -4  -3   3   20.57    0.90 
   4   3   3   19.62    0.94 
   4  -3   4   11.40    0.71 
  -4  -3  -4   11.19    0.75 
   4  -3   4   10.40    0.62 
  -4  -3   4   10.86    0.65 
   4   3   4   11.60    0.69 
   4  -3  -4   11.52    0.71 
   4  -3   5    3.15    0.46 
   4  -3   5    3.20    0.42 
  -4  -3  -5    3.42    0.53 
  -4  -3   5    3.19    0.45 
   4  -3  -5    3.43    0.50 
   4   3   5    2.52    0.42 
   4   3  -6    1.37    0.37 
   4  -3   6    0.36    0.29 
  -4  -3  -6    0.89    0.37 
   4  -3  -6    0.42    0.33 
   5   3   0  192.39    6.18 
  -5  -3   0  195.02    6.02 
   5  -3   0  191.14    6.09 
   5   3   0  192.95    6.14 
   5  -3   0  196.21    6.16 
   5  -3   1   77.02    2.61 
   5   3  -1   74.88    2.56 
   5  -3   1   74.53    2.56 
  -5  -3  -1   78.97    2.56 
   5  -3  -1   74.68    2.53 
   5   3   1   80.51    2.58 
  -5  -3   1   77.47    2.46 
   5  -3  -1   78.03    2.61 
   5   3   1   79.06    2.63 
   5  -3   2  106.66    3.47 
   5  -3   2  107.82    3.47 
  -5  -3  -2  106.09    3.47 
   5   3  -2  105.68    3.40 
   5   3   2  101.48    3.35 
  -5  -3   2  101.46    3.35 
   5  -3  -2  104.52    3.47 
   5  -3  -2  102.19    3.42 
   5   3   2   99.83    3.48 
  -5  -3  -3  115.12    3.92 
   5   3  -3  111.51    3.79 
   5  -3   3  110.88    3.85 
   5  -3   3  111.69    3.90 
  -5  -3   3  121.60    3.81 
   5  -3  -3  118.40    3.86 
   5   3   3  118.37    3.93 
  -5  -3  -4   83.90    3.07 
   5  -3   4   84.62    2.98 
   5   3  -4   85.53    2.91 
   5  -3   4   84.32    3.05 
   5  -3  -4   86.29    3.01 
  -5  -3   4   83.10    2.94 
   5   3   4   81.87    3.03 
   5  -3   5   66.11    2.53 
  -5  -3  -5   63.81    2.65 
   5  -3   5   63.73    2.63 
   5   3   5   70.19    2.64 
   5  -3  -5   71.21    2.62 
  -5  -3   5   71.89    2.58 
  -5  -3  -6   63.45    2.61 
   5  -3   6   63.22    2.59 
   5  -3   6   60.72    2.42 
   5  -3  -6   59.19    2.50 
   6   3   0  111.78    3.76 
   6  -3   0  113.62    3.68 
   6  -3   0  115.51    3.79 
  -6  -3   0  114.73    3.59 
   6   3   0  118.06    3.81 
   6   3  -1  162.60    5.33 
   6  -3   1  157.69    5.30 
  -6  -3  -1  169.03    5.29 
   6  -3   1  165.64    5.38 
   6  -3  -1  166.45    5.26 
   6  -3  -1  173.17    5.39 
  -6  -3   1  168.48    5.16 
   6   3   1  170.08    5.34 
   6   3   1  164.06    5.38 
   6  -3   2   80.78    2.83 
   6   3  -2   79.58    2.80 
  -6  -3  -2   85.60    2.85 
   6  -3   2   81.35    2.87 
   6  -3  -2   86.99    2.88 
  -6  -3   2   83.88    2.70 
   6   3   2   82.24    2.89 
   6   3   2   85.41    2.76 
   6  -3  -2   83.56    2.78 
   6   3  -3   31.41    1.26 
   6  -3   3   31.23    1.32 
  -6  -3  -3   33.37    1.36 
   6  -3   3   31.63    1.33 
   6   3   3   31.13    1.36 
   6  -3  -3   31.65    1.28 
   6  -3  -3   33.02    1.35 
   6  -3   4   21.10    1.04 
  -6  -3  -4   22.44    1.12 
   6   3  -4   21.03    0.98 
   6  -3   4   20.29    1.08 
   6  -3  -4   23.64    1.07 
   6   3   4   22.29    1.10 
   6  -3  -4   21.73    1.06 
   6   3  -5   10.06    0.66 
  -6  -3  -5    9.65    0.78 
   6  -3   5   10.76    0.79 
   6  -3   5   10.11    0.71 
   6   3   5   10.39    0.75 
   6  -3  -5   11.06    0.76 
   6  -3   6    0.55    0.28 
  -6  -3  -6   -0.13    0.27 
   6  -3   6    0.06    0.27 
   6   3   6    0.10    0.23 
   7   3   0   10.28    0.56 
   7   3   0    8.67    0.52 
   7  -3   0    8.28    0.43 
  -7  -3  -1   69.27    2.27 
   7  -3   1   68.51    2.31 
   7   3  -1   66.91    2.37 
   7  -3   1   69.75    2.42 
   7  -3  -1   67.48    2.40 
   7   3   1   67.45    2.42 
   7  -3  -1   65.35    2.25 
   7   3   1   69.15    2.36 
   7  -3   2   23.67    1.05 
   7   3  -2   21.85    0.98 
  -7  -3  -2   25.01    1.00 
   7  -3   2   23.31    1.00 
   7  -3  -2   22.52    0.92 
   7   3   2   24.30    0.94 
   7   3   2   22.49    1.05 
   7  -3  -2   21.78    1.03 
  -7  -3  -3  110.60    3.64 
   7  -3   3  110.57    3.66 
   7  -3   3  109.37    3.64 
   7   3  -3  105.67    3.57 
   7  -3  -3   99.40    3.53 
   7   3   3  103.07    3.67 
   7  -3  -3   98.88    3.62 
   7  -3   4   39.01    1.61 
   7  -3   4   39.95    1.65 
   7   3  -4   40.09    1.55 
  -7  -3  -4   38.43    1.64 
   7  -3  -4   34.81    1.58 
   7   3   4   35.27    1.63 
   7  -3   5   55.30    2.25 
  -7  -3  -5   59.23    2.36 
   7  -3   5   61.14    2.36 
   7   3  -5   56.20    2.18 
   7   3   5   53.89    2.30 
   7  -3  -5   54.01    2.26 
   7  -3   6   35.49    1.64 
   7  -3   6   34.33    1.73 
   7   3   6   33.40    1.69 
   8  -3   0   89.41    2.97 
   8   3   0   91.79    3.16 
   8  -3   0   95.84    3.18 
   8   3   0   87.83    3.13 
   8  -3   1   93.28    3.09 
   8  -3   1   87.75    2.92 
   8   3  -1   88.88    3.04 
   8   3   1   84.73    3.06 
   8  -3  -1   86.42    3.06 
   8   3   1   85.98    2.99 
   8  -3   2   50.90    2.01 
  -8  -3  -2   51.48    1.89 
   8  -3   2   52.06    1.91 
   8   3  -2   51.13    1.95 
   8   3   2   54.10    2.04 
   8  -3  -2   55.21    2.02 
  -8  -3  -3   24.38    1.12 
   8   3  -3   24.70    1.11 
   8  -3   3   23.07    1.16 
   8  -3   3   23.97    1.13 
   8   3   3   27.49    1.23 
   8  -3  -3   25.93    1.18 
   8   3  -4   17.64    0.93 
   8  -3   4   17.91    1.00 
   8  -3   4   19.18    1.02 
  -8  -3  -4   18.78    1.01 
   8  -3  -4   18.45    1.00 
   8   3   4   18.96    1.05 
   8  -3   5    4.39    0.57 
  -8  -3  -5    5.09    0.65 
   8  -3   5    4.05    0.57 
   8  -3  -5    3.36    0.51 
   8   3   5    5.76    0.68 
   8  -3   6    0.41    0.34 
  -8  -3  -6   -0.31    0.27 
   8  -3   6    0.62    0.31 
   8  -3  -6    1.12    0.36 
   8   3   6    0.94    0.36 
   9   3   0   52.94    2.04 
   9   3   0   55.25    2.05 
   9  -3   0   52.76    2.05 
   9   3  -1   26.04    1.20 
   9  -3   1   26.74    1.23 
   9  -3  -1   28.13    1.24 
   9   3   1   28.28    1.18 
   9   3   1   28.63    1.25 
   9   3  -2   26.59    1.19 
   9  -3   2   27.17    1.26 
   9  -3   2   25.91    1.14 
   9  -3  -2   27.26    1.25 
   9   3   2   29.80    1.30 
   9   3  -3   17.96    0.92 
   9  -3   3   16.79    0.96 
   9  -3   3   16.24    0.89 
   9  -3  -3   17.66    0.96 
   9   3   3   18.98    1.01 
   9  -3   4   30.83    1.51 
   9  -3   4   33.53    1.52 
   9   3  -4   32.94    1.46 
   9  -3  -4   35.97    1.56 
   9   3   4   33.05    1.56 
  -9  -3  -5   25.34    1.47 
   9  -3   5   26.05    1.36 
   9  -3   5   26.33    1.38 
   9  -3  -5   26.04    1.35 
   9   3   5   25.71    1.39 
  10  -3   0   91.04    3.27 
  10   3   0   91.63    3.24 
  10   3   0   89.72    3.23 
  10  -3   1  125.05    4.37 
  10   3  -1  129.93    4.34 
  10   3   1  128.82    4.28 
  10  -3  -1  123.57    4.35 
  10   3   1  125.03    4.36 
  10   3  -2   95.05    3.26 
  10  -3   2   90.39    3.31 
  10   3   2   90.02    3.31 
  10  -3  -2   88.71    3.28 
  10   3  -3   41.35    1.73 
  10  -3   3   41.92    1.81 
  10   3   3   42.79    1.84 
  10  -3  -3   40.78    1.78 
  10   3  -4   16.89    0.96 
  10  -3   4   16.28    1.01 
  10  -3  -4   16.44    1.01 
  10   3   4   16.22    1.03 
  10  -3   5   10.08    0.85 
  10  -3   5   11.70    0.88 
  10  -3  -5   11.30    0.88 
  10   3   5   11.55    0.90 
  11  -3   0    8.07    0.64 
  11   3   0    8.12    0.62 
  11   3   0    8.86    0.65 
  11  -3   1   22.36    1.15 
  11   3  -1   22.75    1.12 
  11  -3  -1   20.50    1.11 
  11   3   1   22.42    1.14 
  11   3   1   21.28    1.04 
  11   3  -2   16.89    0.96 
  11  -3   2   16.44    1.00 
  11  -3  -2   19.26    1.05 
  11   3   2   18.46    1.04 
  11  -3   3   22.44    1.21 
  11  -3  -3   22.90    1.21 
  11   3   3   21.13    1.19 
  11   3  -4   16.16    1.00 
  11  -3   4   16.58    1.06 
  11   3   4   18.74    1.12 
  11  -3  -4   17.06    1.06 
  12   3   0   84.35    3.14 
  12   3   0   84.72    3.11 
  12  -3   0   82.52    3.15 
  12   3  -1   63.16    2.48 
  12  -3   1   62.43    2.51 
  12   3   1   64.13    2.51 
  12  -3  -1   62.11    2.50 
  12   3  -2   47.61    1.98 
  12  -3   2   44.74    2.00 
  12  -3  -2   49.35    2.02 
  12   3   2   43.98    1.99 
  12   3  -3   23.28    1.24 
  12  -3   3   24.43    1.31 
  12  -3  -3   23.46    1.29 
  12   3   3   23.79    1.31 
  12   3  -4   14.79    1.11 
  12  -3   4   16.34    1.06 
  12   3   4   13.70    1.00 
  12  -3  -4   15.29    1.05 
  13   3   0    0.89    0.31 
  13  -3   0    1.12    0.35 
  13   3   0    0.90    0.30 
  13  -3   1    0.81    0.31 
  13   3  -1    0.73    0.28 
  13   3   1    0.81    0.31 
  13  -3  -1    1.18    0.34 
  13  -3   2    2.07    0.44 
  13   3  -2    1.51    0.38 
  13  -3  -2    1.90    0.43 
  13   3   2    1.41    0.38 
  13   3  -3    0.23    0.24 
  13  -3   3    0.70    0.32 
  13   3   3    0.44    0.29 
  13  -3  -3    0.58    0.34 
  14   3   0   71.60    2.81 
  14  -3   0   66.93    2.82 
  14   3   0   73.11    2.86 
  14   3  -1   66.48    2.79 
  14   3  -1   70.02    2.78 
  14  -3   1   69.17    2.82 
  14  -3  -1   70.61    2.84 
  14   3   1   68.47    2.81 
  14  -3   2   54.62    2.41 
  14   3  -2   56.98    2.39 
  14   3   2   54.85    2.41 
  14  -3  -2   57.51    2.44 
  15   3   0    7.41    0.82 
  15  -3   0    7.14    0.83 
  15  -3   1    0.74    0.38 
  15   3  -1    1.05    0.38 
  15   3  -1    0.38    0.28 
  15  -3  -1    0.52    0.34 
  15   3   1    1.07    0.38 
   0  -4   0  485.30   15.04 
   0  -4   1  154.01    4.79 
   0   4  -1  146.22    4.77 
   0  -4  -1  149.90    4.81 
   0  -4  -2  382.36   12.49 
   0  -4   2  416.50   12.45 
   0   4  -2  396.12   12.39 
   0  -4   3  134.04    4.41 
   0  -4  -3  133.91    4.47 
   0   4  -3  132.01    4.30 
   0  -4  -4  104.70    3.61 
   0  -4   4   98.98    3.54 
   0  -4  -5    5.37    0.63 
   0  -4   5    4.69    0.56 
   0  -4   6    7.89    0.79 
   0  -4  -6    7.94    0.82 
   1  -4   0   29.11    0.98 
  -1  -4   0   28.39    1.05 
   1  -4   0   29.19    1.07 
   1   4   0   28.95    0.96 
   1   4   0   30.39    1.08 
   1   4  -1    1.40    0.20 
   1  -4   1    1.90    0.13 
  -1  -4  -1    2.17    0.27 
   1  -4   1    2.46    0.26 
   1   4   1    1.94    0.22 
   1  -4  -1    1.93    0.24 
  -1  -4   1    2.30    0.22 
   1   4   1    1.76    0.17 
  -1   4  -1    2.18    0.20 
   1   4  -2    2.61    0.24 
   1  -4   2    2.67    0.29 
   1  -4   2    2.63    0.18 
   1  -4  -2    3.65    0.37 
  -1   4  -2    2.73    0.21 
  -1  -4   2    2.91    0.26 
   1   4  -3    4.78    0.34 
  -1  -4  -3    5.30    0.47 
   1  -4   3    4.50    0.29 
   1  -4   3    4.88    0.39 
   1  -4  -3    3.75    0.42 
  -1  -4   3    4.36    0.37 
  -1   4  -3    4.17    0.28 
   1  -4   4   16.29    0.88 
   1   4  -4   15.85    0.76 
  -1  -4  -4   14.88    0.91 
   1  -4  -4   18.17    0.95 
  -1  -4   4   18.24    0.90 
  -1  -4  -5   10.58    0.80 
   1  -4   5   10.41    0.75 
   1  -4  -5   11.69    0.82 
  -1  -4   5   10.68    0.74 
  -1  -4  -6    6.78    0.78 
   1  -4   6    6.42    0.72 
  -1  -4   6    5.56    0.68 
   1  -4  -6    5.84    0.72 
   2   4   0  840.11   27.72 
   2  -4   0  869.72   27.65 
  -2  -4   0  962.46   27.59 
   2  -4   0  941.01   27.71 
   2   4   0  851.73   27.63 
   2   4  -1  179.03    5.61 
   2   4  -1  177.28    5.77 
   2  -4   1  176.94    5.75 
  -2  -4  -1  179.49    5.77 
   2  -4   1  180.32    5.66 
   2   4   1  182.55    5.74 
  -2  -4   1  189.29    5.72 
   2   4   1  188.51    5.72 
   2  -4  -1  178.82    5.76 
   2  -4   2  452.16   13.89 
   2  -4   2  443.65   13.77 
   2   4  -2  432.51   13.88 
  -2  -4  -2  442.65   13.93 
   2  -4  -2  435.73   13.90 
  -2  -4   2  466.77   13.86 
  -2   4  -2  438.23   13.77 
   2   4   2  448.70   13.86 
   2  -4   3  181.47    5.77 
  -2  -4  -3  183.26    5.95 
   2  -4   3  175.57    5.90 
   2   4  -3  179.76    5.86 
   2  -4  -3  184.52    5.94 
  -2   4  -3  179.56    5.70 
   2   4   3  184.20    5.88 
  -2  -4   3  184.16    5.87 
   2  -4   4  238.40    7.79 
  -2  -4  -4  238.10    7.84 
   2   4  -4  232.72    7.67 
   2  -4   4  240.06    7.62 
   2  -4  -4  246.11    7.83 
  -2  -4   4  241.21    7.75 
  -2  -4  -5   13.40    0.94 
   2  -4   5   15.65    0.94 
  -2  -4   5   15.91    0.92 
   2  -4  -5   15.63    0.96 
  -2  -4  -6   33.27    1.68 
   2  -4   6   33.18    1.62 
  -2  -4   6   32.37    1.59 
   2  -4  -6   34.07    1.67 
   3   4   0   12.49    0.58 
  -3  -4   0   12.23    0.52 
   3  -4   0   12.28    0.52 
   3  -4   0   12.31    0.55 
   3   4   0   12.63    0.51 
   3   4  -1   67.49    2.33 
  -3  -4  -1   69.24    2.29 
   3   4  -1   66.67    2.18 
   3  -4   1   70.90    2.24 
   3  -4   1   66.37    2.29 
   3  -4  -1   67.25    2.28 
  -3  -4   1   69.53    2.24 
   3   4   1   66.56    2.28 
   3  -4  -1   66.61    2.26 
   3   4   1   68.13    2.26 
   3  -4   2    3.86    0.26 
  -3  -4  -2    3.14    0.34 
   3   4  -2    3.09    0.21 
   3   4  -2    2.82    0.32 
   3  -4   2    3.48    0.31 
   3   4   2    3.80    0.27 
  -3  -4   2    3.91    0.28 
   3  -4  -2    4.02    0.34 
   3   4   2    3.48    0.29 
   3  -4   3   12.57    0.68 
   3  -4   3   12.41    0.58 
  -3  -4  -3   13.11    0.72 
   3   4  -3   12.02    0.65 
  -3  -4   3   11.90    0.62 
   3  -4  -3   10.24    0.66 
   3   4   3   11.00    0.63 
   3  -4   4    3.73    0.38 
  -3  -4  -4    2.75    0.43 
   3   4  -4    2.87    0.38 
   3  -4   4    2.98    0.41 
   3   4   4    5.10    0.50 
   3  -4  -4    4.02    0.48 
  -3  -4   4    4.41    0.46 
   3  -4   5    7.12    0.61 
  -3  -4  -5    5.80    0.67 
  -3  -4   5    6.31    0.62 
   3  -4  -5    6.87    0.69 
  -3  -4  -6    9.54    0.93 
  -3  -4   6    8.67    0.75 
   3  -4  -6    9.62    0.94 
   4  -4   0   59.20    1.96 
   4  -4   0   57.32    1.95 
   4   4   0   56.70    2.00 
   4   4   0   57.54    1.93 
  -4  -4   0   56.50    1.90 
   4  -4   1  204.26    6.57 
   4   4  -1  191.82    6.61 
  -4  -4  -1  205.85    6.55 
   4  -4   1  208.01    6.55 
   4   4  -1  204.67    6.49 
   4  -4  -1  210.37    6.56 
  -4  -4   1  214.78    6.49 
   4   4   1  212.41    6.57 
   4  -4  -1  212.11    6.56 
   4   4   1  206.66    6.57 
  -4  -4  -2   39.11    1.46 
   4  -4   2   37.35    1.43 
   4   4  -2   35.96    1.46 
   4   4  -2   35.99    1.31 
   4  -4   2   37.60    1.38 
   4   4   2   38.42    1.35 
   4   4   2   37.62    1.42 
   4  -4  -2   36.75    1.41 
  -4  -4   2   38.95    1.35 
   4  -4   3   20.17    0.87 
  -4  -4  -3   18.56    0.96 
   4  -4   3   19.35    0.95 
   4   4  -3   20.32    0.83 
   4   4  -3   20.92    0.97 
   4  -4  -3   20.90    0.96 
   4   4   3   20.63    0.94 
  -4  -4   3   21.34    0.90 
   4   4  -4   15.39    0.83 
   4  -4   4   14.98    0.75 
   4  -4   4   13.90    0.84 
  -4  -4  -4   15.29    0.89 
   4   4   4   14.88    0.83 
  -4  -4   4   15.30    0.81 
   4  -4  -4   15.73    0.87 
   4  -4   5    0.32    0.19 
  -4  -4  -5    0.74    0.31 
   4   4  -5    0.21    0.20 
   4  -4   5    0.53    0.26 
  -4  -4   5    0.24    0.22 
   4  -4  -5    0.72    0.30 
   4  -4   6    8.51    0.87 
  -4  -4  -6    7.54    0.83 
  -4  -4   6    7.95    0.80 
   4  -4  -6    7.19    0.78 
   5   4   0    9.62    0.51 
   5   4   0    8.09    0.44 
  -5  -4   0    8.38    0.38 
   5  -4   0    7.55    0.43 
   5  -4   0    8.44    0.46 
  -5  -4  -1   19.25    0.81 
   5  -4   1   20.16    0.85 
   5   4  -1   19.52    0.79 
   5  -4   1   19.91    0.83 
   5   4  -1   20.91    0.92 
   5   4   1   20.10    0.84 
  -5  -4   1   20.34    0.74 
   5  -4  -1   20.48    0.86 
   5  -4  -1   20.22    0.81 
   5   4   1   19.65    0.85 
   5   4  -2   33.52    1.38 
   5  -4   2   34.21    1.32 
   5  -4   2   33.74    1.29 
   5   4  -2   32.62    1.23 
  -5  -4  -2   36.45    1.35 
   5  -4  -2   33.00    1.28 
   5   4   2   33.05    1.24 
   5   4   2   31.65    1.32 
   5  -4  -2   34.04    1.32 
  -5  -4   2   34.31    1.22 
   5  -4   3   17.04    0.88 
  -5  -4  -3   17.82    0.91 
   5   4  -3   18.92    0.79 
   5  -4   3   18.02    0.84 
   5   4  -3   18.07    0.92 
   5  -4  -3   17.53    0.87 
  -5  -4   3   17.95    0.81 
   5   4  -4   28.53    1.20 
   5  -4   4   28.88    1.26 
   5  -4   4   29.33    1.36 
  -5  -4  -4   28.42    1.37 
   5   4  -4   30.51    1.36 
   5   4   4   32.16    1.37 
  -5  -4   4   30.49    1.28 
   5  -4  -4   31.34    1.34 
   5  -4   5   37.01    1.58 
   5  -4   5   36.21    1.70 
  -5  -4  -5   35.58    1.71 
   5   4  -5   38.44    1.66 
   5   4   5   38.45    1.69 
   5  -4  -5   39.88    1.70 
   5  -4   6   12.89    0.96 
  -5  -4  -6   13.28    0.99 
   5  -4  -6   13.10    0.95 
   6  -4   0  282.54    8.96 
   6   4   0  279.10    8.94 
   6   4   0  283.50    9.00 
   6  -4   0  283.03    8.89 
  -6  -4   0  289.16    8.80 
   6  -4   1  381.77   11.75 
   6   4  -1  370.44   11.87 
   6  -4   1  388.06   11.80 
   6   4  -1  384.95   11.75 
  -6  -4  -1  381.62   11.70 
   6   4   1  366.64   11.79 
   6  -4  -1  374.01   11.79 
  -6  -4   1  372.21   11.60 
   6   4   1  371.76   11.77 
   6  -4  -1  362.71   11.70 
  -6  -4  -2  108.95    3.63 
   6  -4   2  106.03    3.62 
   6   4  -2  110.75    3.57 
   6   4  -2  109.27    3.74 
   6  -4   2  110.06    3.65 
  -6  -4   2  106.07    3.48 
   6  -4  -2  107.06    3.57 
   6   4   2  107.04    3.67 
   6  -4  -2  107.26    3.65 
   6   4   2  108.56    3.55 
   6   4  -3  193.24    6.18 
   6  -4   3  195.16    6.30 
  -6  -4  -3  186.62    6.29 
   6  -4   3  194.11    6.27 
   6  -4  -3  190.77    6.23 
   6  -4  -3  194.35    6.30 
   6   4   3  191.79    6.32 
   6   4  -4   49.14    2.01 
   6  -4   4   46.79    1.87 
  -6  -4  -4   46.73    1.97 
   6   4  -4   47.24    1.80 
   6  -4   4   47.75    1.96 
   6  -4  -4   49.03    1.91 
   6   4   4   49.48    1.97 
   6  -4  -4   51.01    1.95 
  -6  -4  -5   45.59    2.01 
   6  -4   5   45.87    1.88 
   6   4  -5   46.94    1.98 
   6  -4   5   48.02    2.02 
   6  -4  -5   45.04    1.92 
   6   4   5   45.67    1.97 
  -6  -4  -6    4.89    0.71 
   6  -4   6    4.22    0.62 
   7  -4   0    0.81    0.21 
   7   4   0    1.15    0.23 
   7  -4   0    1.22    0.19 
   7   4   0    0.98    0.21 
  -7  -4  -1   14.50    0.63 
   7   4  -1   14.25    0.76 
   7  -4   1   14.18    0.72 
   7   4  -1   14.78    0.69 
   7  -4   1   14.03    0.66 
   7   4   1   12.71    0.70 
   7  -4  -1   12.40    0.61 
   7   4   1   13.15    0.67 
   7  -4  -1   13.82    0.71 
  -7  -4  -2   23.95    1.07 
   7   4  -2   25.39    1.20 
   7  -4   2   25.55    1.09 
   7   4  -2   24.70    1.06 
   7  -4   2   26.71    1.14 
   7  -4  -2   26.19    1.04 
   7   4   2   26.01    1.04 
   7  -4  -2   25.72    1.13 
   7   4   2   26.08    1.15 
   7  -4   3   34.49    1.37 
   7   4  -3   32.02    1.28 
   7  -4   3   32.90    1.36 
  -7  -4  -3   31.12    1.35 
   7  -4  -3   29.80    1.27 
   7  -4  -3   29.50    1.35 
   7   4   3   30.95    1.38 
   7  -4   4   14.49    0.88 
  -7  -4  -4   14.74    0.90 
   7   4  -4   14.47    0.82 
   7  -4   4   13.96    0.82 
   7  -4  -4   15.45    0.88 
   7   4   4   16.08    0.91 
   7  -4   5   27.14    1.32 
  -7  -4  -5   26.40    1.41 
   7   4  -5   28.19    1.43 
   7  -4   5   28.83    1.43 
   7   4   5   27.56    1.41 
   7  -4  -5   28.27    1.38 
   7  -4   6   18.81    1.21 
  -7  -4  -6   17.53    1.30 
   7   4   6   18.91    1.16 
   8  -4   0   19.72    0.82 
   8   4   0   18.54    0.92 
   8   4   0   20.44    0.96 
   8  -4   0   20.82    0.96 
   8   4  -1  154.59    5.07 
   8   4  -1  149.65    5.16 
   8  -4   1  157.41    5.13 
   8  -4   1  153.97    4.99 
   8   4   1  158.73    5.08 
   8   4   1  148.95    5.10 
   8  -4  -1  155.97    5.12 
   8   4  -2   12.90    0.69 
   8  -4   2   12.54    0.68 
   8  -4   2   13.31    0.75 
   8  -4  -2   11.34    0.70 
   8   4   2   10.98    0.70 
   8   4   2   11.69    0.64 
   8  -4   3   57.33    2.30 
   8  -4   3   64.40    2.32 
   8   4  -3   63.26    2.25 
  -8  -4  -3   59.13    2.27 
   8  -4  -3   59.98    2.33 
   8   4   3   63.10    2.38 
   8  -4   4    0.66    0.24 
   8  -4   4    1.44    0.33 
  -8  -4  -4    0.37    0.27 
   8  -4  -4    1.37    0.32 
   8   4   4    0.95    0.30 
   8  -4   5   24.06    1.29 
  -8  -4  -5   22.31    1.27 
   8  -4   5   22.15    1.21 
   8   4  -5   22.97    1.30 
   8   4   5   24.09    1.29 
   8  -4  -5   24.23    1.26 
   9   4   0   11.08    0.68 
   9   4   0   11.49    0.70 
   9  -4   0   12.26    0.72 
   9   4  -1    8.44    0.57 
   9   4  -1    8.40    0.63 
   9  -4   1    9.19    0.62 
   9   4   1    9.90    0.60 
   9  -4  -1    9.37    0.64 
   9   4   1    8.99    0.61 
   9  -4   2   34.78    1.54 
   9  -4   2   36.05    1.45 
   9   4  -2   38.53    1.50 
   9   4   2   36.39    1.56 
   9  -4  -2   35.07    1.54 
   9  -4   3   29.65    1.42 
   9  -4   3   32.54    1.40 
   9   4  -3   33.31    1.39 
   9  -4  -3   32.55    1.46 
   9   4   3   32.21    1.48 
   9  -4   4   47.03    1.92 
   9  -4   4   47.43    1.93 
   9  -4  -4   42.35    1.90 
   9   4   4   43.13    1.94 
   9  -4   5   40.23    1.84 
   9  -4   5   38.18    1.77 
   9   4  -5   38.29    1.88 
   9  -4  -5   39.27    1.81 
   9   4   5   41.11    1.87 
  10   4   0   85.55    3.09 
  10  -4   0   84.40    3.10 
  10   4   0   86.06    3.07 
  10   4  -1   80.65    3.04 
  10  -4   1   79.20    2.99 
  10   4  -1   81.74    2.96 
  10  -4  -1   82.63    3.00 
  10   4   1   83.45    2.93 
  10   4   1   85.11    3.01 
  10  -4   2   60.49    2.40 
  10   4  -2   64.05    2.35 
  10  -4  -2   61.12    2.39 
  10   4   2   61.29    2.41 
  10  -4   3   38.12    1.73 
  10   4  -3   40.72    1.67 
  10  -4  -3   41.67    1.76 
  10   4   3   38.06    1.75 
  10  -4   4   27.91    1.40 
  10  -4   4   27.22    1.47 
  10   4   4   26.50    1.40 
  10  -4  -4   28.51    1.42 
  10  -4   5    9.22    0.78 
  10   4  -5    9.41    0.85 
  10  -4   5    9.82    0.81 
  10   4   5    9.75    0.83 
  10  -4  -5    9.65    0.81 
  11   4   0    1.48    0.33 
  11   4   0    1.92    0.36 
  11  -4   0    1.61    0.35 
  11  -4   1   10.57    0.74 
  11   4  -1   11.68    0.73 
  11  -4  -1    9.39    0.70 
  11   4   1    9.35    0.65 
  11   4   1    9.56    0.70 
  11   4  -2   18.31    1.11 
  11   4  -2   20.25    1.05 
  11  -4   2   19.49    1.09 
  11  -4  -2   19.41    1.08 
  11   4   2   18.92    1.07 
  11   4  -3   27.40    1.30 
  11  -4   3   25.75    1.35 
  11  -4  -3   27.72    1.38 
  11   4   3   26.00    1.37 
  11  -4   4   23.80    1.35 
  11  -4  -4   28.07    1.42 
  11   4   4   27.51    1.44 
  12   4   0    0.44    0.23 
  12   4   0    0.07    0.18 
  12  -4   0    0.22    0.21 
  12   4  -1    1.72    0.38 
  12  -4   1    2.24    0.42 
  12   4  -1    2.31    0.42 
  12   4   1    2.50    0.44 
  12  -4  -1    1.91    0.41 
  12   4  -2    5.11    0.65 
  12  -4   2    5.40    0.65 
  12   4  -2    6.19    0.66 
  12   4   2    5.31    0.63 
  12  -4  -2    5.10    0.63 
  12   4  -3    3.31    0.57 
  12   4  -3    4.42    0.59 
  12  -4   3    4.41    0.62 
  12   4   3    4.94    0.64 
  12   4  -4    0.51    0.31 
  12  -4   4    0.60    0.31 
  12   4   4    0.83    0.33 
  12  -4  -4    0.33    0.28 
  13   4   0    3.84    0.56 
  13  -4   0    3.19    0.51 
  13   4   0    2.93    0.49 
  13   4  -1    5.32    0.62 
  13  -4   1    6.47    0.73 
  13   4  -1    6.87    0.75 
  13   4   1    6.46    0.72 
  13  -4  -1    6.22    0.69 
  13  -4   2   18.46    1.13 
  13   4  -2   18.57    1.16 
  13   4  -2   18.81    1.09 
  13   4   2   17.56    1.10 
  13  -4  -2   15.29    1.06 
  13  -4   3   20.17    1.25 
  13   4  -3   19.56    1.29 
  13  -4  -3   24.65    1.35 
  14  -4   0   25.05    1.37 
  14   4   0   23.71    1.31 
  14   4   0   25.10    1.35 
  14   4  -1    3.26    0.54 
  14  -4   1    3.06    0.55 
  14   4  -1    3.31    0.56 
  14   4   1    3.74    0.56 
  14  -4  -1    2.06    0.47 
  14   4  -2   25.19    1.46 
  14   4  -2   24.90    1.38 
  14  -4   2   26.31    1.44 
  14   4   2   28.08    1.47 
  14  -4  -2   25.67    1.45 
  15   4   0    0.37    0.30 
  15  -4   0    1.48    0.42 
   0   5   0    0.28    0.11 
   0  -5   0    0.12    0.11 
   0  -5  -1   98.64    3.20 
   0  -5   1   97.50    3.17 
   0   5  -1   92.47    3.15 
   0  -5  -2   19.44    0.89 
   0   5  -2   19.62    0.81 
   0  -5   2   19.01    0.84 
   0  -5  -3    1.20    0.27 
   0  -5   3    0.66    0.20 
   0   5  -3    0.89    0.18 
   0  -5  -4    5.56    0.62 
   0  -5   4    4.71    0.52 
   0  -5   5    0.58    0.25 
   0  -5  -5    0.65    0.30 
   0  -5   6   -0.15    0.20 
   0  -5  -6   -0.27    0.25 
  -1  -5   0   61.09    2.09 
   1  -5   0   58.98    2.10 
   1  -5   0   63.36    1.98 
   1   5   0   63.13    2.12 
   1  -5   1   14.17    0.63 
   1   5  -1   13.79    0.63 
   1  -5   1   14.13    0.48 
   1   5   1   12.91    0.61 
   1  -5  -1   13.38    0.64 
  -1  -5   1   12.66    0.60 
  -1   5  -1   12.59    0.59 
  -1  -5  -2   66.60    2.27 
   1  -5   2   65.90    2.04 
   1  -5   2   67.07    2.23 
   1   5  -2   63.55    2.19 
  -1   5  -2   58.31    2.13 
  -1  -5   2   60.54    2.18 
   1  -5  -2   60.04    2.23 
   1  -5   3  157.87    4.97 
   1   5  -3  153.27    4.88 
  -1  -5  -3  159.47    5.04 
   1  -5  -3  140.49    4.99 
  -1   5  -3  144.02    4.81 
  -1  -5   3  145.23    4.93 
   1   5  -4  175.43    5.63 
  -1  -5  -4  181.76    5.87 
   1  -5   4  176.81    5.78 
  -1  -5   4  166.75    5.74 
   1  -5  -4  166.25    5.81 
  -1  -5  -5   94.93    3.50 
   1  -5   5   98.34    3.46 
   1  -5  -5   89.81    3.47 
  -1  -5   5   92.07    3.41 
  -1  -5  -6   78.95    3.08 
   1  -5   6   79.07    3.04 
   1  -5  -6   72.61    3.03 
  -1  -5   6   73.62    2.96 
   2  -5   0   47.25    1.55 
  -2  -5   0   47.37    1.63 
   2  -5   0   45.52    1.64 
   2   5   0   45.31    1.66 
   2   5   0   47.57    1.53 
   2  -5   1   25.46    1.01 
   2   5  -1   23.99    0.82 
   2  -5   1   25.28    0.89 
  -2  -5  -1   25.20    1.01 
   2   5   1   25.25    0.93 
   2   5   1   25.62    0.99 
  -2  -5   1   25.53    0.97 
   2   5  -2   26.83    0.93 
  -2  -5  -2   28.13    1.15 
   2   5  -2   26.94    1.11 
   2  -5   2   26.86    1.11 
   2  -5   2   27.64    0.98 
  -2  -5   2   28.35    1.09 
   2   5   2   27.54    1.08 
  -2   5  -2   26.87    1.02 
   2  -5  -2   27.72    1.14 
  -2  -5  -3   17.11    0.88 
   2  -5   3   15.28    0.66 
   2  -5   3   15.00    0.79 
   2   5  -3   14.76    0.75 
  -2  -5   3   16.10    0.78 
   2  -5  -3   15.51    0.84 
  -2   5  -3   16.40    0.67 
   2  -5   4   19.14    1.00 
   2   5  -4   19.92    0.93 
  -2  -5  -4   19.75    1.06 
   2  -5  -4   20.72    1.07 
  -2  -5   4   19.31    0.97 
   2  -5   5    1.92    0.40 
  -2  -5  -5    2.43    0.47 
   2  -5  -5    1.78    0.40 
  -2  -5   5    2.06    0.38 
   2  -5   6    0.35    0.28 
  -2  -5  -6    0.53    0.35 
   2  -5  -6    0.28    0.30 
  -2  -5   6   -0.16    0.22 
  -3  -5   0  176.73    5.61 
   3   5   0  177.66    5.55 
   3  -5   0  176.51    5.58 
   3  -5   0  177.28    5.65 
   3   5   0  176.57    5.69 
   3  -5   1   72.80    2.36 
   3  -5   1   68.32    2.44 
   3   5  -1   70.74    2.30 
   3   5  -1   70.73    2.48 
  -3  -5  -1   73.73    2.45 
   3   5   1   72.17    2.45 
   3  -5  -1   71.80    2.40 
   3   5   1   72.21    2.40 
  -3  -5   1   73.74    2.40 
   3  -5  -1   72.09    2.45 
   3   5  -2   93.52    3.26 
  -3  -5  -2   94.80    3.27 
   3   5  -2   93.22    3.06 
   3  -5   2   90.48    3.23 
   3  -5   2   93.22    3.12 
  -3  -5   2  101.89    3.19 
   3   5   2  100.72    3.22 
   3   5   2   99.55    3.19 
   3  -5  -2   97.12    3.25 
   3  -5   3  120.99    4.03 
   3   5  -3  118.52    3.81 
   3  -5   3  127.16    3.88 
   3   5  -3  118.44    4.00 
  -3  -5  -3  124.19    4.09 
   3  -5  -3  113.41    4.02 
   3   5   3  114.88    3.98 
  -3  -5   3  111.70    3.93 
   3   5  -4   97.79    3.40 
   3  -5   4   96.81    3.47 
   3  -5   4   94.33    3.28 
  -3  -5  -4   96.07    3.52 
   3  -5  -4  103.54    3.51 
  -3  -5   4   98.28    3.41 
  -3  -5  -5   80.81    3.01 
   3  -5   5   83.07    2.97 
  -3  -5   5   71.34    2.84 
   3  -5  -5   73.06    2.92 
  -3  -5  -6   65.73    2.75 
   3  -5   6   63.81    2.70 
  -3  -5   6   68.21    2.67 
   3  -5  -6   66.22    2.72 
   4  -5   0   19.18    0.78 
   4   5   0   20.10    0.86 
  -4  -5   0   19.39    0.77 
   4   5   0   19.37    0.76 
   4  -5   0   18.72    0.81 
   4  -5   1   58.75    2.13 
   4  -5   1   63.21    2.09 
  -4  -5  -1   62.31    2.12 
   4   5  -1   60.97    2.02 
   4   5  -1   60.04    2.19 
   4  -5  -1   60.92    2.12 
   4  -5  -1   60.80    2.10 
   4   5   1   62.05    2.11 
  -4  -5   1   61.77    2.06 
   4   5   1   62.20    2.14 
   4  -5   2   10.77    0.61 
   4   5  -2   11.01    0.49 
   4  -5   2   11.73    0.55 
   4   5  -2   12.03    0.65 
  -4  -5  -2   10.72    0.63 
   4  -5  -2   11.63    0.62 
  -4  -5   2   10.83    0.54 
   4   5   2   10.11    0.58 
   4   5   2   11.19    0.57 
   4   5  -3   16.66    0.85 
   4  -5   3   16.39    0.85 
  -4  -5  -3   17.34    0.91 
   4  -5   3   15.55    0.73 
   4   5  -3   15.54    0.68 
   4   5   3   16.50    0.82 
   4  -5  -3   16.68    0.85 
  -4  -5   3   16.68    0.78 
  -4  -5  -4   13.58    0.86 
   4  -5   4   12.64    0.69 
   4   5  -4   12.68    0.77 
   4  -5   4   13.36    0.82 
  -4  -5   4   14.77    0.78 
   4  -5  -4   14.59    0.84 
   4   5  -5    6.20    0.71 
   4  -5   5    6.23    0.68 
  -4  -5  -5    7.07    0.73 
   4  -5  -5    7.47    0.75 
  -4  -5   5    7.07    0.60 
  -4  -5  -6    4.10    0.65 
   4  -5   6    5.47    0.72 
  -4  -5   6    4.00    0.59 
   4  -5  -6    4.97    0.66 
   5  -5   0    2.37    0.28 
   5   5   0    2.67    0.33 
   5   5   0    2.40    0.26 
   5  -5   0    2.39    0.27 
  -5  -5   0    2.82    0.23 
   5   5  -1   24.24    0.94 
   5  -5   1   24.32    1.02 
  -5  -5  -1   24.54    0.99 
   5  -5   1   25.13    1.00 
   5   5  -1   24.21    1.08 
  -5  -5   1   25.18    0.93 
   5  -5  -1   26.09    1.02 
   5   5   1   23.87    1.00 
   5   5   1   25.38    1.04 
   5  -5  -1   24.91    1.00 
   5   5  -2   21.92    1.02 
  -5  -5  -2   22.28    0.98 
   5  -5   2   21.14    0.91 
   5   5  -2   21.05    0.84 
   5  -5   2   20.03    0.95 
   5  -5  -2   20.32    0.93 
   5   5   2   22.42    0.91 
  -5  -5   2   21.13    0.86 
   5   5   2   22.17    0.96 
   5  -5  -2   21.83    0.95 
   5  -5   3   34.92    1.45 
   5   5  -3   35.03    1.48 
   5  -5   3   36.17    1.37 
   5   5  -3   34.21    1.30 
  -5  -5  -3   35.14    1.48 
  -5  -5   3   33.76    1.34 
   5  -5  -3   34.14    1.43 
   5   5   3   32.84    1.42 
   5  -5   4   52.04    2.08 
   5   5  -4   51.16    2.07 
  -5  -5  -4   51.68    2.10 
   5  -5   4   52.01    1.95 
   5  -5  -4   53.58    2.06 
  -5  -5   4   51.88    1.97 
   5   5   4   49.52    2.03 
   5   5  -5   56.51    2.24 
  -5  -5  -5   52.91    2.28 
   5  -5   5   54.52    2.28 
   5  -5  -5   53.91    2.23 
   5   5   5   56.78    2.25 
  -5  -5  -6   33.25    1.74 
   5  -5   6   36.28    1.75 
   5  -5  -6   33.41    1.67 
  -6  -5   0   37.91    1.32 
   6   5   0   38.15    1.41 
   6  -5   0   37.09    1.40 
   6  -5   0   37.88    1.43 
   6   5   0   38.07    1.48 
   6  -5   1   28.88    1.16 
   6  -5   1   30.56    1.19 
  -6  -5  -1   30.69    1.14 
   6   5  -1   29.21    1.12 
   6   5  -1   31.65    1.27 
   6   5   1   27.97    1.18 
  -6  -5   1   27.59    1.04 
   6  -5  -1   28.95    1.18 
   6   5   1   29.02    1.18 
   6  -5  -1   27.82    1.13 
   6   5  -2   86.66    3.11 
  -6  -5  -2   87.74    3.01 
   6   5  -2   86.79    2.91 
   6  -5   2   89.00    3.00 
   6  -5   2   85.47    3.01 
   6   5   2   88.92    2.96 
   6  -5  -2   84.18    2.95 
   6  -5  -2   88.64    3.03 
  -6  -5   2   87.21    3.03 
   6   5   2   86.76    3.03 
   6   5  -3    5.77    0.52 
   6   5  -3    4.45    0.59 
  -6  -5  -3    5.15    0.54 
   6  -5   3    4.14    0.44 
   6  -5   3    5.13    0.52 
   6  -5  -3    5.85    0.49 
   6  -5  -3    5.81    0.48 
   6   5   3    5.17    0.47 
   6  -5   4   13.68    0.75 
   6   5  -4   14.93    0.88 
  -6  -5  -4   12.61    0.83 
   6  -5   4   12.10    0.81 
   6  -5  -4   13.38    0.81 
   6   5   4   12.92    0.81 
   6  -5  -4   12.15    0.78 
   6  -5   5    2.75    0.47 
   6   5  -5    2.78    0.48 
  -6  -5  -5    2.06    0.46 
   6   5   5    1.86    0.39 
   6  -5  -5    2.15    0.42 
   6  -5   6    2.98    0.57 
  -6  -5  -6    3.50    0.62 
   7  -5   0   67.67    2.41 
   7   5   0   67.09    2.38 
   7  -5   0   67.66    2.34 
   7   5   0   69.10    2.46 
   7   5  -1   16.72    0.79 
   7  -5   1   17.78    0.85 
  -7  -5  -1   16.26    0.75 
   7  -5   1   15.96    0.79 
   7   5  -1   17.96    0.91 
   7   5   1   17.93    0.84 
   7  -5  -1   17.61    0.78 
   7   5   1   18.59    0.86 
   7  -5  -1   18.87    0.86 
  -7  -5  -2   65.86    2.37 
   7   5  -2   64.26    2.49 
   7  -5   2   64.82    2.39 
   7   5  -2   63.91    2.31 
   7  -5   2   63.87    2.38 
   7  -5  -2   68.04    2.43 
   7   5   2   68.67    2.44 
   7   5   2   69.50    2.34 
   7  -5  -2   67.16    2.33 
   7   5  -3   53.71    2.15 
  -7  -5  -3   51.75    2.05 
   7  -5   3   48.84    1.99 
   7  -5   3   50.33    2.03 
   7  -5  -3   54.68    1.99 
   7   5   3   55.56    2.09 
   7  -5  -3   56.01    2.08 
   7   5  -4   72.79    2.85 
   7  -5   4   68.04    2.67 
   7  -5   4   73.95    2.78 
  -7  -5  -4   68.16    2.75 
   7  -5  -4   80.39    3.31 
   7   5   4   77.17    2.81 
   7  -5  -4   75.84    2.78 
   7  -5   5   31.23    1.54 
  -7  -5  -5   29.04    1.53 
   7   5  -5   31.79    1.57 
   7   5   5   32.76    1.55 
   7  -5  -5   31.40    1.50 
   8  -5   0   46.36    1.70 
   8   5   0   46.57    1.84 
   8  -5   0   47.05    1.80 
   8   5   0   47.22    1.78 
   8   5  -1   99.63    3.46 
   8  -5   1  105.33    3.54 
   8   5  -1  100.49    3.60 
   8  -5   1   98.67    3.43 
   8  -5  -1  100.71    3.40 
   8   5   1  107.21    3.52 
   8  -5  -1  101.37    3.53 
   8   5   1  105.29    3.53 
   8  -5   2   34.10    1.34 
   8   5  -2   33.15    1.47 
   8  -5   2   33.46    1.39 
   8   5  -2   31.30    1.29 
   8   5   2   30.98    1.28 
   8   5   2   30.36    1.36 
   8  -5  -2   29.32    1.35 
   8   5  -3   43.04    1.87 
   8  -5   3   44.53    1.77 
  -8  -5  -3   43.33    1.75 
   8  -5   3   42.56    1.75 
   8  -5  -3   43.53    1.79 
   8   5   3   41.94    1.79 
   8  -5   4   10.10    0.75 
  -8  -5  -4    8.92    0.73 
   8  -5   4    9.51    0.69 
   8   5  -4   10.26    0.79 
   8  -5  -4   10.35    0.73 
   8   5   4    9.81    0.73 
   8  -5   5    7.85    0.83 
   8   5  -5    8.60    0.77 
  -8  -5  -5    7.94    0.82 
   8   5   5   10.43    0.80 
   8  -5  -5    8.18    0.71 
   9   5   0  115.43    3.94 
   9   5   0  116.17    4.00 
   9  -5   0  114.27    3.97 
   9  -5   1    4.20    0.41 
   9   5  -1    4.31    0.45 
   9   5  -1    4.10    0.50 
   9  -5   1    4.40    0.49 
   9   5   1    3.84    0.43 
   9  -5  -1    3.72    0.44 
   9   5   1    3.80    0.44 
   9  -5   2   46.90    1.96 
   9   5  -2   52.04    1.92 
   9  -5   2   48.67    1.89 
   9   5  -2   52.97    2.10 
   9  -5  -2   48.42    1.98 
   9   5   2   49.01    1.98 
   9   5  -3   19.39    1.10 
   9  -5   3   17.73    0.99 
   9  -5   3   19.81    1.00 
   9   5   3   18.05    1.02 
   9  -5  -3   18.35    1.02 
   9   5  -4   42.94    1.94 
   9  -5   4   41.89    1.81 
   9  -5   4   44.68    1.85 
   9   5   4   40.17    1.85 
   9  -5  -4   39.96    1.82 
   9  -5   5   19.01    1.15 
   9   5  -5   17.68    1.18 
   9   5   5   17.84    1.12 
   9  -5  -5   18.37    1.12 
  10   5   0  162.85    5.53 
  10   5   0  166.85    5.49 
  10  -5   0  161.91    5.52 
  10  -5   1   78.47    2.91 
  10   5  -1   78.86    2.98 
  10   5  -1   80.45    2.86 
  10   5   1   80.02    2.87 
  10   5   1   81.88    2.93 
  10  -5  -1   76.26    2.90 
  10   5  -2  105.74    4.03 
  10   5  -2  112.23    3.88 
  10  -5   2  110.91    3.95 
  10  -5  -2  115.63    3.98 
  10   5   2  113.78    3.97 
  10  -5   3   24.77    1.25 
  10   5  -3   25.61    1.35 
  10  -5  -3   24.56    1.27 
  10   5   3   23.66    1.26 
  10  -5   4   39.26    1.77 
  10  -5   4   40.68    1.78 
  10   5  -4   39.22    1.89 
  10  -5  -4   39.30    1.81 
  10   5   4   37.47    1.79 
  10  -5   5    5.30    0.68 
  10   5  -5    5.37    0.75 
  10  -5  -5    4.67    0.67 
  11   5   0    1.54    0.33 
  11   5   0    1.25    0.32 
  11  -5   0    1.60    0.34 
  11   5  -1    7.91    0.61 
  11  -5   1    7.64    0.63 
  11  -5  -1    8.06    0.66 
  11   5   1    7.20    0.58 
  11   5   1    7.94    0.63 
  11   5  -2    4.97    0.64 
  11   5  -2    5.24    0.58 
  11  -5   2    5.51    0.64 
  11   5   2    5.36    0.60 
  11  -5  -2    4.81    0.59 
  11   5  -3   10.21    0.83 
  11  -5   3   10.26    0.79 
  11   5   3   10.16    0.78 
  11  -5  -3    9.68    0.78 
  11  -5   4    6.71    0.74 
  11   5  -4    6.88    0.82 
  11  -5  -4    7.08    0.77 
  11   5   4    7.26    0.78 
  12  -5   0   42.97    1.93 
  12   5   0   44.26    1.92 
  12   5   0   47.65    1.94 
  12  -5   1   77.10    3.03 
  12   5  -1   84.12    3.01 
  12   5  -1   79.35    3.08 
  12   5   1   78.80    3.02 
  12  -5  -1   78.45    3.04 
  12  -5   2   21.61    1.20 
  12   5  -2   20.60    1.24 
  12   5   2   21.69    1.20 
  12  -5  -2   22.13    1.22 
  12   5  -3   37.12    1.84 
  12  -5   3   37.31    1.75 
  12   5   3   36.84    1.75 
  12  -5  -3   35.76    1.75 
  13  -5   0    3.32    0.52 
  13   5   0    4.43    0.58 
  13   5   0    3.19    0.51 
  13   5  -1    1.03    0.34 
  13   5  -1    0.55    0.28 
  13  -5   1    0.82    0.32 
  13   5   1    0.58    0.27 
  13  -5  -1    1.61    0.41 
  13  -5   2    4.63    0.64 
  13  -5  -2    3.97    0.61 
  13   5   2    3.55    0.57 
  13  -5   3    0.85    0.34 
  13   5  -3    0.32    0.29 
  13   5   3    0.73    0.34 
  13  -5  -3    0.41    0.34 
  14  -5   0   50.70    2.31 
  14   5   0   55.93    2.32 
  14   5   0   55.25    2.32 
  14   5  -1   34.67    1.76 
  14   5  -1   38.21    1.74 
  14  -5   1   34.62    1.74 
  14  -5  -1   34.35    1.76 
  14   5   1   36.16    1.75 
  14  -5   2   55.67    2.45 
  14   5   2   58.32    2.47 
  14  -5  -2   57.35    2.49 
   0  -6   0    7.55    0.45 
   0   6   0    7.79    0.45 
   0  -6   1  524.86   15.46 
   0  -6  -1  490.74   15.46 
   0   6  -1  472.06   15.43 
   0   6  -2    3.06    0.29 
   0  -6   2    3.56    0.37 
   0  -6  -2    3.48    0.41 
   0   6  -3  252.99    8.01 
   0  -6   3  253.64    8.11 
   0  -6  -3  249.36    8.17 
   0  -6   4    3.19    0.44 
   0  -6  -4    3.19    0.48 
   0  -6  -5   53.92    2.27 
   0  -6   5   53.12    2.19 
   0  -6   6   10.88    0.86 
   0  -6  -6    9.12    0.92 
  -1  -6   0    4.66    0.35 
   1  -6   0    4.13    0.22 
   1  -6   0    4.25    0.34 
   1   6   0    3.90    0.33 
   1   6  -1    1.40    0.24 
   1  -6   1    1.25    0.10 
  -1  -6  -1    1.87    0.27 
   1  -6   1    1.29    0.22 
  -1  -6   1    1.08    0.20 
  -1   6  -1    0.97    0.20 
   1  -6  -1    1.22    0.23 
   1   6   1    1.22    0.22 
   1  -6   2    0.98    0.11 
   1  -6   2    1.25    0.23 
   1   6  -2    1.19    0.22 
  -1  -6  -2    1.32    0.27 
  -1  -6   2    1.22    0.23 
   1  -6  -2    0.97    0.24 
  -1   6  -2    0.79    0.17 
  -1  -6  -3    2.79    0.40 
   1  -6   3    3.52    0.40 
   1   6  -3    3.64    0.38 
   1  -6  -3    3.62    0.48 
  -1  -6   3    3.57    0.40 
  -1   6  -3    3.19    0.29 
   1   6  -4    2.43    0.32 
   1  -6   4    1.76    0.33 
  -1  -6  -4    2.19    0.41 
  -1  -6   4    2.55    0.38 
   1  -6  -4    2.43    0.42 
  -1  -6  -5    0.34    0.28 
   1  -6   5   -0.11    0.18 
  -1  -6   5    0.21    0.21 
   1  -6  -5    0.14    0.26 
  -1  -6  -6    2.25    0.51 
  -1  -6   6    1.71    0.42 
   1  -6  -6    1.43    0.44 
   2  -6   0  575.61   17.39 
   2   6   0  553.69   17.54 
   2   6   0  547.26   17.35 
  -2  -6   0  587.85   17.51 
   2  -6   0  554.80   17.52 
  -2  -6  -1  263.54    8.16 
   2   6  -1  256.70    8.17 
   2  -6   1  268.23    7.98 
   2  -6   1  258.78    8.15 
   2   6   1  252.40    8.04 
   2   6   1  255.82    8.15 
  -2  -6   1  252.29    8.10 
   2  -6  -1  246.29    8.14 
   2   6  -2  215.31    7.00 
   2  -6   2  215.48    7.01 
  -2  -6  -2  224.88    7.06 
   2  -6   2  218.35    6.80 
  -2  -6   2  223.62    6.98 
  -2   6  -2  210.98    6.91 
   2  -6  -2  218.36    7.04 
   2   6  -3   52.06    1.99 
   2  -6   3   51.92    2.03 
  -2  -6  -3   50.56    2.07 
  -2   6  -3   55.68    1.90 
   2  -6  -3   56.01    2.09 
  -2  -6   3   57.27    2.02 
  -2  -6  -4   36.99    1.69 
   2  -6   4   36.14    1.62 
   2   6  -4   38.98    1.55 
   2  -6  -4   40.12    1.69 
  -2  -6   4   40.96    1.62 
  -2  -6  -5    2.42    0.47 
   2  -6   5    3.12    0.49 
   2  -6  -5    2.27    0.45 
  -2  -6   5    2.59    0.42 
   2  -6   6    4.60    0.66 
  -2  -6  -6    5.18    0.73 
   2  -6  -6    4.10    0.65 
  -2  -6   6    3.46    0.56 
   3  -6   0   16.99    0.68 
   3   6   0   17.35    0.65 
   3  -6   0   16.71    0.77 
  -3  -6   0   17.43    0.75 
   3  -6   1   11.06    0.49 
   3   6  -1   11.17    0.43 
   3  -6   1   11.51    0.61 
  -3  -6  -1   10.91    0.59 
   3  -6  -1   10.67    0.59 
   3  -6  -1   11.65    0.54 
   3   6   1   11.35    0.59 
  -3  -6   1   11.72    0.57 
   3   6   1   11.90    0.53 
  -3  -6  -2   21.62    0.98 
   3   6  -2   19.75    0.95 
   3  -6   2   20.56    0.81 
   3   6   2   20.23    0.90 
  -3  -6   2   22.25    0.91 
   3   6   2   22.03    0.91 
   3  -6  -2   21.78    0.97 
  -3  -6  -3   20.65    1.11 
   3  -6   3   24.74    0.96 
   3  -6   3   23.42    1.09 
   3   6  -3   24.16    1.08 
   3   6   3   23.70    1.05 
  -3  -6   3   24.04    1.04 
   3  -6  -3   23.56    1.13 
   3  -6   4    7.46    0.60 
  -3  -6  -4    8.18    0.66 
   3   6  -4    7.90    0.55 
   3  -6  -4    6.81    0.69 
  -3  -6   4    6.91    0.55 
  -3  -6  -5    8.73    0.85 
   3  -6   5    8.36    0.71 
  -3  -6   5    8.10    0.67 
   3  -6  -5    7.43    0.78 
  -3  -6  -6    1.25    0.45 
   3  -6   6    3.06    0.55 
   3  -6  -6    2.02    0.49 
  -3  -6   6    1.85    0.42 
   4  -6   0  270.85    8.43 
   4  -6   0  264.54    8.50 
   4   6   0  263.92    8.39 
   4   6   0  274.03    8.56 
  -4  -6   0  268.96    8.45 
   4   6  -1  429.24   13.29 
   4   6  -1  401.83   13.50 
   4  -6   1  432.08   13.46 
   4  -6   1  446.83   13.37 
  -4  -6  -1  432.67   13.44 
  -4  -6   1  443.36   13.39 
   4  -6  -1  416.92   13.43 
   4   6   1  423.61   13.38 
   4   6   1  431.44   13.47 
   4  -6  -1  438.41   13.40 
   4  -6   2  152.27    4.79 
   4  -6   2  148.20    4.91 
  -4  -6  -2  149.77    4.93 
   4   6  -2  141.10    4.93 
   4  -6  -2  148.50    4.90 
  -4  -6   2  148.41    4.82 
   4   6   2  150.27    4.86 
   4   6   2  151.21    4.86 
   4  -6   3  228.27    7.42 
   4   6  -3  223.17    7.42 
   4  -6   3  225.43    7.24 
  -4  -6  -3  222.90    7.45 
  -4  -6   3  232.86    7.33 
   4   6   3  230.66    7.38 
   4  -6  -3  232.97    7.42 
   4   6  -4   47.07    1.91 
   4  -6   4   47.25    1.95 
  -4  -6  -4   49.63    2.00 
   4   6   4   48.42    1.92 
   4  -6  -4   47.80    1.94 
  -4  -6   4   45.48    1.85 
   4  -6   5   53.42    2.21 
  -4  -6  -5   50.85    2.22 
   4  -6  -5   51.56    2.18 
  -4  -6   5   51.72    2.11 
  -4  -6  -6    4.15    0.67 
   4  -6   6    3.90    0.60 
   4  -6  -6    3.86    0.62 
   5  -6   0   16.36    0.77 
   5  -6   0   16.45    0.74 
   5   6   0   17.44    0.71 
  -5  -6   0   15.87    0.71 
   5   6   0   17.13    0.82 
   5   6  -1   10.26    0.60 
  -5  -6  -1    9.16    0.54 
   5   6  -1    9.21    0.45 
   5  -6   1    9.45    0.55 
   5  -6   1   10.36    0.52 
  -5  -6   1    9.44    0.48 
   5   6   1    9.13    0.51 
   5  -6  -1    8.26    0.50 
   5   6   1    7.64    0.52 
   5  -6  -1    9.41    0.54 
   5  -6   2   39.59    1.45 
   5   6  -2   39.27    1.59 
  -5  -6  -2   38.78    1.54 
   5  -6   2   37.61    1.52 
   5  -6  -2   40.19    1.51 
   5   6   2   37.85    1.47 
  -5  -6   2   39.55    1.43 
   5  -6  -2   37.98    1.51 
   5   6   2   36.76    1.49 
   5  -6   3   25.53    1.16 
   5   6  -3   24.71    1.18 
   5  -6   3   25.88    1.05 
  -5  -6  -3   24.61    1.18 
  -5  -6   3   23.79    1.04 
   5   6   3   23.44    1.11 
   5  -6  -3   22.88    1.12 
   5   6  -4   21.64    1.12 
  -5  -6  -4   20.82    1.13 
   5  -6   4   22.50    1.13 
   5  -6  -4   20.92    1.10 
   5   6   4   21.49    1.10 
  -5  -6   4   20.04    1.02 
   5   6  -5   13.92    0.88 
   5  -6   5   12.37    0.88 
  -5  -6  -5   11.32    0.91 
   5  -6  -5   13.03    0.89 
  -5  -6  -6   15.82    1.12 
   5  -6   6   15.82    1.09 
   5  -6  -6   15.80    1.09 
   6   6   0  254.36    8.15 
   6  -6   0  249.98    8.04 
  -6  -6   0  254.41    7.96 
   6   6   0  252.67    8.01 
   6  -6   0  253.72    8.04 
  -6  -6  -1    9.88    0.56 
   6  -6   1    8.47    0.56 
   6   6  -1    8.80    0.61 
   6  -6   1    9.42    0.56 
   6   6  -1    9.35    0.51 
   6  -6  -1   11.52    0.60 
   6   6   1   12.03    0.64 
   6  -6  -1   10.66    0.59 
   6   6   1   11.18    0.59 
  -6  -6   1   11.50    0.51 
   6   6  -2  235.42    7.68 
  -6  -6  -2  233.27    7.56 
   6  -6   2  241.07    7.59 
   6  -6   2  237.69    7.52 
   6  -6  -2  230.45    7.56 
   6   6   2  236.96    7.53 
   6  -6  -2  231.79    7.54 
   6   6   2  231.95    7.57 
   6   6  -3    8.92    0.65 
  -6  -6  -3    9.00    0.64 
   6  -6   3    8.80    0.55 
   6  -6   3    8.24    0.60 
   6  -6  -3    7.04    0.57 
   6   6   3    8.83    0.61 
   6  -6  -3    7.72    0.57 
  -6  -6  -4   85.63    3.29 
   6  -6   4   90.20    3.30 
   6   6  -4   90.19    3.33 
   6  -6  -4   88.17    3.23 
   6  -6  -4   92.86    3.28 
   6   6   4   91.72    3.30 
  -6  -6  -5    1.81    0.45 
   6  -6   5    1.94    0.44 
   6   6  -5    2.02    0.42 
   6   6   5    2.18    0.43 
   6  -6  -5    2.53    0.46 
  -6  -6  -6   11.79    0.98 
   6  -6   6   12.47    0.97 
   7   6   0    5.80    0.47 
   7   6   0    5.50    0.41 
   7  -6   0    5.38    0.42 
   7  -6   0    5.53    0.44 
   7   6  -1    2.36    0.36 
   7   6  -1    2.55    0.30 
   7  -6   1    2.96    0.36 
  -7  -6  -1    2.54    0.32 
   7  -6   1    2.60    0.34 
   7  -6  -1    2.63    0.35 
   7   6   1    3.27    0.37 
   7  -6  -1    3.04    0.35 
   7   6   1    3.39    0.39 
   7   6  -2   16.74    0.95 
   7  -6   2   17.36    0.88 
  -7  -6  -2   16.70    0.87 
   7  -6   2   17.97    0.88 
   7   6   2   19.11    0.87 
   7   6   2   17.15    0.89 
   7  -6  -2   17.41    0.85 
   7  -6  -2   17.25    0.89 
   7   6  -3   32.99    1.50 
   7  -6   3   31.84    1.41 
   7  -6   3   30.67    1.33 
  -7  -6  -3   29.57    1.38 
   7  -6  -3   33.21    1.36 
   7   6   3   31.10    1.40 
   7  -6  -3   32.20    1.41 
   7  -6   4   28.80    1.39 
  -7  -6  -4   27.89    1.38 
   7   6  -4   28.55    1.43 
   7   6   4   28.14    1.37 
   7  -6  -4   28.09    1.35 
   7  -6  -4   27.90    1.31 
  -7  -6  -5   32.53    1.64 
   7  -6   5   31.94    1.61 
   7   6  -5   33.77    1.64 
   7  -6  -5   34.23    1.60 
   7   6   5   33.09    1.61 
   8   6   0   35.88    1.40 
   8  -6   0   34.94    1.43 
   8  -6   0   33.21    1.35 
   8   6   0   34.02    1.46 
   8   6  -1   30.53    1.35 
   8  -6   1   33.27    1.39 
   8   6  -1   35.07    1.54 
   8  -6   1   35.00    1.45 
   8   6   1   36.34    1.45 
   8   6   1   35.80    1.46 
   8  -6  -1   38.05    1.40 
   8  -6  -1   35.75    1.46 
   8   6  -2   36.33    1.64 
   8  -6   2   37.88    1.53 
   8  -6   2   37.68    1.55 
   8   6   2   36.91    1.49 
   8  -6  -2   37.57    1.56 
   8  -6  -2   36.15    1.55 
   8   6   2   36.88    1.55 
   8   6  -3   16.33    0.99 
  -8  -6  -3   16.19    1.29 
   8  -6   3   16.93    0.92 
   8  -6   3   15.95    0.88 
   8   6   3   15.22    0.90 
   8  -6  -3   16.49    0.93 
  -8  -6  -4   11.23    0.81 
   8   6  -4    9.68    0.80 
   8  -6  -4   10.10    0.75 
   8   6   4   11.50    0.80 
   8   6  -5    2.36    0.50 
   8  -6   5    2.77    0.53 
  -8  -6  -5    2.35    0.50 
   8  -6  -5    2.55    0.46 
   8   6   5    1.86    0.42 
   9  -6   0    1.97    0.35 
   9   6   0    1.47    0.28 
   9   6   0    1.58    0.31 
   9  -6   1    5.90    0.45 
   9  -6   1    5.33    0.54 
   9   6  -1    5.46    0.59 
   9   6  -1    5.54    0.45 
   9   6   1    4.94    0.51 
   9   6   1    4.80    0.52 
   9  -6  -1    5.12    0.55 
   9   6  -2   20.77    1.12 
   9  -6   2   20.99    0.99 
   9  -6   2   19.59    1.02 
   9   6   2   18.69    1.02 
   9  -6  -2   18.02    1.01 
   9  -6   3   16.54    0.94 
   9  -6   3   15.80    0.92 
   9   6  -3   18.02    1.07 
   9  -6  -3   17.44    0.99 
   9   6   3   16.08    0.97 
   9   6  -4   25.13    1.40 
   9  -6   4   26.65    1.33 
   9   6   4   25.75    1.34 
   9  -6  -4   24.90    1.32 
   9   6  -5   29.79    1.62 
   9  -6   5   30.75    1.58 
   9  -6  -5   30.93    1.56 
  10   6   0   53.88    2.06 
  10   6   0   53.31    2.12 
  10  -6   0   51.34    2.09 
  10  -6   1   13.69    0.83 
  10   6  -1   13.99    0.79 
  10   6  -1   15.45    0.92 
  10  -6  -1   12.89    0.81 
  10   6   1   12.71    0.79 
  10   6   1   14.35    0.83 
  10   6  -2   35.81    1.66 
  10  -6   2   34.35    1.54 
  10   6   2   33.81    1.54 
  10  -6  -2   33.33    1.55 
  10   6  -3    1.75    0.42 
  10  -6   3    3.24    0.47 
  10  -6   3    2.81    0.55 
  10   6   3    2.50    0.44 
  10  -6  -3    2.55    0.44 
  10  -6   4   13.46    0.91 
  10   6  -4   13.88    1.00 
  10   6   4   11.62    0.88 
  10  -6  -4   12.10    0.90 
  11  -6   0    1.25    0.33 
  11   6   0    1.01    0.30 
  11   6   0    1.15    0.29 
  11  -6   1    6.48    0.66 
  11   6  -1    7.14    0.74 
  11   6  -1    6.99    0.72 
  11   6   1    6.49    0.58 
  11  -6  -1    5.77    0.63 
  11   6   1    5.59    0.60 
  11   6  -2   15.34    1.01 
  11  -6   2   15.42    0.95 
  11  -6  -2   14.59    0.95 
  11   6  -3   19.45    1.21 
  11  -6   3   17.87    1.09 
  11  -6  -3   20.29    1.17 
  11   6   3   19.69    1.13 
  11   6  -4   22.43    1.37 
  11  -6  -4   21.66    1.28 
  11   6   4   23.17    1.31 
  12   6   0    7.62    0.64 
  12  -6   0    7.59    0.68 
  12   6   0    7.11    0.74 
  12  -6   1   48.95    2.04 
  12   6  -1   43.79    2.03 
  12  -6  -1   46.01    2.01 
  12   6   1   47.45    1.99 
  12   6  -2    8.46    0.88 
  12  -6   2    7.58    0.77 
  12  -6  -2    6.79    0.73 
  12   6   2    6.57    0.70 
  12  -6   3   27.58    1.43 
  12   6  -3   28.82    1.57 
  12  -6  -3   27.50    1.47 
  12   6   3   27.24    1.45 
  13   6   0    2.41    0.44 
  13  -6   0    1.95    0.42 
  13   6   0    2.04    0.42 
  13   6  -1    6.28    0.76 
  13  -6   1    6.61    0.75 
  13   6   1    5.94    0.69 
  13  -6  -1    5.57    0.70 
  13   6  -2   16.02    1.09 
  13  -6   2   16.45    1.06 
  13  -6  -2   12.85    0.98 
  13   6   2   15.24    1.02 
  14   6   0    0.79    0.32 
  14   6   0    0.47    0.30 
  14  -6   0    0.56    0.34 
  14  -6   1    3.79    0.62 
  14   6   1    4.71    0.63 
   0  -7   0    1.21    0.22 
   0   7   0    1.25    0.22 
   0  -7  -1    3.68    0.40 
   0  -7   1    3.33    0.35 
   0   7  -1    3.47    0.32 
   0   7  -2    5.13    0.39 
   0  -7   2    5.21    0.42 
   0  -7  -2    4.63    0.48 
   0  -7  -3    1.74    0.39 
   0   7  -3    2.11    0.30 
   0  -7   3    1.57    0.29 
   0  -7  -4    2.90    0.47 
   0  -7   4    3.08    0.43 
   0  -7  -5   -0.02    0.27 
   0  -7   5    0.95    0.32 
   0  -7   6    1.24    0.38 
   0  -7  -6    1.19    0.43 
   1   7   0   14.84    0.73 
   1  -7   0   15.70    0.57 
  -1  -7   0   15.29    0.73 
   1  -7   0   14.75    0.72 
   1  -7   1   30.62    1.23 
  -1  -7  -1   32.18    1.26 
   1   7  -1   31.15    1.25 
  -1  -7   1   31.47    1.23 
   1   7   1   31.08    1.24 
  -1   7  -1   28.50    1.20 
   1  -7  -1   30.51    1.25 
   1   7  -2   36.05    1.46 
  -1  -7  -2   37.82    1.53 
  -1  -7   2   38.70    1.48 
   1  -7  -2   37.23    1.53 
  -1   7  -2   38.46    1.44 
   1   7  -3   43.61    1.71 
  -1  -7  -3   45.52    1.85 
   1  -7   3   44.72    1.78 
   1  -7  -3   44.66    1.84 
  -1   7  -3   46.70    1.68 
  -1  -7   3   43.82    1.75 
   1  -7   4   65.52    2.55 
  -1  -7  -4   67.81    2.63 
   1   7  -4   69.14    2.45 
  -1  -7   4   65.01    2.52 
   1  -7  -4   69.45    2.64 
   1  -7   5   63.93    2.55 
  -1  -7  -5   63.94    2.63 
   1  -7  -5   61.06    2.58 
  -1  -7   5   66.42    2.54 
   1  -7   6   49.09    2.25 
  -1  -7  -6   53.22    2.38 
  -1  -7   6   51.86    2.27 
   1  -7  -6   52.72    2.34 
   2  -7   0    1.11    0.22 
   2  -7   0    0.76    0.13 
  -2  -7   0    1.10    0.22 
   2   7   0    1.34    0.24 
   2  -7   1    1.86    0.15 
   2   7  -1    1.51    0.26 
  -2  -7  -1    1.10    0.23 
   2  -7   1    1.56    0.27 
   2  -7  -1    1.10    0.23 
   2   7   1    0.96    0.22 
  -2  -7   1    1.02    0.21 
   2   7  -2    8.58    0.54 
   2  -7   2    8.72    0.55 
  -2  -7  -2    8.77    0.60 
  -2  -7   2    7.51    0.50 
  -2   7  -2    7.85    0.47 
   2  -7  -2    6.69    0.54 
  -2  -7  -3    1.85    0.38 
   2   7  -3    1.83    0.32 
   2  -7   3    2.32    0.37 
   2  -7  -3    2.66    0.42 
  -2   7  -3    2.74    0.33 
  -2  -7   3    2.29    0.32 
  -2  -7  -4    0.62    0.30 
   2   7  -4    0.65    0.21 
   2  -7   4    0.36    0.22 
   2  -7  -4    0.93    0.31 
  -2  -7   4    0.79    0.24 
   2  -7   5    0.91    0.31 
  -2  -7  -5    0.91    0.37 
  -2  -7   5    0.68    0.29 
   2  -7  -5    1.16    0.37 
   2  -7   6    0.44    0.30 
  -2  -7  -6    1.21    0.44 
  -2  -7   6    0.48    0.31 
   2  -7  -6    0.87    0.39 
   3  -7   0    1.39    0.18 
   3   7   0    1.55    0.26 
   3   7   0    1.25    0.15 
  -3  -7   0    1.32    0.23 
   3  -7   0    1.54    0.27 
   3   7  -1   77.86    2.81 
   3  -7   1   75.99    2.77 
  -3  -7  -1   79.75    2.77 
   3  -7   1   79.07    2.61 
   3   7   1   83.65    2.80 
   3  -7  -1   78.84    2.78 
   3   7   1   80.74    2.66 
  -3  -7   1   81.20    2.73 
   3  -7  -1   83.89    2.69 
   3   7  -2   36.10    1.49 
  -3  -7  -2   36.73    1.51 
   3  -7   2   36.16    1.48 
   3  -7  -2   36.26    1.49 
   3   7   2   36.84    1.41 
   3   7   2   36.80    1.45 
  -3  -7   2   38.16    1.44 
  -3  -7  -3  111.52    3.98 
   3   7  -3  111.36    3.91 
   3  -7   3  111.80    3.93 
  -3  -7   3  117.25    3.88 
   3  -7  -3  117.43    3.97 
  -3  -7  -4   62.77    2.56 
   3  -7   4   67.65    2.53 
   3   7  -4   64.25    2.45 
  -3  -7   4   65.33    2.45 
   3  -7  -4   66.21    2.55 
  -3  -7  -5   64.51    2.80 
   3  -7   5   67.61    2.75 
  -3  -7   5   74.63    2.74 
   3  -7  -5   74.08    2.82 
  -3  -7  -6   49.93    2.28 
   3  -7   6   48.14    2.20 
  -3  -7   6   47.48    2.12 
   3  -7  -6   49.10    2.23 
   4   7   0   26.38    0.96 
  -4  -7   0   25.91    1.06 
   4   7   0   25.78    1.14 
   4  -7   0   26.15    1.01 
   4  -7   0   26.14    1.10 
   4   7  -1   65.19    2.54 
  -4  -7  -1   69.70    2.49 
   4  -7   1   69.39    2.51 
   4  -7   1   70.72    2.38 
   4  -7  -1   73.45    2.44 
   4  -7  -1   69.73    2.50 
  -4  -7   1   72.79    2.45 
   4   7   1   74.37    2.54 
   4   7   1   73.43    2.42 
   4  -7   2   11.77    0.65 
   4  -7   2   12.10    0.69 
  -4  -7  -2   12.47    0.72 
   4   7  -2   11.72    0.70 
  -4  -7   2   11.16    0.61 
   4  -7  -2   10.96    0.67 
   4  -7  -2   11.52    0.62 
   4   7   2   11.60    0.64 
   4   7   2   10.46    0.61 
   4   7  -3   14.73    0.83 
   4  -7   3   16.08    0.86 
  -4  -7  -3   13.68    0.86 
  -4  -7   3   13.61    0.74 
   4   7   3   15.21    0.80 
   4  -7  -3   13.61    0.82 
   4  -7   4    3.62    0.49 
   4   7  -4    3.71    0.48 
  -4  -7  -4    3.84    0.53 
   4  -7  -4    4.32    0.55 
  -4  -7   4    4.44    0.49 
   4  -7   5    9.03    0.76 
  -4  -7  -5    9.65    0.82 
   4  -7  -5    9.26    0.78 
  -4  -7   5    9.11    0.71 
  -4  -7  -6    1.24    0.44 
   4  -7   6    1.27    0.40 
   4  -7  -6   -0.03    0.32 
   5  -7   0   75.14    2.65 
  -5  -7   0   74.99    2.58 
   5   7   0   75.85    2.53 
   5  -7   0   76.06    2.58 
   5   7   0   77.01    2.72 
   5  -7   1    5.14    0.42 
  -5  -7  -1    4.68    0.41 
   5   7  -1    5.17    0.44 
   5  -7   1    5.43    0.37 
   5  -7  -1    4.64    0.41 
   5  -7  -1    4.19    0.35 
  -5  -7   1    4.27    0.35 
   5   7   1    4.27    0.39 
   5   7   1    3.80    0.33 
  -5  -7  -2   39.19    1.53 
   5  -7   2   37.26    1.50 
   5  -7   2   38.59    1.39 
   5   7  -2   40.55    1.60 
   5   7   2   35.69    1.46 
  -5  -7   2   36.57    1.40 
   5   7   2   34.60    1.44 
   5  -7  -2   34.42    1.48 
   5  -7  -2   33.79    1.43 
  -5  -7  -3   72.59    2.70 
   5   7  -3   73.84    2.71 
   5  -7   3   77.76    2.70 
   5  -7  -3   72.27    2.66 
   5   7   3   69.93    2.62 
   5  -7  -3   68.86    2.60 
  -5  -7   3   69.15    2.54 
   5   7  -4   72.98    2.69 
  -5  -7  -4   71.83    2.73 
   5  -7   4   73.82    2.72 
   5  -7  -4   64.21    2.62 
   5   7   4   66.57    2.64 
  -5  -7  -5   55.11    2.36 
   5   7  -5   52.89    2.22 
   5  -7   5   53.57    2.29 
   5  -7  -5   55.53    2.29 
   5  -7   6   39.95    1.96 
  -5  -7  -6   42.85    2.04 
   5  -7  -6   38.67    1.90 
   6  -7   0  115.87    3.93 
   6   7   0  117.35    4.02 
   6   7   0  119.28    3.85 
   6  -7   0  117.96    3.89 
  -6  -7   0  115.35    3.84 
   6   7  -1   37.23    1.57 
  -6  -7  -1   37.45    1.44 
   6  -7   1   37.86    1.44 
   6  -7   1   39.11    1.51 
   6   7   1   36.92    1.44 
   6   7   1   37.01    1.51 
   6  -7  -1   37.44    1.46 
  -6  -7   1   36.00    1.37 
   6  -7  -1   36.22    1.46 
   6  -7   2   54.15    2.05 
   6   7  -2   53.55    2.12 
  -6  -7  -2   53.14    2.03 
   6  -7   2   52.91    1.95 
   6  -7  -2   53.57    2.02 
   6  -7  -2   52.86    2.00 
   6   7   2   53.17    2.01 
   6   7   2   54.28    2.01 
  -6  -7  -3   18.59    0.99 
   6   7  -3   15.36    0.96 
   6  -7   3   16.66    0.94 
   6  -7  -3   18.60    0.95 
   6   7   3   18.33    0.95 
   6  -7  -3   19.88    0.97 
   6  -7   4   34.39    1.63 
   6   7  -4   34.97    1.66 
  -6  -7  -4   36.49    1.67 
   6  -7  -4   37.74    1.62 
   6  -7  -4   35.78    1.60 
   6   7   4   38.14    1.64 
   6   7  -5    2.04    0.44 
   6  -7   5    1.58    0.39 
  -6  -7  -5    2.44    0.52 
   6  -7  -5    1.57    0.40 
   7  -7   0    0.70    0.21 
   7  -7   0    0.63    0.20 
   7   7   0    0.54    0.17 
   7   7   0    0.79    0.23 
   7  -7   1    6.29    0.49 
   7   7  -1    6.87    0.58 
   7  -7   1    9.14    0.56 
  -7  -7  -1    6.98    0.58 
   7   7   1    7.73    0.55 
   7  -7  -1    7.12    0.52 
   7   7   1    7.72    0.52 
   7  -7  -1    7.44    0.53 
   7   7  -2   12.03    0.80 
   7  -7   2   11.36    0.72 
  -7  -7  -2   13.16    0.74 
   7  -7   2   11.78    0.69 
   7  -7  -2   12.40    0.73 
   7   7   2   12.30    0.72 
   7   7   2   12.63    0.72 
   7  -7  -2   13.34    0.72 
   7   7  -3   15.77    0.97 
   7  -7   3   17.01    0.94 
  -7  -7  -3   15.71    0.91 
   7   7   3   16.12    0.91 
   7  -7  -3   16.87    0.89 
   7  -7  -3   15.89    0.89 
   7   7  -4   34.73    1.68 
   7  -7   4   35.96    1.64 
  -7  -7  -4   36.41    1.65 
   7  -7  -4   38.32    1.64 
   7   7   4   34.74    1.62 
   7  -7  -4   34.81    1.58 
   7  -7   5   29.33    1.52 
   7   7  -5   26.95    1.47 
  -7  -7  -5   28.74    1.52 
   7  -7  -5   28.14    1.45 
   7   7   5   29.37    1.49 
   8   7   0   31.31    1.29 
   8   7   0   30.63    1.39 
   8  -7   0   31.28    1.33 
   8  -7   0   31.14    1.30 
   8   7  -1  112.06    4.03 
   8  -7   1  114.56    3.92 
   8  -7   1  115.48    3.90 
   8   7   1  119.42    3.92 
   8   7   1  108.43    3.95 
   8  -7  -1  117.56    3.88 
   8  -7  -1  114.56    3.94 
   8  -7   2   37.37    1.58 
   8  -7   2   38.62    1.58 
   8   7  -2   38.98    1.72 
   8  -7  -2   38.04    1.61 
   8   7   2   40.18    1.61 
   8   7   2   36.95    1.56 
   8  -7  -2   38.35    1.54 
   8   7  -3   60.60    2.48 
   8  -7   3   59.77    2.35 
   8   7   3   59.83    2.36 
   8  -7  -3   60.54    2.36 
  -8  -7  -4    6.10    0.71 
   8  -7   4    7.44    0.74 
   8   7  -4    6.47    0.76 
   8   7   4    7.28    0.66 
   8  -7  -4    7.79    0.65 
  -8  -7  -5   13.20    0.99 
   8  -7   5   13.25    0.97 
   8   7   5   13.64    0.96 
   8  -7  -5   13.38    0.95 
   9  -7   0    0.87    0.24 
   9   7   0    0.86    0.23 
   9  -7   0    0.61    0.24 
   9   7   0    0.54    0.23 
   9  -7   1    9.53    0.62 
   9   7  -1   10.05    0.72 
   9  -7   1    9.28    0.64 
   9   7   1    8.89    0.63 
   9  -7  -1    9.04    0.66 
   9   7   1    9.94    0.67 
   9   7  -2   16.83    1.02 
   9  -7   2   16.55    0.90 
   9  -7   2   14.94    0.88 
   9   7   2   16.80    0.93 
   9  -7  -2   16.85    0.94 
   9   7  -3   21.56    1.21 
   9  -7   3   19.09    1.06 
   9  -7  -3   18.51    1.07 
   9   7   3   20.41    1.12 
   9   7  -4   13.35    0.98 
   9  -7   4   13.69    0.92 
   9   7   4   14.54    0.94 
   9  -7  -4   12.58    0.89 
  10   7   0   65.67    2.55 
  10   7   0   63.77    2.46 
  10  -7   0   65.99    2.51 
  10  -7   1   20.33    1.08 
  10   7  -1   21.00    1.17 
  10   7   1   21.29    1.11 
  10  -7  -1   21.10    1.12 
  10   7   1   24.60    1.13 
  10   7  -2   49.87    2.21 
  10  -7   2   51.43    2.10 
  10   7   2   53.58    2.12 
  10  -7  -2   51.69    2.13 
  10   7  -3    5.14    0.67 
  10  -7   3    5.34    0.59 
  10   7   3    5.60    0.63 
  10  -7  -3    4.96    0.60 
  10   7  -4   11.00    0.91 
  10  -7   4   11.13    0.83 
  10   7   4    9.26    0.79 
  10  -7  -4   10.11    0.82 
  11   7   0   15.20    0.96 
  11  -7   0   16.41    0.96 
  11  -7   1    0.50    0.26 
  11   7  -1    0.43    0.25 
  11  -7  -1    0.55    0.25 
  11   7   1    0.33    0.23 
  11   7   1    0.57    0.24 
  11  -7   2   14.04    0.92 
  11   7  -2   15.10    1.03 
  11  -7  -2   14.79    0.97 
  11   7   2   15.62    0.95 
  11   7  -3    1.63    0.44 
  11  -7  -3    2.07    0.45 
  11   7   3    1.98    0.41 
  12   7   0   37.97    1.77 
  12  -7   0   39.77    1.78 
  12  -7   1   84.92    3.25 
  12   7  -1   87.44    3.35 
  12  -7  -1   84.23    3.26 
  12   7   1   87.18    3.23 
  12   7  -2   34.97    1.79 
  12  -7   2   32.84    1.66 
  12  -7  -2   38.02    1.75 
  12   7   2   39.27    1.74 
  12   7  -3   45.29    2.24 
  12  -7  -3   50.63    2.22 
  12   7   3   51.62    2.19 
  13   7   0    0.70    0.31 
  13  -7   0    1.05    0.36 
  13  -7   1    2.03    0.44 
  13   7  -1    2.30    0.47 
  13   7   1    2.78    0.49 
  13  -7  -1    2.40    0.49 
  13  -7   2    2.84    0.53 
  13   7  -2    2.59    0.53 
  13   7   2    2.81    0.50 
  13  -7  -2    2.55    0.51 
   0  -8   0  577.10   17.10 
   0   8   0  516.70   17.08 
   0  -8  -1  436.53   13.74 
   0   8  -1  424.78   13.72 
   0  -8   1  447.70   13.72 
   0  -8   2  283.69    8.96 
   0   8  -2  271.91    8.91 
   0  -8  -2  283.08    9.01 
   0  -8  -3  212.54    7.12 
   0   8  -3  219.24    6.99 
   0  -8   3  214.85    7.06 
   0  -8  -4  121.34    4.34 
   0  -8   4  122.20    4.28 
   0  -8  -5   43.04    1.98 
   0  -8   5   42.08    1.89 
   0  -8  -6   19.32    1.29 
   0  -8   6   17.92    1.17 
  -1  -8   0   22.95    1.01 
   1  -8   0   24.28    1.04 
   1  -8   0   22.56    0.82 
   1   8   0   22.98    1.04 
  -1  -8  -1    7.97    0.54 
   1  -8   1    8.54    0.54 
   1   8  -1    7.54    0.52 
   1  -8  -1    8.30    0.56 
  -1  -8   1    8.04    0.52 
  -1   8  -1    7.21    0.50 
   1   8   1    7.83    0.53 
   1  -8   2    5.57    0.47 
  -1  -8  -2    4.52    0.51 
   1   8  -2    5.93    0.46 
  -1   8  -2    5.39    0.42 
   1  -8  -2    4.83    0.51 
  -1  -8   2    5.44    0.45 
   1   8  -3   16.31    0.82 
  -1  -8  -3   14.78    0.93 
   1  -8   3   16.33    0.88 
  -1  -8   3   15.57    0.85 
   1  -8  -3   14.51    0.90 
  -1   8  -3   15.60    0.78 
   1  -8   4    3.10    0.46 
   1   8  -4    3.01    0.44 
  -1  -8  -4    1.95    0.43 
   1  -8  -4    3.19    0.52 
  -1  -8   4    2.76    0.42 
  -1  -8  -5    0.67    0.34 
   1  -8   5    0.44    0.27 
   1  -8  -5    0.86    0.35 
  -1  -8   5    0.39    0.26 
  -1  -8  -6    2.57    0.56 
   1  -8   6    1.72    0.43 
  -1  -8   6    1.89    0.46 
   1  -8  -6    2.42    0.55 
  -2  -8   0  197.28    6.28 
   2  -8   0  192.00    6.09 
   2  -8   0  191.52    6.30 
   2   8   0  195.66    6.33 
   2  -8   1   16.10    0.87 
   2   8  -1   16.76    0.89 
  -2  -8  -1   16.61    0.89 
  -2  -8   1   21.65    0.91 
   2  -8  -1   21.24    0.94 
   2   8   1   22.28    0.95 
   2  -8   2  172.25    5.73 
   2   8  -2  180.05    5.75 
  -2  -8  -2  174.98    5.77 
  -2  -8   2  174.82    5.70 
   2  -8  -2  172.71    5.75 
  -2   8  -2  167.43    5.65 
  -2  -8  -3    4.70    0.55 
   2  -8   3    4.54    0.48 
  -2   8  -3    2.63    0.34 
  -2  -8   3    2.11    0.35 
   2  -8  -3    2.31    0.41 
  -2  -8  -4   37.61    1.72 
   2  -8   4   38.05    1.66 
   2  -8  -4   38.10    1.71 
  -2  -8   4   33.92    1.57 
  -2  -8  -5    0.81    0.36 
   2  -8   5    0.96    0.34 
   2  -8  -5    1.31    0.39 
  -2  -8   5    0.64    0.28 
   2  -8   6    7.03    0.82 
  -2  -8  -6    7.93    0.92 
  -2  -8   6    7.56    0.84 
   2  -8  -6    7.33    0.86 
   3  -8   0    2.43    0.24 
   3  -8   0    1.93    0.30 
   3   8   0    2.17    0.32 
  -3  -8   0    2.14    0.30 
   3  -8   1   10.91    0.64 
  -3  -8  -1   10.37    0.64 
   3  -8  -1   11.38    0.55 
   3   8   1   10.13    0.51 
  -3  -8   1   11.20    0.61 
   3  -8  -1   10.74    0.64 
   3   8   1   10.46    0.65 
  -3  -8  -2    4.36    0.52 
   3  -8   2    5.18    0.52 
   3   8  -2    4.77    0.44 
  -3  -8   2    4.58    0.45 
   3   8   2    4.80    0.43 
   3  -8  -2    4.97    0.52 
   3   8  -3    5.38    0.56 
   3  -8   3    4.09    0.48 
  -3  -8  -3    4.79    0.56 
   3  -8  -3    4.73    0.53 
  -3  -8   3    4.50    0.47 
  -3  -8  -4    6.85    0.74 
   3   8  -4    6.31    0.55 
   3  -8   4    5.43    0.63 
   3  -8  -4    8.12    0.69 
  -3  -8   4    7.89    0.60 
   3  -8   5   17.25    1.08 
  -3  -8  -5   17.82    1.14 
   3  -8  -5   18.83    1.15 
  -3  -8   5   16.98    1.03 
  -3  -8  -6    5.45    0.75 
   3  -8   6    4.83    0.68 
   3  -8  -6    4.58    0.69 
   4  -8   0  106.85    3.74 
   4  -8   0  109.91    3.60 
   4   8   0  111.96    3.81 
  -4  -8   0  112.44    3.70 
   4  -8   1  244.45    7.85 
   4   8  -1  236.15    7.89 
  -4  -8  -1  247.05    7.83 
   4  -8  -1  246.36    7.73 
   4   8   1  245.96    7.70 
  -4  -8   1  242.87    7.77 
   4  -8  -1  240.84    7.84 
   4   8  -2   39.42    1.64 
   4  -8   2   40.29    1.62 
  -4  -8  -2   38.58    1.62 
   4  -8  -2   38.87    1.51 
   4   8   2   37.53    1.56 
  -4  -8   2   39.12    1.53 
   4   8   2   38.39    1.51 
   4  -8  -2   39.36    1.61 
   4   8  -3  123.68    4.43 
  -4  -8  -3  127.79    4.47 
   4  -8   3  129.66    4.44 
  -4  -8   3  128.79    4.35 
   4   8   3  128.86    4.36 
   4  -8  -3  132.09    4.45 
   4   8  -4   12.82    0.81 
  -4  -8  -4   12.42    0.89 
   4  -8   4   12.81    0.85 
  -4  -8   4   11.34    0.75 
   4  -8  -4   12.71    0.87 
  -4  -8  -5   20.40    1.25 
   4  -8   5   21.81    1.23 
  -4  -8   5   19.86    1.21 
   4  -8  -5   21.75    1.26 
   5  -8   0    4.55    0.47 
  -5  -8   0    4.46    0.39 
   5   8   0    3.64    0.46 
   5  -8   0    4.01    0.34 
   5  -8   1    1.07    0.25 
   5  -8   1    1.48    0.26 
   5   8  -1    1.37    0.28 
  -5  -8  -1    1.61    0.30 
   5  -8  -1    1.54    0.25 
   5   8   1    1.22    0.22 
  -5  -8   1    1.35    0.25 
   5  -8  -1    1.40    0.29 
   5   8   1    1.47    0.30 
   5  -8   2   10.74    0.70 
  -5  -8  -2   11.12    0.73 
   5   8  -2   10.77    0.73 
   5   8   2   11.64    0.66 
   5   8   2   12.42    0.71 
   5  -8  -2   12.98    0.68 
   5  -8  -2   11.98    0.73 
  -5  -8   2   12.44    0.66 
   5  -8   3   11.43    0.76 
  -5  -8  -3   11.45    0.80 
   5   8  -3   11.42    0.77 
  -5  -8   3   11.31    0.67 
   5  -8  -3   12.16    0.72 
   5   8   3   12.08    0.73 
   5  -8  -3   11.84    0.77 
   5   8  -4    8.37    0.68 
  -5  -8  -4    7.93    0.78 
   5  -8   4    7.86    0.67 
   5  -8  -4    8.44    0.70 
   5   8  -5    5.08    0.63 
  -5  -8  -5    5.33    0.71 
   5  -8   5    4.54    0.64 
   5  -8  -5    4.33    0.62 
   6   8   0   14.76    0.87 
   6  -8   0   17.72    0.86 
   6  -8   0   17.35    0.80 
  -6  -8   0   16.44    0.79 
   6  -8   1   34.08    1.32 
   6   8  -1   33.00    1.46 
   6  -8   1   32.04    1.38 
  -6  -8  -1   33.60    1.35 
   6  -8  -1   33.49    1.34 
   6   8   1   32.36    1.41 
   6  -8  -1   31.40    1.36 
   6   8   1   32.46    1.30 
  -6  -8   1   33.72    1.46 
   6   8  -2   37.55    1.61 
   6  -8   2   35.75    1.51 
  -6  -8  -2   36.14    1.51 
   6   8   2   33.71    1.46 
   6  -8  -2   34.32    1.45 
   6  -8  -2   35.13    1.48 
   6   8   2   35.58    1.45 
   6   8  -3   20.58    1.12 
  -6  -8  -3   20.68    1.11 
   6  -8   3   19.98    1.08 
   6  -8  -3   20.49    1.05 
   6   8   3   21.14    1.06 
   6  -8  -3   20.10    1.02 
   6  -8   4    4.41    0.59 
  -6  -8  -4    4.54    0.62 
   6  -8  -4    5.40    0.59 
   6  -8  -4    5.87    0.64 
  -6  -8  -5    1.89    0.47 
   6   8  -5    2.43    0.49 
   6  -8   5    2.41    0.50 
   6  -8  -5    2.72    0.51 
   7   8   0   20.09    1.06 
   7  -8   0   20.43    0.99 
   7  -8   0   22.46    0.99 
   7   8  -1    3.96    0.51 
   7  -8   1    5.79    0.45 
   7  -8   1    5.30    0.47 
   7   8   1    4.99    0.42 
   7   8   1    4.32    0.49 
   7  -8  -1    5.68    0.48 
   7  -8  -1    4.36    0.46 
   7  -8   2   13.47    0.77 
  -7  -8  -2   12.16    0.74 
   7   8  -2   12.69    0.82 
   7   8   2   10.80    0.70 
   7  -8  -2   11.18    0.71 
   7   8   2   10.98    0.69 
   7  -8  -2   10.68    0.70 
  -7  -8  -3   11.91    0.82 
   7  -8   3   13.28    0.84 
   7   8  -3   14.11    0.91 
   7   8   3   12.74    0.80 
   7  -8  -3   12.32    0.80 
   7  -8  -3   13.11    0.80 
  -7  -8  -4   29.27    1.48 
   7  -8   4   34.11    1.54 
   7   8  -4   28.73    1.50 
   7  -8  -4   28.03    1.41 
   7   8   4   28.64    1.42 
   7  -8  -4   30.87    1.43 
   7  -8   5   29.00    1.53 
   7   8  -5   28.96    1.53 
  -7  -8  -5   27.82    1.52 
   7   8   5   29.54    1.50 
   7  -8  -5   27.07    1.44 
   8   8   0   87.62    3.22 
   8  -8   0   88.20    3.10 
   8  -8   0   87.64    3.09 
   8  -8   1  240.87    7.71 
   8  -8   1  226.58    7.65 
   8   8  -1  233.39    7.84 
   8  -8  -1  242.09    7.68 
   8   8   1  235.45    7.77 
   8  -8  -1  239.57    7.71 
   8   8   1  239.56    7.66 
   8   8  -2   42.99    1.90 
   8  -8   2   44.60    1.80 
   8   8   2   44.27    1.77 
   8  -8  -2   42.45    1.77 
   8   8   2   41.65    1.76 
   8   8  -3  130.55    4.62 
   8   8   3  127.08    4.47 
   8  -8  -3  127.44    4.49 
   8   8  -4   15.04    1.03 
   8  -8   4   14.67    0.98 
   8  -8  -4   15.67    0.99 
   8   8   4   16.20    0.99 
   9   8   0    0.93    0.28 
   9  -8   0    0.89    0.26 
   9  -8   1   10.74    0.69 
   9   8  -1   10.81    0.78 
   9  -8   1   11.03    0.70 
   9   8   1    9.88    0.71 
   9  -8  -1    9.56    0.68 
   9   8   1   10.20    0.75 
   9  -8   2   11.47    0.75 
   9   8  -2   12.01    0.85 
   9  -8  -2   11.17    0.78 
   9   8   2   11.01    0.74 
   9  -8   3   22.18    1.15 
   9   8  -3   20.72    1.23 
   9   8   3   19.83    1.11 
   9  -8  -3   19.65    1.12 
   9  -8   4   16.71    1.07 
   9   8  -4   18.29    1.18 
   9   8   4   17.74    1.09 
   9  -8  -4   18.54    1.10 
  10  -8   0   11.89    0.79 
  10   8   0   12.44    0.84 
  10  -8   1    5.20    0.58 
  10   8  -1    4.93    0.64 
  10   8   1    4.86    0.57 
  10  -8  -1    4.78    0.56 
  10   8  -2   11.32    0.85 
  10  -8  -2   10.67    0.78 
  10   8   2   10.43    0.74 
  10   8  -3    0.81    0.33 
  10  -8   3    0.90    0.31 
  10  -8  -3    0.30    0.24 
  10   8   3    1.08    0.33 
  10  -8   4    1.98    0.44 
  10   8   4    1.40    0.39 
  11   8   0    2.91    0.49 
  11  -8   0    3.06    0.48 
  11   8  -1    6.09    0.74 
  11  -8   1    7.57    0.64 
  11   8   1    6.92    0.63 
  11  -8  -1    6.65    0.70 
  11   8   2   18.84    1.07 
  11  -8  -2   17.65    1.08 
  11   8  -3   20.59    1.34 
  11   8   3   23.36    1.27 
  11  -8  -3   23.57    1.30 
  12   8   0   15.02    0.99 
  12  -8   0   13.66    0.93 
  12  -8   1    7.62    0.80 
  12   8  -1   10.35    0.85 
  12  -8  -1    9.41    0.77 
  12   8  -2   10.36    0.88 
  12  -8  -2    9.78    0.83 
  12   8   2   10.69    0.82 
  13   8   0    3.32    0.55 
  13  -8   0    2.43    0.48 
  13  -8   1    2.45    0.51 
  13   8  -1    2.34    0.51 
   0   9   0    1.84    0.31 
   0  -9   0    1.62    0.29 
   0   9  -1    6.26    0.48 
   0  -9  -1    4.22    0.47 
   0  -9  -2    5.74    0.60 
   0   9  -2    7.34    0.53 
   0  -9   2    7.05    0.54 
   0  -9  -3    2.36    0.41 
   0   9  -3    1.73    0.31 
   0  -9   3    1.92    0.35 
   0  -9  -4    1.04    0.36 
   0  -9   4    0.31    0.23 
   0  -9   5    0.33    0.26 
   0  -9  -5    0.57    0.35 
   1   9   0   41.02    1.66 
   1  -9   0   41.32    1.65 
  -1  -9   0   41.70    1.64 
   1  -9   1   20.16    0.95 
   1   9  -1   21.06    0.98 
  -1  -9  -1   20.42    0.98 
   1   9   1   17.98    0.94 
  -1  -9   1   17.77    0.91 
   1  -9  -1   19.12    0.95 
  -1   9  -1   18.81    0.93 
   1  -9   2   62.49    2.38 
   1   9  -2   63.13    2.37 
  -1  -9  -2   62.33    2.41 
  -1   9  -2   64.17    2.34 
   1  -9  -2   66.29    2.43 
  -1  -9   2   64.26    2.37 
   1  -9   3   66.95    2.61 
   1   9  -3   70.38    2.58 
  -1  -9  -3   70.32    2.69 
  -1  -9   3   67.58    2.59 
  -1   9  -3   71.23    2.54 
   1  -9  -3   71.62    2.69 
   1  -9   4   74.43    2.90 
  -1  -9  -4   75.63    3.00 
  -1  -9   4   76.70    2.88 
   1  -9  -4   79.23    2.99 
   1  -9   5   51.49    2.24 
  -1  -9  -5   52.31    2.33 
  -1  -9   5   51.26    2.22 
   1  -9  -5   56.91    2.38 
   2   9   0   37.90    1.57 
   2  -9   0   38.53    1.56 
  -2  -9   0   38.96    1.55 
   2  -9   1   21.31    1.04 
  -2  -9  -1   22.18    1.06 
   2   9  -1   20.79    1.05 
   2   9   1   24.56    1.08 
  -2  -9   1   20.89    1.01 
   2  -9  -1   22.18    1.06 
   2  -9  -1   23.08    0.90 
   2   9  -2   10.21    0.66 
   2  -9   2    9.45    0.65 
  -2  -9  -2    9.85    0.69 
  -2   9  -2    9.50    0.60 
   2  -9  -2    9.61    0.68 
  -2  -9   2    8.66    0.60 
  -2  -9  -3    9.72    0.74 
   2   9  -3    9.97    0.66 
   2  -9   3    8.84    0.66 
  -2   9  -3   10.04    0.61 
   2  -9  -3    9.14    0.72 
  -2  -9   3    8.63    0.63 
  -2  -9  -4   12.11    0.89 
   2   9  -4   11.87    0.77 
   2  -9   4   11.91    0.83 
  -2  -9   4   13.18    0.82 
   2  -9  -4   11.69    0.86 
   2  -9   5    1.63    0.41 
  -2  -9  -5    2.91    0.56 
  -2  -9   5    1.45    0.37 
   2  -9  -5    1.74    0.47 
   3  -9   0   72.07    2.64 
  -3  -9   0   73.94    2.61 
   3   9   0   73.31    2.68 
   3  -9   1   39.15    1.54 
  -3  -9  -1   36.03    1.51 
   3   9  -1   37.22    1.55 
   3  -9  -1   37.32    1.37 
   3  -9  -1   34.61    1.51 
   3   9   1   35.35    1.52 
  -3  -9   1   36.41    1.47 
   3   9  -2   40.21    1.70 
   3  -9   2   41.87    1.70 
  -3  -9  -2   42.02    1.73 
  -3  -9   2   39.26    1.62 
   3  -9  -2   41.40    1.71 
   3   9   2   40.45    1.67 
  -3  -9  -3   40.43    1.77 
   3   9  -3   43.59    1.75 
   3  -9   3   43.42    1.76 
  -3  -9   3   37.33    1.64 
   3  -9  -3   38.91    1.75 
  -3  -9  -4   56.11    2.36 
   3  -9   4   56.49    2.30 
   3   9  -4   57.34    2.24 
   3  -9  -4   56.40    2.33 
  -3  -9   4   53.96    2.22 
  -3  -9  -5   46.42    2.11 
   3  -9   5   45.37    2.04 
  -3  -9   5   41.89    1.94 
   3  -9  -5   47.45    2.08 
  -4  -9   0   24.71    1.11 
   4  -9   0   24.63    1.15 
   4   9   0   26.29    1.20 
   4  -9   1   35.05    1.49 
  -4  -9  -1   34.86    1.47 
   4   9  -1   32.10    1.50 
   4  -9  -1   36.64    1.50 
  -4  -9   1   36.43    1.43 
   4   9   1   35.46    1.50 
   4  -9  -1   37.00    1.37 
  -4  -9  -2   19.46    1.02 
   4  -9   2   17.67    0.96 
   4   9  -2   19.13    1.01 
   4   9   2   19.39    0.97 
   4  -9  -2   18.64    0.99 
  -4  -9   2   18.94    0.92 
   4  -9  -2   18.68    0.89 
   4  -9   3   10.71    0.74 
   4   9  -3   10.49    0.74 
  -4  -9  -3   10.37    0.79 
   4  -9  -3   12.23    0.79 
  -4  -9   3   10.72    0.68 
  -4  -9  -4    1.96    0.46 
   4  -9   4    2.64    0.44 
   4  -9  -4    1.73    0.41 
  -4  -9   4    1.81    0.35 
   4  -9   5    1.70    0.42 
  -4  -9  -5    1.33    0.42 
   4  -9  -5    1.14    0.40 
   5  -9   0   82.74    2.98 
  -5  -9   0   83.39    2.92 
   5   9   0   84.25    3.05 
   5   9  -1    2.97    0.43 
  -5  -9  -1    3.73    0.45 
   5  -9   1    4.24    0.48 
   5  -9  -1    5.27    0.39 
   5  -9  -1    4.60    0.50 
   5   9   1    4.78    0.52 
  -5  -9   1    5.16    0.43 
   5  -9   2   77.63    3.02 
  -5  -9  -2   79.92    3.03 
   5   9  -2   79.65    3.09 
   5  -9  -2   86.46    2.97 
   5   9   2   90.14    2.96 
  -5  -9   2   84.83    2.95 
   5  -9  -2   86.88    3.05 
   5   9   2   85.57    3.04 
  -5  -9  -3   24.34    1.24 
   5   9  -3   22.96    1.23 
   5  -9   3   24.76    1.23 
   5  -9  -3   23.80    1.15 
   5   9   3   25.55    1.16 
   5  -9  -3   24.36    1.22 
  -5  -9  -4   68.66    2.87 
   5  -9   4   75.31    2.89 
   5   9  -4   73.91    2.86 
   5  -9  -4   75.14    2.86 
  -5  -9  -5   35.32    1.79 
   5  -9   5   35.20    1.75 
   5  -9  -5   37.39    1.76 
   6   9   0   21.81    1.10 
   6  -9   0   21.43    1.02 
   6  -9   0   21.25    1.03 
  -6  -9   0   21.14    0.98 
   6  -9   1   14.64    0.83 
   6   9  -1   14.45    0.89 
  -6  -9  -1   15.30    0.82 
   6   9   1   15.17    0.87 
   6  -9  -1   16.20    0.86 
   6  -9  -1   16.08    0.80 
   6  -9   2   22.07    1.13 
  -6  -9  -2   22.45    1.12 
   6   9  -2   21.82    1.19 
   6  -9  -2   22.35    1.06 
   6  -9  -2   24.21    1.14 
   6   9   2   23.24    1.06 
   6   9   2   23.65    1.14 
   6   9  -3    5.40    0.65 
   6  -9   3    6.84    0.69 
  -6  -9  -3    6.15    0.66 
   6  -9  -3    7.49    0.58 
   6   9   3    6.27    0.55 
   6  -9  -3    6.71    0.66 
   6  -9   4    5.17    0.66 
  -6  -9  -4    4.59    0.62 
   6   9  -4    5.34    0.68 
   6  -9  -4    5.57    0.64 
   6  -9  -4    6.33    0.67 
   6   9  -5    0.78    0.35 
  -6  -9  -5    0.36    0.35 
   6  -9   5    0.62    0.33 
   6  -9  -5    1.37    0.41 
   6  -9  -5    1.83    0.39 
   7  -9   0   17.06    0.90 
   7   9   0   17.05    0.97 
   7  -9   0   16.57    0.84 
   7  -9   1    6.19    0.54 
   7   9  -1    6.96    0.60 
   7  -9  -1    7.05    0.55 
   7  -9  -1    5.69    0.48 
   7   9   1    6.29    0.56 
  -7  -9  -2   17.49    1.00 
   7   9  -2   16.74    1.03 
   7  -9   2   18.49    0.98 
   7   9   2   18.04    0.91 
   7  -9  -2   17.21    0.93 
   7   9   2   17.92    0.96 
   7  -9  -2   16.34    0.93 
   7  -9   3   15.94    0.96 
  -7  -9  -3   14.84    0.95 
   7   9  -3   17.91    1.07 
   7  -9  -3   15.86    0.92 
   7  -9  -3   15.83    0.94 
   7   9   3   14.68    0.90 
  -7  -9  -4   29.46    1.50 
   7  -9   4   31.43    1.52 
   7   9  -4   32.32    1.58 
   7   9   4   26.20    1.39 
   7  -9  -4   26.85    1.39 
   7  -9  -4   27.72    1.40 
   8  -9   0   53.03    2.08 
   8   9   0   56.58    2.25 
   8  -9   0   55.51    2.13 
   8  -9   1   66.84    2.47 
   8  -9  -1   63.72    2.43 
   8   9   1   64.59    2.52 
   8  -9  -1   64.32    2.44 
   8   9  -2   41.83    1.87 
   8  -9   2   41.04    1.74 
   8  -9  -2   40.46    1.70 
   8   9   2   39.20    1.71 
   8  -9  -2   40.75    1.72 
   8   9  -3   27.17    1.43 
   8  -9   3   25.27    1.30 
   8   9   3   25.69    1.28 
   8  -9  -3   25.22    1.29 
   8  -9   4    8.83    0.88 
   8   9  -4   11.74    0.91 
   8  -9  -4    8.99    0.74 
   8   9   4    8.30    0.72 
   9  -9   0    1.98    0.37 
   9  -9   0    1.71    0.33 
   9   9   0    2.22    0.43 
   9  -9   1    3.31    0.46 
   9   9  -1    3.21    0.50 
   9   9   1    3.64    0.50 
   9  -9  -1    3.33    0.46 
   9   9  -2    5.48    0.69 
   9  -9   2    5.65    0.60 
   9  -9  -2    5.23    0.60 
   9   9  -3   11.74    0.93 
   9  -9   3   13.98    0.90 
   9   9   3   12.53    0.83 
   9  -9  -3   12.54    0.86 
   9  -9   4    9.44    0.92 
   9   9  -4    8.21    0.94 
   9  -9  -4    9.24    0.78 
   9   9   4    9.74    0.80 
  10   9   0   83.12    3.12 
  10  -9   0   77.93    2.99 
  10   9  -1   40.39    1.89 
  10   9   1   41.31    1.83 
  10  -9  -1   41.78    1.78 
  10  -9   2   32.99    1.78 
  10   9  -2   30.94    1.64 
  10  -9  -2   33.99    1.57 
  10   9  -3   17.71    1.21 
  10  -9   3   19.06    1.12 
  10  -9  -3   20.20    1.16 
  10   9   3   20.10    1.13 
  11  -9   0   17.13    1.02 
  11   9   0   17.39    1.08 
  11   9  -1    2.28    0.46 
  11  -9  -1    2.03    0.40 
  11   9   1    2.09    0.42 
  11   9  -2   17.60    1.18 
  11  -9  -2   17.91    1.11 
  11   9  -3    1.66    0.47 
  11  -9  -3    1.71    0.43 
  11   9   3    1.80    0.50 
  12  -9   0   29.80    1.48 
  12   9   0   28.70    1.52 
  12   9  -1   46.08    2.12 
  12  -9  -1   44.37    2.00 
  12   9  -2   28.14    1.60 
  12  -9  -2   29.74    1.53 
   0  10   0   17.56    0.95 
   0 -10   0   19.50    0.97 
   0 -10  -1   69.67    2.60 
   0  10  -1   73.45    2.62 
   0 -10   1   67.22    2.56 
   0 -10  -2   16.60    0.95 
   0  10  -2   15.68    0.88 
   0 -10   2   17.10    0.92 
   0 -10  -3   47.21    2.04 
   0  10  -3   48.48    1.92 
   0 -10   3   48.64    1.99 
   0 -10   4    7.51    0.75 
   0 -10  -4    7.77    0.83 
   0 -10  -5    6.55    0.80 
   0 -10   5    7.72    0.82 
   1 -10   0    1.74    0.32 
  -1 -10   0    1.82    0.34 
   1  10   0    1.84    0.33 
  -1 -10  -1    3.01    0.42 
   1  10  -1    2.81    0.41 
   1 -10   1    2.74    0.39 
  -1 -10   1    2.42    0.35 
  -1  10  -1    2.68    0.39 
   1 -10  -1    2.02    0.36 
  -1 -10  -2    0.97    0.30 
   1  10  -2    0.82    0.26 
   1 -10   2    0.99    0.25 
   1 -10  -2    0.65    0.26 
  -1 -10   2    0.70    0.24 
  -1  10  -2    0.82    0.24 
  -1 -10  -3    2.03    0.42 
   1  10  -3    2.59    0.39 
   1 -10   3    1.74    0.35 
  -1  10  -3    1.63    0.31 
  -1 -10   3    1.33    0.30 
   1 -10  -3    1.65    0.40 
   1 -10   4    1.64    0.39 
  -1 -10  -4    2.50    0.49 
  -1 -10   4    2.40    0.43 
   1 -10  -4    2.43    0.50 
   1 -10   5    0.83    0.33 
  -1 -10  -5    0.99    0.42 
   1 -10  -5    1.23    0.43 
  -1 -10   5    0.47    0.30 
  -2 -10   0  100.26    3.54 
   2 -10   0  105.59    3.58 
   2  10   0   99.38    3.59 
   2 -10   1  172.45    5.71 
  -2 -10  -1  168.16    5.69 
   2  10  -1  180.93    5.76 
   2  10   1  166.82    5.72 
   2 -10  -1  172.18    5.72 
  -2 -10   1  165.78    5.66 
   2 -10   2   74.85    2.85 
  -2 -10  -2   78.32    2.90 
   2  10  -2   81.69    2.90 
  -2 -10   2   76.38    2.83 
   2 -10  -2   77.95    2.90 
  -2 -10  -3   81.69    3.14 
   2 -10   3   78.61    3.07 
   2  10  -3   80.94    3.05 
  -2  10  -3   85.60    3.01 
   2 -10  -3   87.52    3.16 
  -2 -10   3   83.97    3.06 
   2  10  -4   15.93    0.93 
   2 -10   4   15.34    0.98 
  -2 -10  -4   15.77    1.06 
  -2 -10   4   15.98    0.97 
   2 -10  -4   17.13    1.08 
  -2 -10  -5   16.14    1.14 
   2 -10   5   16.03    1.08 
  -2 -10   5   15.64    1.03 
   2 -10  -5   16.03    1.13 
   3  10   0   24.99    1.18 
   3 -10   0   23.65    1.13 
  -3 -10   0   22.08    1.09 
  -3 -10  -1    2.82    0.41 
   3 -10   1    3.86    0.47 
   3  10  -1    3.58    0.47 
  -3 -10   1    2.41    0.36 
   3 -10  -1    3.19    0.43 
   3  10   1    3.24    0.44 
  -3 -10  -2   10.18    0.72 
   3 -10   2    9.50    0.68 
   3  10  -2   11.33    0.73 
   3 -10  -2    8.98    0.69 
   3 -10  -2    8.57    0.55 
  -3 -10   2    9.59    0.65 
   3 -10   3    7.24    0.64 
   3  10  -3    8.22    0.64 
   3 -10  -3    8.17    0.70 
  -3 -10   3    8.30    0.63 
   3  10  -4   13.14    0.86 
  -3 -10  -4   11.57    0.92 
   3 -10   4   14.95    0.93 
  -3 -10   4   12.22    0.83 
   3 -10  -4   12.73    0.94 
   3 -10   5    6.21    0.76 
  -3 -10  -5    5.40    0.75 
  -3 -10   5    5.88    0.67 
   3 -10  -5    5.39    0.73 
  -4 -10   0  122.91    4.26 
   4  10   0  126.68    4.37 
   4 -10   0  126.39    4.32 
  -4 -10  -1   96.02    3.43 
   4 -10   1   95.14    3.45 
   4  10  -1   99.94    3.52 
  -4 -10   1   94.50    3.38 
   4 -10  -1   97.90    3.46 
   4  10   1  100.58    3.51 
   4 -10   2   98.90    3.59 
   4  10  -2  103.64    3.65 
  -4 -10  -2   97.35    3.58 
   4 -10  -2   99.72    3.44 
   4  10   2  100.26    3.58 
   4 -10  -2  102.85    3.60 
  -4 -10   2  100.27    3.51 
   4 -10   3   43.61    1.89 
   4  10  -3   43.85    1.90 
  -4 -10  -3   45.26    1.95 
  -4 -10   3   43.26    1.80 
   4 -10  -3   45.33    1.91 
   4  10  -4   31.17    1.53 
   4 -10   4   33.15    1.59 
  -4 -10  -4   30.50    1.59 
   4 -10  -4   33.92    1.62 
  -4 -10   4   33.47    1.52 
   4 -10   5   10.46    0.90 
  -4 -10  -5   11.20    1.09 
   4 -10  -5    9.43    0.94 
   5  10   0    6.06    0.55 
   5 -10   0    6.04    0.53 
  -5 -10   0    5.80    0.50 
   5  10  -1   12.25    0.79 
   5 -10   1   10.63    0.72 
  -5 -10  -1   11.32    0.72 
  -5 -10   1   11.38    0.68 
   5 -10  -1   11.94    0.75 
   5  10   1   10.66    0.73 
   5 -10   2    3.11    0.45 
   5  10  -2    3.97    0.54 
  -5 -10  -2    3.77    0.49 
   5 -10  -2    3.70    0.41 
   5  10   2    3.46    0.46 
  -5 -10   2    3.66    0.43 
   5 -10  -2    3.25    0.47 
   5  10  -3   14.50    0.94 
   5 -10   3   15.88    0.95 
  -5 -10  -3   14.26    0.95 
   5 -10  -3   13.31    0.82 
   5 -10  -3   13.82    0.91 
  -5 -10  -4   16.19    1.09 
   5 -10   4   17.32    1.07 
   5  10  -4   17.23    1.06 
   5 -10  -4   16.53    0.97 
   5 -10  -4   17.05    1.06 
  -5 -10  -5   15.34    1.13 
   5 -10   5   13.69    1.03 
   5 -10  -5   14.68    1.05 
   6  10   0  121.94    4.26 
   6 -10   0  122.42    4.18 
  -6 -10   0  117.31    4.11 
   6 -10   1   50.26    2.05 
   6  10  -1   50.78    2.15 
  -6 -10  -1   50.60    2.02 
   6 -10  -1   53.30    2.08 
   6  10   1   54.69    2.13 
   6 -10   2   74.52    2.78 
  -6 -10  -2   71.69    2.73 
   6  10  -2   74.24    2.86 
   6  10   2   71.46    2.76 
   6 -10  -2   73.76    2.67 
   6 -10  -2   71.26    2.73 
   6  10  -3   13.77    0.94 
   6 -10   3   14.25    0.91 
  -6 -10  -3   14.29    0.94 
   6  10   3   14.65    0.93 
   6 -10  -3   12.56    0.82 
   6 -10  -3   14.73    0.92 
   6 -10   4   23.69    1.32 
   6  10  -4   24.28    1.34 
  -6 -10  -4   23.65    1.33 
   6 -10  -4   24.02    1.30 
   6 -10  -4   23.68    1.24 
   7  10   0    4.85    0.57 
   7 -10   0    5.34    0.56 
   7 -10   1    3.51    0.47 
   7  10  -1    4.36    0.59 
   7 -10  -1    3.81    0.48 
   7  10   1    3.31    0.49 
   7  10  -2   17.07    1.02 
   7 -10   2   15.23    0.92 
   7 -10  -2   15.17    0.91 
   7 -10  -2   14.22    0.83 
   7  10   2   13.40    0.88 
  -7 -10  -3    9.89    0.77 
   7  10  -3    9.27    0.80 
   7 -10   3    9.15    0.75 
   7 -10  -3    9.46    0.71 
   7 -10  -3    9.43    0.73 
   7 -10   4   11.69    0.90 
  -7 -10  -4   12.79    0.95 
   7  10  -4   12.99    0.97 
   7 -10  -4   12.23    0.91 
   7 -10  -4   11.67    0.84 
   8  10   0   37.59    1.78 
   8 -10   0   42.76    1.73 
   8  10  -1    9.68    0.77 
   8 -10   1   10.11    0.71 
   8 -10  -1    8.66    0.90 
   8  10   1    9.09    0.72 
   8 -10  -1    8.56    0.68 
   8  10  -2   18.02    1.12 
   8 -10   2   17.09    1.01 
   8 -10  -2   18.57    1.01 
   8  10   2   17.85    1.02 
   8 -10  -2   16.64    0.97 
   8  10  -3    1.56    0.42 
   8 -10   3    1.61    0.38 
   8 -10  -3    1.82    0.41 
   8 -10  -3    1.62    0.36 
   8  10  -4    6.17    0.78 
   8 -10   4    7.09    0.80 
   8  10   4    5.97    0.70 
   9 -10   0    4.91    0.54 
   9  10   0    3.90    0.56 
   9  10  -1    7.19    0.78 
   9 -10   1    7.38    0.62 
   9 -10  -1    7.69    0.69 
   9 -10  -1    5.71    0.79 
   9  10   1    7.26    0.74 
   9 -10   2   15.00    0.95 
   9 -10  -2   14.82    0.93 
   9  10  -3   15.41    1.09 
   9 -10   3   13.85    0.95 
   9 -10  -3   15.50    0.99 
  10  10   0   19.25    1.15 
  10  10  -1   14.43    1.01 
  10 -10  -1   15.74    1.00 
  10  10   1   14.55    0.97 
  10 -10   2   21.14    1.15 
  10  10  -2   18.53    1.21 
  10 -10  -2   18.77    1.11 
  10  10  -3   10.21    0.92 
  10 -10   3   10.13    0.83 
  10 -10  -3   11.28    0.87 
  11  10   0   11.87    0.91 
  11  10  -1    6.13    0.77 
  11 -10  -1    3.50    0.59 
  11  10   1    3.84    0.58 
  11  10  -2   22.66    1.38 
  11 -10  -2   21.91    1.27 
  12  10   0    2.12    0.49 
   0 -11   0    1.87    0.35 
   0 -11  -1    2.84    0.42 
   0  11  -1    2.16    0.36 
   0 -11   1    2.09    0.36 
   0  11  -2    2.51    0.39 
   0 -11  -2    2.36    0.41 
   0 -11   2    1.98    0.34 
   0 -11  -3    1.45    0.39 
   0 -11   3    1.84    0.38 
   0  11  -3    1.77    0.35 
   0 -11  -4    0.99    0.38 
   0 -11   4    0.71    0.30 
   0 -11   5    0.32    0.29 
   0 -11  -5    0.49    0.38 
   1 -11   0   20.89    1.09 
   1  11   0   21.60    1.11 
  -1 -11   0   22.16    1.10 
   1  11  -1    3.93    0.53 
   1 -11   1    3.54    0.46 
  -1 -11  -1    3.63    0.49 
   1 -11  -1    3.98    0.51 
  -1  11  -1    5.66    0.60 
  -1 -11   1    4.57    0.51 
   1 -11   2   26.60    1.35 
   1  11  -2   27.54    1.36 
  -1 -11  -2   27.15    1.39 
   1 -11  -2   32.09    1.46 
  -1 -11   2   31.70    1.40 
  -1  11  -2   31.98    1.39 
   1 -11   3   22.76    1.22 
  -1 -11  -3   21.70    1.25 
   1  11  -3   25.34    1.22 
   1 -11  -3   22.08    1.25 
  -1 -11   3   23.80    1.21 
  -1  11  -3   24.36    1.17 
   1 -11   4   43.07    2.02 
  -1 -11  -4   46.36    2.13 
   1 -11  -4   49.32    2.15 
  -1 -11   4   48.78    2.06 
  -1 -11  -5   35.46    1.88 
   1 -11  -5   37.82    1.89 
  -2 -11   0    3.91    0.47 
   2  11   0    3.66    0.47 
   2 -11   0    5.16    0.55 
  -2 -11  -1    7.67    0.63 
   2 -11   1    6.74    0.58 
   2  11  -1    7.39    0.62 
   2 -11  -1    9.13    0.66 
  -2 -11   1    7.37    0.58 
   2  11   1    8.52    0.64 
   2 -11   2    3.74    0.48 
  -2 -11  -2    4.64    0.57 
   2  11  -2    4.04    0.52 
   2 -11  -2    4.53    0.54 
  -2 -11   2    3.72    0.48 
   2  11  -3    2.13    0.39 
   2 -11   3    1.98    0.39 
  -2 -11  -3    1.78    0.41 
  -2 -11   3    2.12    0.39 
   2 -11  -3    1.51    0.39 
   2  11  -4    5.75    0.65 
   2 -11   4    6.43    0.72 
  -2 -11  -4    6.26    0.76 
   2 -11  -4    6.71    0.80 
  -2 -11   4    6.48    0.70 
   2 -11   5    0.62    0.32 
  -2 -11  -5   -0.10    0.33 
  -2 -11   5    0.36    0.28 
   2 -11  -5    0.48    0.38 
   3 -11   0   17.88    0.97 
   3  11   0   17.45    1.00 
  -3 -11   0   17.64    0.95 
  -3 -11  -1   28.38    1.41 
   3  11  -1   32.28    1.49 
   3 -11   1   29.52    1.42 
  -3 -11   1   33.78    1.42 
   3 -11  -1   32.33    1.46 
   3  11   1   35.09    1.51 
   3  11  -2   21.86    1.17 
   3 -11   2   24.40    1.19 
  -3 -11  -2   22.80    1.19 
   3 -11  -2   19.60    1.12 
  -3 -11   2   22.09    1.11 
   3 -11   3   35.87    1.66 
  -3 -11  -3   34.50    1.69 
   3  11  -3   36.38    1.65 
   3 -11  -3   35.98    1.71 
  -3 -11   3   36.41    1.61 
  -3 -11  -4   44.26    2.04 
   3  11  -4   45.75    1.92 
   3 -11   4   43.96    1.97 
   3 -11  -4   43.33    1.99 
  -3 -11   4   38.96    1.85 
   4  11   0   18.33    1.04 
   4 -11   0   20.12    1.05 
  -4 -11   0   17.75    0.97 
   4  11  -1    9.59    0.72 
  -4 -11  -1    9.92    0.70 
   4 -11   1    9.94    0.71 
  -4 -11   1    8.51    0.63 
   4  11   1    8.36    0.68 
   4 -11  -1    9.30    0.70 
  -4 -11  -2   14.15    0.92 
   4  11  -2   15.49    0.94 
   4 -11   2   14.99    0.91 
   4  11   2   13.94    0.89 
  -4 -11   2   13.19    0.81 
   4 -11  -2   13.59    0.88 
   4 -11   3    4.81    0.62 
  -4 -11  -3    5.52    0.67 
   4  11  -3    5.52    0.67 
   4 -11  -3    8.24    0.80 
   4 -11  -3    6.91    0.54 
  -4 -11   3    5.85    0.61 
  -4 -11  -4    5.74    0.75 
   4  11  -4    5.90    0.72 
   4 -11   4    5.44    0.68 
   4 -11  -4    6.46    0.76 
   5 -11   0    2.90    0.44 
   5  11   0    2.29    0.42 
  -5 -11   0    2.47    0.38 
   5  11  -1    3.49    0.52 
   5 -11   1    3.38    0.48 
  -5 -11  -1    4.32    0.52 
   5  11   1    3.62    0.51 
   5 -11  -1    4.24    0.53 
  -5 -11   1    3.17    0.43 
  -5 -11  -2   11.71    0.82 
   5  11  -2   11.31    0.83 
   5 -11   2   11.86    0.80 
   5  11   2   11.01    0.79 
   5 -11  -2   12.12    0.83 
  -5 -11  -3   18.36    1.11 
   5  11  -3   17.94    1.11 
   5 -11   3   18.23    1.08 
   5 -11  -3   19.69    1.13 
   5 -11  -3   18.34    0.98 
   5 -11   4   16.61    1.11 
   5  11  -4   17.99    1.13 
  -5 -11  -4   17.34    1.17 
   5 -11  -4   19.63    1.17 
   5 -11  -4   19.37    1.06 
   6  11   0   36.72    1.69 
   6 -11   0   37.12    1.63 
   6 -11   1   52.63    2.15 
   6  11  -1   52.87    2.24 
  -6 -11  -1   54.72    2.12 
   6 -11  -1   54.30    2.17 
   6  11   1   51.42    2.18 
   6 -11   2   22.39    1.18 
   6  11  -2   20.76    1.22 
  -6 -11  -2   20.44    1.14 
   6  11   2   20.23    1.14 
   6 -11  -2   22.34    1.17 
   6  11  -3   33.98    1.67 
  -6 -11  -3   33.57    1.62 
   6 -11   3   36.34    1.65 
   6 -11  -3   30.21    1.47 
   6 -11  -3   34.44    1.60 
   6 -11   4   12.71    0.95 
  -6 -11  -4   11.43    0.94 
   6  11  -4   12.31    0.95 
   6 -11  -4   12.70    0.95 
   6 -11  -4   13.14    0.87 
   7  11   0   18.18    1.11 
   7 -11   0   20.51    1.07 
   7 -11   1    4.34    0.57 
   7  11  -1    4.80    0.64 
   7  11   1    3.61    0.53 
   7 -11  -1    5.24    0.61 
   7  11  -2   18.64    1.15 
   7 -11   2   19.93    1.11 
   7  11   2   18.33    1.08 
   7 -11  -2   18.29    1.06 
   7  11  -3   13.99    1.01 
   7 -11   3   14.56    0.97 
   7 -11  -3   13.35    0.92 
   7 -11  -3   12.66    0.84 
  -7 -11  -4   15.13    1.32 
   7 -11   4   17.46    1.12 
   7  11  -4   16.53    1.13 
   7 -11  -4   15.07    0.98 
   7 -11  -4   15.28    1.05 
   8 -11   0   43.94    1.86 
   8  11   0   42.81    1.95 
   8  11  -1   17.37    1.11 
   8 -11   1   17.00    1.02 
   8 -11  -1   20.12    1.07 
   8  11   1   16.63    1.05 
   8 -11   2   16.67    1.04 
   8  11  -2   18.00    1.17 
   8 -11  -2   19.77    1.09 
   8  11   2   18.66    1.09 
   8 -11   3    4.08    0.59 
   8  11  -3    5.53    0.74 
   8 -11  -3    6.74    0.72 
   8 -11  -3    6.11    0.68 
   9  11   0   14.80    1.00 
   9 -11   0   15.13    0.93 
   9 -11   1    1.55    0.37 
   9  11  -1    1.13    0.38 
   9 -11  -1    1.63    0.37 
   9  11   1    1.76    0.41 
   9  11  -2   17.30    1.17 
   9 -11   2   17.92    1.08 
   9 -11   3    4.11    0.59 
  10  11   0   20.56    1.23 
  10  11  -1   40.26    1.96 
  10  11   1   41.39    1.90 
  10 -11   2   18.56    1.11 
  10  11  -2   17.26    1.20 
  11  11   0    0.41    0.29 
   0 -12   0  111.70    3.97 
   0 -12   1   17.98    1.02 
   0 -12  -1   17.50    1.03 
   0  12  -1   18.65    1.04 
   0 -12  -2  126.08    4.55 
   0 -12   2  125.13    4.51 
   0  12  -2  133.99    4.54 
   0 -12  -3    0.99    0.37 
   0 -12   3    1.07    0.32 
   0  12  -3    1.09    0.31 
   0 -12  -4   27.96    1.52 
   0 -12   4   25.88    1.42 
  -1 -12   0   13.62    0.87 
   1 -12   0   14.48    0.88 
   1  12   0   14.25    0.90 
   1 -12   1   10.54    0.75 
   1  12  -1   10.57    0.77 
  -1 -12  -1    9.87    0.76 
   1 -12  -1   10.16    0.75 
  -1 -12   1    9.78    0.71 
   1 -12   2    4.12    0.53 
  -1 -12  -2    3.35    0.53 
   1  12  -2    4.21    0.56 
   1 -12  -2    3.08    0.50 
  -1  12  -2    4.15    0.55 
  -1 -12   2    3.10    0.47 
   1  12  -3    6.58    0.70 
   1 -12   3    7.71    0.77 
  -1 -12  -3    6.32    0.74 
  -1  12  -3    7.14    0.62 
   1 -12  -3    7.18    0.79 
  -1 -12   3    6.61    0.71 
   1 -12   4    5.11    0.69 
  -1 -12  -4    5.31    0.74 
  -1 -12   4    5.14    0.65 
   1 -12  -4    5.62    0.73 
   2 -12   0  111.39    3.94 
   2  12   0  109.04    3.96 
  -2 -12   0  109.45    3.91 
  -2 -12  -1  145.99    5.07 
   2 -12   1  144.40    5.04 
   2  12  -1  149.75    5.12 
   2 -12  -1  147.45    5.07 
  -2 -12   1  144.43    5.02 
   2 -12   2   59.58    2.43 
   2  12  -2   61.46    2.45 
  -2 -12  -2   61.74    2.48 
   2 -12  -2   63.40    2.48 
  -2 -12   2   58.15    2.39 
   2 -12   3   74.29    2.91 
  -2 -12  -3   70.80    2.93 
   2  12  -3   73.63    2.88 
  -2 -12   3   75.29    2.87 
   2 -12  -3   77.42    2.98 
  -2 -12  -4   23.62    1.44 
   2 -12   4   27.15    1.43 
  -2 -12   4   25.10    1.36 
   2 -12  -4   25.06    1.42 
   3 -12   0    0.25    0.21 
  -3 -12   0    0.59    0.26 
   3  12   0    0.98    0.30 
  -3 -12  -1    0.92    0.31 
   3 -12   1    0.70    0.26 
   3  12  -1    0.66    0.26 
  -3 -12   1    0.39    0.22 
   3  12   1    0.17    0.20 
   3 -12  -1    0.61    0.27 
   3 -12   2    2.04    0.40 
   3  12  -2    1.37    0.35 
  -3 -12  -2    2.12    0.44 
  -3 -12   2    1.62    0.36 
   3 -12  -2    2.50    0.47 
   3 -12   3    2.47    0.46 
   3  12  -3    2.67    0.47 
  -3 -12  -3    2.21    0.47 
  -3 -12   3    2.52    0.44 
   3 -12  -3    2.75    0.52 
   3  12  -4    2.99    0.51 
   3 -12   4    2.28    0.47 
  -3 -12  -4    2.20    0.53 
  -3 -12   4    3.08    0.49 
   3 -12  -4    3.37    0.59 
   4  12   0   31.52    1.52 
  -4 -12   0   30.20    1.41 
   4 -12   0   29.87    1.45 
  -4 -12  -1    6.94    0.69 
   4 -12   1    6.54    0.68 
   4  12  -1    7.42    0.77 
   4 -12  -1    7.58    0.66 
  -4 -12   1    5.81    0.63 
   4  12   1    6.60    0.73 
   4 -12   2   22.30    1.21 
  -4 -12  -2   22.64    1.23 
   4  12  -2   22.90    1.25 
   4 -12  -2   21.16    1.20 
  -4 -12   2   21.80    1.14 
  -4 -12  -3    0.30    0.28 
   4  12  -3    0.61    0.30 
   4 -12   3    0.14    0.23 
  -4 -12   3    0.84    0.29 
   4 -12  -3    0.78    0.34 
   4  12  -4    3.75    0.61 
  -4 -12  -4    4.67    0.71 
   4 -12   4    3.26    0.55 
   4 -12  -4    3.49    0.61 
   5 -12   0    0.17    0.23 
   5  12   0    0.40    0.26 
  -5 -12   0    0.38    0.23 
  -5 -12  -1    5.04    0.59 
   5 -12   1    4.67    0.57 
   5  12  -1    5.13    0.63 
   5  12   1    4.59    0.59 
  -5 -12   1    4.71    0.55 
   5 -12  -1    5.58    0.64 
   5  12  -2    5.32    0.68 
  -5 -12  -2    4.03    0.57 
   5 -12   2    4.96    0.62 
   5 -12  -2    5.63    0.66 
   5  12   2    3.62    0.54 
   5 -12   3   11.35    0.86 
   5  12  -3   10.65    0.86 
  -5 -12  -3   10.58    0.86 
   5 -12  -3    9.19    0.80 
  -5 -12  -4   11.88    1.12 
   5 -12   4   12.14    0.94 
   5 -12  -4   10.70    0.92 
   6 -12   0   36.06    1.63 
   6  12   0   35.10    1.69 
   6 -12   1  111.82    4.04 
   6  12  -1  116.17    4.17 
   6 -12  -1  112.30    4.04 
   6  12   1  108.74    4.10 
  -6 -12  -2   16.78    1.03 
   6  12  -2   16.64    1.10 
   6 -12   2   16.48    1.04 
   6  12   2   17.29    1.05 
   6 -12  -2   17.24    1.04 
   6  12  -3   70.94    2.86 
  -6 -12  -3   65.53    2.74 
   6 -12   3   65.33    2.75 
   6 -12  -3   72.49    2.80 
   7  12   0    9.25    0.79 
   7 -12   0    9.22    0.74 
   7  12  -1    3.15    0.53 
   7 -12   1    5.12    0.61 
   7 -12  -1    3.89    0.55 
   7  12   1    4.56    0.61 
   7 -12   2   12.74    0.89 
   7  12  -2   11.86    0.91 
   7  12   2    9.30    0.80 
   7 -12  -2   10.61    0.83 
   7 -12   3   11.80    0.89 
   7 -12  -3   11.72    0.90 
   8 -12   0    7.97    0.69 
   8  12   0    7.91    0.74 
   8  12  -1   12.33    0.93 
   8 -12   1   11.90    0.85 
   8  12   1    9.15    0.81 
   8 -12  -1   10.85    0.82 
   8  12  -2   13.29    1.02 
   8 -12   2   14.81    0.96 
   8 -12  -2   14.43    0.95 
   8  12   2   11.72    0.91 
   9 -12   0    2.93    0.49 
   9  12   0    3.95    0.62 
   9  12  -1   11.89    0.94 
   9 -12   1   12.61    0.88 
   9 -12  -1   10.69    0.83 
   9  12   1   10.87    0.88 
   9  12  -2    8.40    0.91 
   9 -12   2    9.42    0.90 
  10  12   0   16.44    1.11 
   0 -13   0    2.73    0.45 
   0 -13   1    3.72    0.54 
   0  13  -1    3.88    0.55 
   0 -13  -1    4.28    0.56 
   0 -13   2    2.01    0.40 
   0  13  -2    2.14    0.41 
   0 -13  -2    2.40    0.46 
   0 -13   3    3.44    0.53 
   0  13  -3    2.80    0.48 
   0 -13  -3    3.43    0.57 
   0 -13  -4    1.18    0.44 
   0 -13   4    0.92    0.36 
   1  13   0    6.70    0.72 
  -1 -13   0    5.78    0.65 
   1 -13   0    5.01    0.60 
  -1 -13  -1   16.08    0.98 
   1  13  -1   14.52    0.95 
   1 -13   1   14.07    0.92 
  -1 -13   1   12.66    0.89 
   1 -13  -1   14.35    0.94 
  -1 -13  -2   17.72    1.09 
   1  13  -2   19.16    1.09 
   1 -13   2   17.48    1.06 
   1 -13  -2   16.77    1.09 
  -1 -13   2   15.75    1.02 
   1 -13   3   32.39    1.58 
   1  13  -3   32.72    1.56 
  -1 -13  -3   33.63    1.66 
  -1 -13   3   27.64    1.49 
   1 -13  -3   27.47    1.56 
  -1  13  -3   30.85    1.51 
  -1 -13  -4   22.07    1.37 
   1 -13   4   22.29    1.30 
   1 -13  -4   21.30    1.35 
  -1 -13   4   18.86    1.22 
   2  13   0   12.04    0.87 
  -2 -13   0   14.05    0.90 
   2 -13   0   12.33    0.86 
   2  13  -1   15.96    1.02 
  -2 -13  -1   16.13    1.01 
   2 -13   1   16.69    1.00 
   2 -13  -1   15.76    1.00 
  -2 -13   1   16.48    0.99 
   2 -13   2    6.95    0.73 
  -2 -13  -2    6.12    0.71 
   2  13  -2    8.07    0.71 
  -2 -13   2    6.32    0.68 
   2 -13  -2    7.00    0.75 
   2 -13   3   11.62    0.89 
  -2 -13  -3   11.21    0.92 
   2  13  -3   11.07    0.86 
   2 -13  -3   10.61    0.89 
  -2 -13   3   11.69    0.86 
   3 -13   0    8.25    0.69 
  -3 -13   0    6.67    0.71 
   3  13   0    7.22    0.77 
  -3 -13  -1    2.90    0.48 
   3 -13   1    1.24    0.37 
   3  13  -1    2.54    0.47 
   3  13   1    2.51    0.49 
   3 -13  -1    2.58    0.47 
  -3 -13   1    2.77    0.46 
   3  13  -2   11.22    0.85 
  -3 -13  -2   10.69    0.85 
   3 -13   2   10.22    0.81 
   3 -13  -2    9.87    0.84 
  -3 -13   2   11.78    0.82 
   3  13  -3   15.93    1.05 
  -3 -13  -3   18.45    1.16 
   3 -13   3   17.98    1.11 
  -3 -13   3   15.32    1.01 
   3 -13  -3   16.60    1.10 
   4  13   0   17.83    1.12 
   4 -13   0   20.50    1.14 
  -4 -13   0   19.31    1.09 
   4 -13   1    6.04    0.68 
   4  13  -1    5.47    0.68 
  -4 -13  -1    6.99    0.72 
   4  13   1    7.83    0.70 
  -4 -13   1    6.11    0.65 
   4 -13  -1    7.61    0.76 
   4  13  -2    9.47    0.80 
   4 -13   2    9.19    0.76 
  -4 -13  -2    9.07    0.79 
  -4 -13   2   10.13    0.76 
   4 -13  -2    9.23    0.79 
   4 -13   3    2.16    0.45 
  -4 -13  -3    3.01    0.56 
   4  13  -3    1.97    0.45 
   4 -13  -3    2.61    0.49 
   5 -13   0    0.07    0.23 
  -5 -13   0    0.32    0.26 
   5  13   0    0.96    0.35 
  -5 -13  -1    5.86    0.67 
   5  13  -1    6.22    0.74 
   5 -13   1    5.08    0.61 
   5 -13  -1    4.91    0.62 
   5  13   1    4.58    0.66 
  -5 -13  -2    8.09    0.84 
   5 -13   2    7.57    0.79 
   5  13  -2    8.54    0.78 
   5 -13  -2    7.70    0.81 
   5 -13   3   13.47    0.98 
   5  13  -3   12.80    0.98 
  -5 -13  -3   12.80    0.99 
   5 -13  -3   13.26    1.00 
   6  13   0    6.16    0.73 
   6 -13   0    6.49    0.70 
   6 -13   1   17.25    1.05 
   6  13   1   16.13    1.08 
   6 -13  -1   16.54    1.05 
  -6 -13  -2    4.90    0.83 
   6  13  -2    5.21    0.71 
   6 -13   2    5.82    0.69 
   6 -13  -2    5.27    0.66 
   6  13   2    4.77    0.64 
   6  13  -3    6.92    0.83 
   6 -13   3    8.07    0.84 
   6 -13  -3    7.89    0.85 
   7 -13   0    2.42    0.46 
   7  13  -1    6.00    0.78 
   7 -13   1    6.47    0.72 
   7 -13  -1    8.44    0.83 
   7  13   1    8.09    0.86 
   7 -13   2   10.36    0.84 
   7  13  -2    9.22    0.87 
   7  13   2    9.39    0.82 
   7 -13  -2   11.44    0.89 
   8  13   0   39.67    1.89 
   8 -13   0   35.98    1.75 
   8 -13   1    9.22    0.79 
   8  13  -1    8.34    0.91 
   8 -13  -1   10.01    0.81 
   0 -14   0   58.24    2.42 
   0 -14   1   25.55    1.38 
   0 -14  -1   28.13    1.45 
   0 -14   2   32.78    1.62 
   0  14  -2   32.86    1.64 
   0 -14  -2   33.18    1.68 
   0 -14   3    7.94    0.85 
   0 -14  -3    7.56    0.85 
   0  14  -3    8.33    0.85 
  -1 -14   0    0.96    0.34 
   1 -14   0    0.87    0.32 
   1  14  -1    0.47    0.29 
   1 -14   1    0.34    0.25 
  -1 -14  -1    0.50    0.30 
  -1 -14   1    0.31    0.26 
   1 -14  -1    0.23    0.25 
   1 -14   2    1.17    0.36 
   1  14  -2    1.24    0.37 
   1 -14  -2    1.06    0.37 
  -1 -14   2    1.13    0.34 
   1 -14   3    1.50    0.43 
   1  14  -3    1.06    0.36 
  -1 -14  -3    1.07    0.41 
   1 -14  -3    1.22    0.42 
  -1 -14   3    0.43    0.29 
  -2 -14   0   11.36    0.86 
   2  14   0   12.77    0.93 
   2 -14   0   12.05    0.89 
   2  14  -1   65.29    2.70 
  -2 -14  -1   66.08    2.67 
   2 -14   1   67.50    2.67 
  -2 -14   1   65.34    2.63 
   2 -14  -1   62.44    2.66 
   2 -14   2    5.25    0.66 
   2  14  -2    5.70    0.70 
  -2 -14  -2    5.66    0.73 
   2 -14  -2    6.59    0.78 
  -2 -14   2    6.10    0.70 
   2  14  -3   28.63    1.50 
  -2 -14  -3   26.37    1.51 
   2 -14   3   27.05    1.49 
   2 -14  -3   27.18    1.53 
  -2 -14   3   27.54    1.47 
  -3 -14   0    4.32    0.60 
   3 -14   0    5.13    0.65 
   3  14  -1    6.68    0.77 
  -3 -14  -1    6.25    0.73 
   3 -14   1    5.12    0.64 
   3 -14  -1    6.39    0.73 
  -3 -14   1    5.69    0.68 
  -3 -14  -2    4.30    0.65 
   3  14  -2    6.24    0.77 
   3 -14   2    5.86    0.71 
   3 -14  -2    5.14    0.68 
  -3 -14   2    5.27    0.65 
  -3 -14  -3    6.68    0.80 
   3  14  -3    6.91    0.80 
   3 -14   3    6.52    0.78 
  -3 -14   3    8.46    0.86 
  -4 -14   0   66.23    2.71 
   4 -14   0   69.65    2.77 
   4  14   0   68.79    2.83 
  -4 -14  -1   26.58    1.40 
   4 -14   1   25.52    1.38 
   4  14  -1   24.20    1.42 
   4 -14  -1   26.86    1.44 
  -4 -14   1   27.03    1.36 
  -4 -14  -2   76.33    3.00 
   4 -14   2   75.40    2.98 
   4  14  -2   75.14    3.03 
   4 -14  -2   75.00    3.00 
  -4 -14   2   68.91    2.88 
  -5 -14   0    7.36    0.99 
   5 -14   0    7.89    0.80 
   5  14   0    7.42    0.83 
   5  14  -1    5.90    0.74 
   5 -14   1    4.80    0.65 
  -5 -14  -1    5.36    0.67 
   5  14   1    4.46    0.65 
   5 -14  -1    4.55    0.65 
  -5 -14  -2    9.50    0.85 
   5  14  -2   11.74    0.94 
   5 -14  -2   11.51    0.92 
   6 -14   0   10.57    0.87 
   6  14   0   13.03    0.99 
   6  14  -1   20.46    1.28 
   6 -14   1   21.35    1.24 
   6 -14  -1   20.53    1.24 
   6  14   1   18.41    1.23 
   7 -14   0    0.70    0.32 
   7  14   0    1.58    0.44 
   0 -15   0    4.26    0.61 
   0 -15   1    2.76    0.51 
   0 -15  -1    4.78    0.64 
   0 -15   2    3.47    0.55 
   0 -15  -2    1.81    0.48 
  -1 -15   0   11.47    0.91 
   1 -15   0   12.15    0.93 
  -1 -15  -1    3.58    0.60 
   1 -15   1    3.11    0.53 
  -1 -15   1    2.79    0.51 
   1 -15  -1    2.36    0.52 
  -1 -15  -2   10.26    1.03 
   1  15  -2   11.10    0.90 
   1 -15   2   10.59    0.88 
   1 -15  -2   10.75    0.93 
  -1 -15   2    9.06    0.82 
   2 -15   0    3.40    0.55 
  -2 -15   0    4.19    0.59 
   2  15  -1    4.62    0.66 
  -2 -15  -1    3.81    0.60 
   2 -15   1    4.74    0.64 
   2 -15  -1    4.16    0.62 
   2 -15   2    3.67    0.58 
  -2 -15  -2    5.60    0.72 
   2  15  -2    5.37    0.73 
  -2 -15   2    4.49    0.63 
   2 -15  -2    4.17    0.64 
   3  15   0    3.63    0.60 
   3 -15   0    4.47    0.64 
  -3 -15   0    3.01    0.55 
   3 -15   1    2.78    0.52 
  -3 -15   1    2.98    0.53 
   3 -15  -1    2.10    0.47 
   4 -15   0   16.11    1.08 
   4  15   0   14.97    1.09 
  -4 -15   0   16.29    1.06 
   4  15  -1    9.99    0.90 
   4 -15   1   10.24    0.86 
  -4 -15  -1    9.43    0.84 
  -4 -15   1   10.23    0.83 
   0   0   0    0.00    0.00 
;
_shelx_hkl_checksum              62883
loop_
_space_group_symop_operation_xyz
'x, y, z'
'-x, -y, z'
'x+1/2, -y+1/2, -z'
'-x+1/2, y+1/2, -z'
loop_
_atom_site_label
_atom_site_type_symbol
_atom_site_fract_x
_atom_site_fract_y
_atom_site_fract_z
_atom_site_U_iso_or_equiv
_atom_site_adp_type
_atom_site_occupancy
_atom_site_site_symmetry_order
_atom_site_calc_flag
_atom_site_refinement_flags_posn
_atom_site_refinement_flags_adp
_atom_site_refinement_flags_occupancy
K1 K 0.98495(16) 0.82622(15) -0.0072(4) 0.0239(4) Uani 1 1 d . . .
K2 K 0.82271(16) 0.50056(19) -0.0010(4) 0.0316(5) Uani 1 1 d . . .
Te1 Te 0.73418(4) 0.75205(5) 0.46302(8) 0.01833(17) Uani 1 1 d . . .
P1 P 0.99389(16) 0.62094(15) 0.4894(4) 0.0145(4) Uani 1 1 d . . .
P2 P 0.6238(2) 0.51117(18) 0.4926(4) 0.0247(5) Uani 1 1 d . . .
O1 O 0.7875(6) 0.7782(6) 0.1681(11) 0.0287(16) Uani 1 1 d . . .
O2 O 1.0150(6) 0.6267(5) 0.2272(12) 0.0237(14) Uani 1 1 d . . .
O3 O 0.6656(7) 0.6078(6) 0.3365(14) 0.0373(19) Uani 1 1 d . . .
O4 O 0.6256(6) 0.5342(6) 0.7553(12) 0.0276(15) Uani 1 1 d . . .
O5 O 0.8819(8) 0.6577(9) 0.5823(19) 0.063(3) Uani 1 1 d . U .
O6 O 0.8178(12) 0.9121(7) 0.6032(16) 0.077(4) Uani 1 1 d . . .
O7 O 0.5809(8) 0.8240(10) 0.3537(17) 0.068(3) Uani 1 1 d . . .
O8 O 0.500000 0.500000 0.392(2) 0.081(6) Uani 1 2 d S T P
O9 O 1.0341(9) 0.5023(10) 0.586(2) 0.016(3) Uani 0.5 1 d . U P
loop_
_atom_site_aniso_label
_atom_site_aniso_U_11
_atom_site_aniso_U_22
_atom_site_aniso_U_33
_atom_site_aniso_U_23
_atom_site_aniso_U_13
_atom_site_aniso_U_12
K1 0.0298(9) 0.0234(8) 0.0186(9) 0.0035(8) 0.0042(8) -0.0045(7)
K2 0.0215(9) 0.0533(13) 0.0202(10) 0.0045(10) 0.0001(8) 0.0054(8)
Te1 0.0156(2) 0.0235(3) 0.0159(3) 0.0004(3) 0.00118(16) 0.0051(2)
P1 0.0122(8) 0.0123(9) 0.0191(10) 0.0013(8) 0.0017(9) -0.0005(6)
P2 0.0407(13) 0.0174(10) 0.0159(11) 0.0008(9) 0.0011(10) -0.0035(9)
O1 0.030(4) 0.039(4) 0.017(3) 0.003(3) 0.007(3) -0.003(3)
O2 0.027(4) 0.021(3) 0.023(3) 0.002(3) 0.004(3) 0.005(3)
O3 0.062(5) 0.023(4) 0.027(4) 0.001(3) -0.001(4) -0.021(4)
O4 0.032(4) 0.032(4) 0.019(3) -0.005(3) -0.001(3) 0.004(3)
O5 0.050(4) 0.090(5) 0.048(4) 0.016(4) 0.008(3) 0.029(4)
O6 0.168(12) 0.032(4) 0.031(5) -0.009(4) 0.012(6) -0.044(6)
O7 0.053(6) 0.119(9) 0.032(5) -0.017(5) -0.015(4) 0.064(6)
O8 0.045(8) 0.174(18) 0.024(6) 0.000 0.000 -0.062(10)
O9 0.017(3) 0.016(3) 0.017(3) 0.0001(13) -0.0016(13) 0.0004(13)
loop_
_atom_type_symbol
_atom_type_description
_atom_type_scat_dispersion_real
_atom_type_scat_dispersion_imag
_atom_type_scat_source
K K 0.2009 0.2494 'International Tables Vol C Tables 4.2.6.8 and 6.1.1.4'
O O 0.0106 0.0060 'International Tables Vol C Tables 4.2.6.8 and 6.1.1.4'
P P 0.1023 0.0942 'International Tables Vol C Tables 4.2.6.8 and 6.1.1.4'
Te Te -0.5308 1.6751 'International Tables Vol C Tables 4.2.6.8 and 6.1.1.4'
H H 0.0000 0.0000 'International Tables Vol C Tables 4.2.6.8 and 6.1.1.4'
loop_
_geom_angle_atom_site_label_1
_geom_angle_atom_site_label_2
_geom_angle_atom_site_label_3
_geom_angle
_geom_angle_site_symmetry_1
_geom_angle_site_symmetry_3
O1 K1 O4 119.9(2) . 3_566
O1 K1 O2 75.5(2) . .
O4 K1 O2 103.0(2) 3_566 .
O1 K1 O7 117.6(2) . 3_565
O4 K1 O7 118.8(2) 3_566 3_565
O2 K1 O7 72.7(3) . 3_565
O1 K1 O3 162.5(2) . 3_565
O4 K1 O3 72.3(2) 3_566 3_565
O2 K1 O3 115.7(2) . 3_565
O7 K1 O3 58.0(2) 3_565 3_565
O1 K1 O8 118.22(16) . 3_565
O4 K1 O8 83.5(2) 3_566 3_565
O2 K1 O8 159.8(2) . 3_565
O7 K1 O8 87.3(3) 3_565 3_565
O3 K1 O8 47.54(15) 3_565 3_565
O1 K1 O6 75.6(3) . 1_554
O4 K1 O6 122.1(2) 3_566 1_554
O2 K1 O6 134.3(2) . 1_554
O7 K1 O6 90.6(3) 3_565 1_554
O3 K1 O6 87.3(3) 3_565 1_554
O8 K1 O6 46.7(2) 3_565 1_554
O1 K1 O4 68.9(2) . 4_656
O4 K1 O4 62.8(3) 3_566 4_656
O2 K1 O4 123.16(19) . 4_656
O7 K1 O4 164.0(3) 3_565 4_656
O3 K1 O4 111.05(19) 3_565 4_656
O8 K1 O4 76.9(2) 3_565 4_656
O6 K1 O4 76.6(2) 1_554 4_656
O1 K1 O5 77.2(2) . 1_554
O4 K1 O5 162.8(2) 3_566 1_554
O2 K1 O5 79.9(2) . 1_554
O7 K1 O5 45.4(2) 3_565 1_554
O3 K1 O5 91.1(2) 3_565 1_554
O8 K1 O5 88.5(2) 3_565 1_554
O6 K1 O5 59.6(2) 1_554 1_554
O4 K1 O5 129.9(2) 4_656 1_554
O1 K1 P2 141.92(16) . 3_565
O4 K1 P2 76.37(15) 3_566 3_565
O2 K1 P2 138.02(15) . 3_565
O7 K1 P2 71.5(2) 3_565 3_565
O3 K1 P2 23.13(14) 3_565 3_565
O8 K1 P2 24.41(6) 3_565 3_565
O6 K1 P2 67.1(2) 1_554 3_565
O4 K1 P2 94.42(13) 4_656 3_565
O5 K1 P2 90.14(19) 1_554 3_565
O1 K1 P2 94.94(16) . 4_655
O4 K1 P2 101.66(16) 3_566 4_655
O2 K1 P2 155.16(16) . 4_655
O7 K1 P2 92.6(3) 3_565 4_655
O3 K1 P2 69.30(15) 3_565 4_655
O8 K1 P2 24.28(6) 3_565 4_655
O6 K1 P2 22.95(18) 1_554 4_655
O4 K1 P2 71.88(13) 4_656 4_655
O5 K1 P2 75.61(18) 1_554 4_655
P2 K1 P2 46.99(8) 3_565 4_655
O1 K1 P1 98.72(16) . 1_554
O4 K1 P1 140.10(16) 3_566 1_554
O2 K1 P1 76.01(14) . 1_554
O7 K1 P1 21.86(18) 3_565 1_554
O3 K1 P1 72.63(15) 3_565 1_554
O8 K1 P1 86.71(19) 3_565 1_554
O6 K1 P1 74.30(18) 1_554 1_554
O4 K1 P1 150.46(14) 4_656 1_554
O5 K1 P1 23.58(16) 1_554 1_554
P2 K1 P1 78.90(6) 3_565 1_554
P2 K1 P1 83.07(6) 4_655 1_554
O4 K2 O2 154.6(2) 1_554 2_765
O4 K2 O9 97.2(3) 1_554 2_764
O2 K2 O9 86.4(3) 2_765 2_764
O4 K2 O3 72.4(2) 1_554 .
O2 K2 O3 113.8(2) 2_765 .
O9 K2 O3 153.2(3) 2_764 .
O4 K2 O6 86.1(3) 1_554 4_646
O2 K2 O6 81.8(3) 2_765 4_646
O9 K2 O6 158.0(3) 2_764 4_646
O3 K2 O6 48.1(2) . 4_646
O4 K2 O2 141.1(2) 1_554 .
O2 K2 O2 64.3(2) 2_765 .
O9 K2 O2 83.3(3) 2_764 .
O3 K2 O2 89.8(2) . .
O6 K2 O2 107.7(3) 4_646 .
O4 K2 O5 74.8(2) 1_554 1_554
O2 K2 O5 121.6(2) 2_765 1_554
O9 K2 O5 43.2(3) 2_764 1_554
O3 K2 O5 110.1(2) . 1_554
O6 K2 O5 155.5(3) 4_646 1_554
O2 K2 O5 79.7(2) . 1_554
O4 K2 O7 96.5(2) 1_554 4_645
O2 K2 O7 69.0(2) 2_765 4_645
O9 K2 O7 43.2(3) 2_764 4_645
O3 K2 O7 159.1(2) . 4_645
O6 K2 O7 114.9(2) 4_646 4_645
O2 K2 O7 109.1(2) . 4_645
O5 K2 O7 82.9(3) 1_554 4_645
O4 K2 O1 67.98(19) 1_554 4_645
O2 K2 O1 86.90(19) 2_765 4_645
O9 K2 O1 90.4(3) 2_764 4_645
O3 K2 O1 107.41(19) . 4_645
O6 K2 O1 70.6(2) 4_646 4_645
O2 K2 O1 150.77(19) . 4_645
O5 K2 O1 114.3(3) 1_554 4_645
O7 K2 O1 51.65(19) 4_645 4_645
O4 K2 O9 108.0(2) 1_554 1_554
O2 K2 O9 77.8(2) 2_765 1_554
O9 K2 O9 11.1(3) 2_764 1_554
O3 K2 O9 153.2(3) . 1_554
O6 K2 O9 156.7(3) 4_646 1_554
O2 K2 O9 73.3(2) . 1_554
O5 K2 O9 47.5(3) 1_554 1_554
O7 K2 O9 46.6(3) 4_645 1_554
O1 K2 O9 96.9(2) 4_645 1_554
O4 K2 P2 20.86(15) 1_554 1_554
O2 K2 P2 144.62(15) 2_765 1_554
O9 K2 P2 77.3(2) 2_764 1_554
O3 K2 P2 93.06(17) . 1_554
O6 K2 P2 102.1(3) 4_646 1_554
O2 K2 P2 141.99(14) . 1_554
O5 K2 P2 63.7(2) 1_554 1_554
O7 K2 P2 77.77(18) 4_645 1_554
O1 K2 P2 62.37(13) 4_645 1_554
O9 K2 P2 88.3(2) 1_554 1_554
O4 K2 P1 92.41(16) 1_554 1_554
O2 K2 P1 100.12(15) 2_765 1_554
O9 K2 P1 23.6(2) 2_764 1_554
O3 K2 P1 130.10(15) . 1_554
O6 K2 P1 178.0(2) 4_646 1_554
O2 K2 P1 72.71(13) . 1_554
O5 K2 P1 22.48(17) 1_554 1_554
O7 K2 P1 66.55(17) 4_645 1_554
O1 K2 P1 110.00(13) 4_645 1_554
O9 K2 P1 25.3(2) 1_554 1_554
P2 K2 P1 76.69(6) 1_554 1_554
O1 Te1 O3 89.1(3) . .
O1 Te1 O7 88.6(4) . .
O3 Te1 O7 84.9(4) . .
O1 Te1 O5 94.6(3) . .
O3 Te1 O5 88.6(4) . .
O7 Te1 O5 172.8(5) . .
O1 Te1 O6 90.0(3) . .
O3 Te1 O6 178.0(4) . .
O7 Te1 O6 96.9(5) . .
O5 Te1 O6 89.6(5) . .
O1 Te1 K1 74.6(2) . 3_465
O3 Te1 K1 44.8(2) . 3_465
O7 Te1 K1 43.8(3) . 3_465
O5 Te1 K1 131.1(3) . 3_465
O6 Te1 K1 136.7(3) . 3_465
O1 Te1 K2 49.0(2) . 4_655
O3 Te1 K2 111.1(2) . 4_655
O7 Te1 K2 50.3(4) . 4_655
O5 Te1 K2 135.8(3) . 4_655
O6 Te1 K2 69.7(3) . 4_655
K1 Te1 K2 69.81(4) 3_465 4_655
O2 P1 O5 118.4(5) . .
O2 P1 O7 115.1(4) . 3_566
O5 P1 O7 106.6(6) . 3_566
O2 P1 O9 108.5(5) . .
O5 P1 O9 114.8(6) . .
O7 P1 O9 90.1(6) 3_566 .
O2 P1 O9 113.8(5) . 2_765
O5 P1 O9 88.8(6) . 2_765
O7 P1 O9 111.2(6) 3_566 2_765
O9 P1 O9 29.2(7) . 2_765
O2 P1 K1 134.8(3) . 1_556
O5 P1 K1 61.4(5) . 1_556
O7 P1 K1 45.3(4) 3_566 1_556
O9 P1 K1 111.1(4) . 1_556
O9 P1 K1 111.5(4) 2_765 1_556
O2 P1 K2 147.7(3) . 1_556
O5 P1 K2 51.5(4) . 1_556
O7 P1 K2 96.8(3) 3_566 1_556
O9 P1 K2 64.3(4) . 1_556
O9 P1 K2 44.4(4) 2_765 1_556
K1 P1 K2 71.93(6) 1_556 1_556
O2 P1 K2 38.3(3) . 2_765
O5 P1 K2 151.3(4) . 2_765
O7 P1 K2 100.7(4) 3_566 2_765
O9 P1 K2 73.4(4) . 2_765
O9 P1 K2 89.7(4) 2_765 2_765
K1 P1 K2 144.05(7) 1_556 2_765
K2 P1 K2 134.07(5) 1_556 2_765
O2 P1 K2 129.6(3) . 2_766
O5 P1 K2 111.8(4) . 2_766
O7 P1 K2 50.3(5) 3_566 2_766
O9 P1 K2 41.1(4) . 2_766
O9 P1 K2 61.6(4) 2_765 2_766
K1 P1 K2 74.36(6) 1_556 2_766
K2 P1 K2 67.42(7) 1_556 2_766
K2 P1 K2 92.45(6) 2_765 2_766
O4 P2 O6 119.7(5) . 4_646
O4 P2 O3 113.6(4) . .
O6 P2 O3 105.5(5) 4_646 .
O4 P2 O8 111.9(5) . .
O6 P2 O8 104.1(6) 4_646 .
O3 P2 O8 100.0(5) . .
O4 P2 K2 41.4(3) . 1_556
O6 P2 K2 86.5(5) 4_646 1_556
O3 P2 K2 104.0(3) . 1_556
O8 P2 K2 150.1(5) . 1_556
O4 P2 K1 127.8(3) . 3_465
O6 P2 K1 112.6(4) 4_646 3_465
O3 P2 K1 48.4(3) . 3_465
O8 P2 K1 51.5(3) . 3_465
K2 P2 K1 148.82(8) 1_556 3_465
O4 P2 K1 145.5(3) . 4_645
O6 P2 K1 54.6(5) 4_646 4_645
O3 P2 K1 99.9(3) . 4_645
O8 P2 K1 51.2(3) . 4_645
K2 P2 K1 138.65(8) 1_556 4_645
K1 P2 K1 69.43(7) 3_465 4_645
O4 P2 K1 35.1(3) . 3_466
O6 P2 K1 151.9(4) 4_646 3_466
O3 P2 K1 99.2(3) . 3_466
O8 P2 K1 84.2(4) . 3_466
K2 P2 K1 74.61(6) 1_556 3_466
K1 P2 K1 93.78(7) 3_465 3_466
K1 P2 K1 133.74(7) 4_645 3_466
O4 P2 K1 52.5(3) . 4_646
O6 P2 K1 87.0(4) 4_646 4_646
O3 P2 K1 165.5(3) . 4_646
O8 P2 K1 83.8(4) . 4_646
K2 P2 K1 68.67(6) 1_556 4_646
K1 P2 K1 133.75(7) 3_465 4_646
K1 P2 K1 93.42(7) 4_645 4_646
K1 P2 K1 67.01(7) 3_466 4_646
Te1 O1 K1 134.6(3) . .
Te1 O1 K2 105.8(3) . 4_655
K1 O1 K2 94.4(2) . 4_655
P1 O2 K1 118.6(3) . .
P1 O2 K2 122.6(4) . 2_765
K1 O2 K2 111.5(2) . 2_765
P1 O2 K2 104.7(3) . .
K1 O2 K2 98.7(2) . .
K2 O2 K2 93.3(2) 2_765 .
P2 O3 Te1 126.1(5) . .
P2 O3 K1 108.5(4) . 3_465
Te1 O3 K1 105.6(3) . 3_465
P2 O3 K2 102.8(4) . .
Te1 O3 K2 109.8(3) . .
K1 O3 K2 101.4(2) 3_465 .
P2 O4 K2 117.7(4) . 1_556
P2 O4 K1 127.0(4) . 3_466
K2 O4 K1 111.5(2) 1_556 3_466
P2 O4 K1 105.8(3) . 4_646
K2 O4 K1 91.4(2) 1_556 4_646
K1 O4 K1 90.9(2) 3_466 4_646
P1 O5 Te1 140.0(6) . .
P1 O5 K2 106.0(5) . 1_556
Te1 O5 K2 111.3(4) . 1_556
P1 O5 K1 95.0(5) . 1_556
Te1 O5 K1 100.4(4) . 1_556
K2 O5 K1 87.6(3) 1_556 1_556
P2 O6 Te1 139.6(5) 4_656 .
P2 O6 K2 103.5(5) 4_656 4_656
Te1 O6 K2 107.9(4) . 4_656
P2 O6 K1 102.5(6) 4_656 1_556
Te1 O6 K1 103.0(4) . 1_556
K2 O6 K1 88.5(2) 4_656 1_556
P1 O7 Te1 128.0(5) 3_466 .
P1 O7 K1 112.8(5) 3_466 3_465
Te1 O7 K1 105.7(4) . 3_465
P1 O7 K2 107.8(6) 3_466 4_655
Te1 O7 K2 98.2(4) . 4_655
K1 O7 K2 99.8(3) 3_465 4_655
P2 O8 P2 139.1(9) . 2_665
P2 O8 K1 104.6(3) . 4_645
P2 O8 K1 104.0(3) 2_665 4_645
P2 O8 K1 104.0(3) . 3_465
P2 O8 K1 104.6(3) 2_665 3_465
K1 O8 K1 89.9(4) 4_645 3_465
O9 O9 P1 76.4(16) 2_765 .
O9 O9 P1 74.4(16) 2_765 2_765
P1 O9 P1 130.9(7) . 2_765
O9 O9 K2 126.7(3) 2_765 2_766
P1 O9 K2 117.1(6) . 2_766
P1 O9 K2 112.0(6) 2_765 2_766
O9 O9 K2 42.2(2) 2_765 1_556
P1 O9 K2 90.4(4) . 1_556
P1 O9 K2 93.5(5) 2_765 1_556
K2 O9 K2 84.9(3) 2_766 1_556
loop_
_geom_bond_atom_site_label_1
_geom_bond_atom_site_label_2
_geom_bond_distance
_geom_bond_site_symmetry_2
K1 O1 2.621(7) .
K1 O4 2.769(7) 3_566
K1 O2 2.779(6) .
K1 O7 2.888(11) 3_565
K1 O3 2.939(9) 3_565
K1 O8 3.008(9) 3_565
K1 O6 3.120(13) 1_554
K1 O4 3.180(7) 4_656
K1 O5 3.299(12) 1_554
K1 P2 3.727(3) 3_565
K1 P2 3.738(3) 4_655
K1 P1 3.744(3) 1_554
K2 O4 2.748(7) 1_554
K2 O2 2.787(7) 2_765
K2 O9 2.854(12) 2_764
K2 O3 2.954(9) .
K2 O6 2.971(12) 4_646
K2 O2 3.042(7) .
K2 O5 3.078(10) 1_554
K2 O7 3.125(13) 4_645
K2 O1 3.152(7) 4_645
K2 O9 3.407(11) 1_554
K2 P2 3.677(3) 1_554
K2 P1 3.780(3) 1_554
Te1 O1 1.779(6) .
Te1 O3 2.062(7) .
Te1 O7 2.121(8) .
Te1 O5 2.210(9) .
Te1 O6 2.325(8) .
P1 O2 1.473(7) .
P1 O5 1.504(9) .
P1 O7 1.512(9) 3_566
P1 O9 1.615(12) .
P1 O9 1.630(12) 2_765
P2 O4 1.479(7) .
P2 O6 1.493(9) 4_646
P2 O3 1.543(7) .
P2 O8 1.588(5) .
O9 O9 0.82(2) 2_765
loop_
_geom_torsion_atom_site_label_1
_geom_torsion_atom_site_label_2
_geom_torsion_atom_site_label_3
_geom_torsion_atom_site_label_4
_geom_torsion
_geom_torsion_site_symmetry_1
_geom_torsion_site_symmetry_4
O3 Te1 O1 K1 -127.6(5) . .
O7 Te1 O1 K1 147.5(5) . .
O5 Te1 O1 K1 -39.0(5) . .
O6 Te1 O1 K1 50.5(6) . .
K1 Te1 O1 K1 -170.5(5) 3_465 .
K2 Te1 O1 K1 113.1(5) 4_655 .
O3 Te1 O1 K2 119.3(3) . 4_655
O7 Te1 O1 K2 34.4(4) . 4_655
O5 Te1 O1 K2 -152.1(4) . 4_655
O6 Te1 O1 K2 -62.5(4) . 4_655
K1 Te1 O1 K2 76.4(2) 3_465 4_655
O5 P1 O2 K1 54.9(7) . .
O7 P1 O2 K1 -72.8(7) 3_566 .
O9 P1 O2 K1 -172.0(5) . .
O9 P1 O2 K1 157.1(5) 2_765 .
K1 P1 O2 K1 -21.8(6) 1_556 .
K2 P1 O2 K1 116.9(4) 1_556 .
K2 P1 O2 K1 -147.4(6) 2_765 .
K2 P1 O2 K1 -131.0(2) 2_766 .
O5 P1 O2 K2 -157.7(6) . 2_765
O7 P1 O2 K2 74.6(7) 3_566 2_765
O9 P1 O2 K2 -24.5(6) . 2_765
O9 P1 O2 K2 -55.4(6) 2_765 2_765
K1 P1 O2 K2 125.7(3) 1_556 2_765
K2 P1 O2 K2 -95.6(5) 1_556 2_765
K2 P1 O2 K2 16.5(6) 2_766 2_765
O5 P1 O2 K2 -53.8(6) . .
O7 P1 O2 K2 178.5(6) 3_566 .
O9 P1 O2 K2 79.3(5) . .
O9 P1 O2 K2 48.4(5) 2_765 .
K1 P1 O2 K2 -130.5(2) 1_556 .
K2 P1 O2 K2 8.2(6) 1_556 .
K2 P1 O2 K2 103.8(4) 2_765 .
K2 P1 O2 K2 120.3(2) 2_766 .
O4 P2 O3 Te1 6.1(8) . .
O6 P2 O3 Te1 -126.8(7) 4_646 .
O8 P2 O3 Te1 125.4(6) . .
K2 P2 O3 Te1 -36.6(6) 1_556 .
K1 P2 O3 Te1 126.6(8) 3_465 .
K1 P2 O3 Te1 177.4(5) 4_645 .
K1 P2 O3 Te1 39.7(6) 3_466 .
K1 P2 O3 Te1 21.4(19) 4_646 .
O4 P2 O3 K1 -120.4(4) . 3_465
O6 P2 O3 K1 106.7(6) 4_646 3_465
O8 P2 O3 K1 -1.2(5) . 3_465
K2 P2 O3 K1 -163.2(2) 1_556 3_465
K1 P2 O3 K1 50.8(3) 4_645 3_465
K1 P2 O3 K1 -86.8(3) 3_466 3_465
K1 P2 O3 K1 -105.2(13) 4_646 3_465
O4 P2 O3 K2 132.7(4) . .
O6 P2 O3 K2 -0.2(6) 4_646 .
O8 P2 O3 K2 -108.0(4) . .
K2 P2 O3 K2 90.0(2) 1_556 .
K1 P2 O3 K2 -106.9(4) 3_465 .
K1 P2 O3 K2 -56.0(3) 4_645 .
K1 P2 O3 K2 166.29(19) 3_466 .
K1 P2 O3 K2 148.0(12) 4_646 .
O6 P2 O4 K2 41.1(8) 4_646 1_556
O3 P2 O4 K2 -84.6(5) . 1_556
O8 P2 O4 K2 163.2(2) . 1_556
K1 P2 O4 K2 -139.3(2) 3_465 1_556
K1 P2 O4 K2 110.7(5) 4_645 1_556
K1 P2 O4 K2 -156.2(7) 3_466 1_556
K1 P2 O4 K2 100.2(4) 4_646 1_556
O6 P2 O4 K1 -162.7(7) 4_646 3_466
O3 P2 O4 K1 71.6(6) . 3_466
O8 P2 O4 K1 -40.6(5) . 3_466
K2 P2 O4 K1 156.2(7) 1_556 3_466
K1 P2 O4 K1 16.9(6) 3_465 3_466
K1 P2 O4 K1 -93.1(6) 4_645 3_466
K1 P2 O4 K1 -103.6(5) 4_646 3_466
O6 P2 O4 K1 -59.1(7) 4_646 4_646
O3 P2 O4 K1 175.2(4) . 4_646
O8 P2 O4 K1 63.0(3) . 4_646
K2 P2 O4 K1 -100.2(4) 1_556 4_646
K1 P2 O4 K1 120.5(2) 3_465 4_646
K1 P2 O4 K1 10.5(7) 4_645 4_646
K1 P2 O4 K1 103.6(5) 3_466 4_646
O2 P1 O5 Te1 -15.4(14) . .
O7 P1 O5 Te1 116.3(11) 3_566 .
O9 P1 O5 Te1 -145.7(10) . .
O9 P1 O5 Te1 -131.9(11) 2_765 .
K1 P1 O5 Te1 112.8(12) 1_556 .
K2 P1 O5 Te1 -158.3(14) 1_556 .
K2 P1 O5 Te1 -44.8(18) 2_765 .
K2 P1 O5 Te1 169.5(9) 2_766 .
O2 P1 O5 K2 142.9(4) . 1_556
O7 P1 O5 K2 -85.5(6) 3_566 1_556
O9 P1 O5 K2 12.6(7) . 1_556
O9 P1 O5 K2 26.4(6) 2_765 1_556
K1 P1 O5 K2 -89.0(4) 1_556 1_556
K2 P1 O5 K2 113.5(7) 2_765 1_556
K2 P1 O5 K2 -32.2(5) 2_766 1_556
O2 P1 O5 K1 -128.1(4) . 1_556
O7 P1 O5 K1 3.5(6) 3_566 1_556
O9 P1 O5 K1 101.5(6) . 1_556
O9 P1 O5 K1 115.3(5) 2_765 1_556
K2 P1 O5 K1 89.0(4) 1_556 1_556
K2 P1 O5 K1 -157.5(6) 2_765 1_556
K2 P1 O5 K1 56.7(4) 2_766 1_556
O4 P2 O8 P2 -11.6(3) . 2_665
O6 P2 O8 P2 119.0(4) 4_646 2_665
O3 P2 O8 P2 -132.2(3) . 2_665
K2 P2 O8 P2 10.9(2) 1_556 2_665
K1 P2 O8 P2 -133.3(3) 3_465 2_665
K1 P2 O8 P2 133.1(3) 4_645 2_665
K1 P2 O8 P2 -33.75(4) 3_466 2_665
K1 P2 O8 P2 33.67(4) 4_646 2_665
O4 P2 O8 K1 -144.8(4) . 4_645
O6 P2 O8 K1 -14.1(5) 4_646 4_645
O3 P2 O8 K1 94.7(4) . 4_645
K2 P2 O8 K1 -122.2(5) 1_556 4_645
K1 P2 O8 K1 93.6(5) 3_465 4_645
K1 P2 O8 K1 -166.9(3) 3_466 4_645
K1 P2 O8 K1 -99.4(2) 4_646 4_645
O4 P2 O8 K1 121.6(4) . 3_465
O6 P2 O8 K1 -107.8(4) 4_646 3_465
O3 P2 O8 K1 1.1(5) . 3_465
K2 P2 O8 K1 144.2(2) 1_556 3_465
K1 P2 O8 K1 -93.6(5) 4_645 3_465
K1 P2 O8 K1 99.5(2) 3_466 3_465
K1 P2 O8 K1 166.9(3) 4_646 3_465
O2 P1 O9 O9 -105.7(6) . 2_765
O5 P1 O9 O9 29.3(8) . 2_765
O7 P1 O9 O9 137.6(7) 3_566 2_765
K1 P1 O9 O9 96.5(6) 1_556 2_765
K2 P1 O9 O9 40.2(5) 1_556 2_765
K2 P1 O9 O9 -121.3(6) 2_765 2_765
K2 P1 O9 O9 124.6(7) 2_766 2_765
O2 P1 O9 P1 -50.9(10) . 2_765
O5 P1 O9 P1 84.1(11) . 2_765
O7 P1 O9 P1 -167.5(9) 3_566 2_765
O9 P1 O9 P1 54.8(11) 2_765 2_765
K1 P1 O9 P1 151.3(8) 1_556 2_765
K2 P1 O9 P1 95.0(9) 1_556 2_765
K2 P1 O9 P1 -66.4(8) 2_765 2_765
K2 P1 O9 P1 179.4(13) 2_766 2_765
O2 P1 O9 K2 129.7(5) . 2_766
O5 P1 O9 K2 -95.3(7) . 2_766
O7 P1 O9 K2 13.1(6) 3_566 2_766
O9 P1 O9 K2 -124.6(7) 2_765 2_766
K1 P1 O9 K2 -28.1(6) 1_556 2_766
K2 P1 O9 K2 -84.4(5) 1_556 2_766
K2 P1 O9 K2 114.1(5) 2_765 2_766
O2 P1 O9 K2 -145.9(3) . 1_556
O5 P1 O9 K2 -10.9(6) . 1_556
O7 P1 O9 K2 97.5(4) 3_566 1_556
O9 P1 O9 K2 -40.2(5) 2_765 1_556
K1 P1 O9 K2 56.3(3) 1_556 1_556
K2 P1 O9 K2 -161.4(3) 2_765 1_556
K2 P1 O9 K2 84.4(5) 2_766 1_556
