#------------------------------------------------------------------------------
#$Date: 2019-11-17 12:47:25 +0200 (Sun, 17 Nov 2019) $
#$Revision: 229957 $
#$URL: file:///home/coder/svn-repositories/cod/cif/7/04/79/7047909.cif $
#------------------------------------------------------------------------------
#
# This file is available in the Crystallography Open Database (COD),
# http://www.crystallography.net/
#
# All data on this site have been placed in the public domain by the
# contributors.
#
data_7047909
loop_
_publ_author_name
'Selivanov, N. I.'
'Murashkina, A. A.'
'Kevorkyants, R.'
'Emeline, A. V.'
'Bahnemann, D. W.'
_publ_section_title
;
 Pyridinium lead tribromide and pyridinium lead triiodide:
 quasi-one-dimensional perovskites with an optically active aromatic
 \p-system.
;
_journal_issue                   45
_journal_name_full
'Dalton transactions (Cambridge, England : 2003)'
_journal_page_first              16313
_journal_page_last               16319
_journal_paper_doi               10.1039/c8dt03041c
_journal_volume                  47
_journal_year                    2018
_chemical_formula_moiety         '0.5(Br6 Pb2), C5 H6 N'
_chemical_formula_sum            'C5 H6 Br3 N Pb'
_chemical_formula_weight         527.03
_space_group_crystal_system      orthorhombic
_space_group_IT_number           62
_space_group_name_Hall           '-P 2ac 2n'
_space_group_name_H-M_alt        'P n m a'
_symmetry_space_group_name_Hall  '-P 2ac 2n'
_symmetry_space_group_name_H-M   'P n m a'
_atom_sites_solution_hydrogens   geom
_atom_sites_solution_primary     iterative
_audit_creation_date             2018-09-19
_audit_creation_method
;
Olex2 1.2
(compiled 2018.05.29 svn.r3508 for OlexSys, GUI svn.r5506)
;
_cell_angle_alpha                90
_cell_angle_beta                 90
_cell_angle_gamma                90
_cell_formula_units_Z            4
_cell_length_a                   14.0045(6)
_cell_length_b                   7.7690(4)
_cell_length_c                   9.1780(5)
_cell_measurement_reflns_used    4429
_cell_measurement_temperature    100(2)
_cell_measurement_theta_max      30.5740
_cell_measurement_theta_min      3.4360
_cell_volume                     998.58(9)
_computing_cell_refinement
;
CrysAlisPro, Agilent Technologies,
Version 1.171.36.32 (release 02-08-2013 CrysAlis171 .NET)
(compiled Aug  2 2013,16:46:58)
;
_computing_data_collection
;
CrysAlisPro, Agilent Technologies,
Version 1.171.36.32 (release 02-08-2013 CrysAlis171 .NET)
(compiled Aug  2 2013,16:46:58)
;
_computing_data_reduction
;
CrysAlisPro, Agilent Technologies,
Version 1.171.36.32 (release 02-08-2013 CrysAlis171 .NET)
(compiled Aug  2 2013,16:46:58)
;
_computing_molecular_graphics    'Olex2 (Dolomanov et al., 2009)'
_computing_publication_material  'Olex2 (Dolomanov et al., 2009)'
_computing_structure_refinement  'ShelXL (Sheldrick, 2015)'
_computing_structure_solution
;
Superflip (Palatinus & Chapuis, 2007;Palatinus & van der Lee, 2008;
Palatinus et al., 2012)
;
_diffrn_ambient_temperature      100(2)
_diffrn_detector_area_resol_mean 16.2096
_diffrn_measured_fraction_theta_full 1.000
_diffrn_measured_fraction_theta_max 1.000
_diffrn_measurement_details
;
#__ type_ start__ end____ width___ exp.time_
  1 omega  -77.00  -32.00   1.0000   20.0000
omega____ theta____ kappa____ phi______ frames
    -      -22.4241  178.0000  -90.0000 45

#__ type_ start__ end____ width___ exp.time_
  2 omega   40.00   92.00   1.0000   20.0000
omega____ theta____ kappa____ phi______ frames
    -       23.3616   57.0000 -180.0000 52

#__ type_ start__ end____ width___ exp.time_
  3 omega  -44.00   13.00   1.0000   20.0000
omega____ theta____ kappa____ phi______ frames
    -       23.3616  -57.0000 -120.0000 57

#__ type_ start__ end____ width___ exp.time_
  4 omega  -90.00  -63.00   1.0000   20.0000
omega____ theta____ kappa____ phi______ frames
    -      -22.4241 -178.0000 -150.0000 27

#__ type_ start__ end____ width___ exp.time_
  5 omega  -48.00   22.00   1.0000   20.0000
omega____ theta____ kappa____ phi______ frames
    -      -22.4241  -19.0000   30.0000 70

#__ type_ start__ end____ width___ exp.time_
  6 omega   36.00   61.00   1.0000   20.0000
omega____ theta____ kappa____ phi______ frames
    -       23.3616  178.0000 -180.0000 25

#__ type_ start__ end____ width___ exp.time_
  7 omega  -52.00   47.00   1.0000   20.0000
omega____ theta____ kappa____ phi______ frames
    -      -22.4241   77.0000  150.0000 99

#__ type_ start__ end____ width___ exp.time_
  8 omega   -4.00   40.00   1.0000   20.0000
omega____ theta____ kappa____ phi______ frames
    -       23.3616   77.0000 -180.0000 44

#__ type_ start__ end____ width___ exp.time_
  9 omega   67.00   93.00   1.0000   20.0000
omega____ theta____ kappa____ phi______ frames
    -       23.3616   77.0000 -180.0000 26

#__ type_ start__ end____ width___ exp.time_
 10 omega  -25.00   65.00   1.0000   20.0000
omega____ theta____ kappa____ phi______ frames
    -       23.3616  -99.0000   60.0000 90

#__ type_ start__ end____ width___ exp.time_
 11 omega   19.00   55.00   1.0000   20.0000
omega____ theta____ kappa____ phi______ frames
    -       23.3616   57.0000  120.0000 36

#__ type_ start__ end____ width___ exp.time_
 12 omega   -7.00   89.00   1.0000   20.0000
omega____ theta____ kappa____ phi______ frames
    -       23.3616   77.0000   30.0000 96

#__ type_ start__ end____ width___ exp.time_
 13 omega   -4.00   65.00   1.0000   20.0000
omega____ theta____ kappa____ phi______ frames
    -       23.3616  -99.0000  -60.0000 69

#__ type_ start__ end____ width___ exp.time_
 14 omega   -2.00   90.00   1.0000   20.0000
omega____ theta____ kappa____ phi______ frames
    -       23.3616   38.0000  -30.0000 92

#__ type_ start__ end____ width___ exp.time_
 15 omega   -2.00   46.00   1.0000   20.0000
omega____ theta____ kappa____ phi______ frames
    -       23.3616   77.0000  -90.0000 48
;
_diffrn_measurement_device_type  'Xcalibur, Eos'
_diffrn_measurement_method       '\w scans'
_diffrn_orient_matrix_UB_11      -0.0346243000
_diffrn_orient_matrix_UB_12      0.0299991000
_diffrn_orient_matrix_UB_13      0.0504159000
_diffrn_orient_matrix_UB_21      0.0225740000
_diffrn_orient_matrix_UB_22      0.0816391000
_diffrn_orient_matrix_UB_23      0.0013214000
_diffrn_orient_matrix_UB_31      -0.0292332000
_diffrn_orient_matrix_UB_32      0.0276355000
_diffrn_orient_matrix_UB_33      -0.0586448000
_diffrn_radiation_monochromator  graphite
_diffrn_radiation_type           MoK\a
_diffrn_radiation_wavelength     0.71073
_diffrn_reflns_av_R_equivalents  0.1080
_diffrn_reflns_av_unetI/netI     0.0406
_diffrn_reflns_Laue_measured_fraction_full 1.000
_diffrn_reflns_Laue_measured_fraction_max 1.000
_diffrn_reflns_limit_h_max       18
_diffrn_reflns_limit_h_min       -18
_diffrn_reflns_limit_k_max       10
_diffrn_reflns_limit_k_min       -10
_diffrn_reflns_limit_l_max       11
_diffrn_reflns_limit_l_min       -11
_diffrn_reflns_number            15722
_diffrn_reflns_point_group_measured_fraction_full 1.000
_diffrn_reflns_point_group_measured_fraction_max 1.000
_diffrn_reflns_theta_full        25.242
_diffrn_reflns_theta_max         27.497
_diffrn_reflns_theta_min         2.653
_diffrn_source                   'Enhance (Mo) X-ray Source'
_exptl_absorpt_coefficient_mu    28.834
_exptl_absorpt_correction_T_max  1.00000
_exptl_absorpt_correction_T_min  0.12170
_exptl_absorpt_correction_type   multi-scan
_exptl_absorpt_process_details
;
CrysAlisPro, Agilent Technologies,
Version 1.171.36.32 (release 02-08-2013 CrysAlis171 .NET)
(compiled Aug  2 2013,16:46:58)
Empirical absorption correction using spherical harmonics,
 implemented in SCALE3 ABSPACK scaling algorithm.
;
_exptl_crystal_colour            yellow
_exptl_crystal_colour_primary    yellow
_exptl_crystal_density_diffrn    3.506
_exptl_crystal_description       prism
_exptl_crystal_F_000             920
_exptl_crystal_size_max          0.2
_exptl_crystal_size_mid          0.2
_exptl_crystal_size_min          0.2
_refine_diff_density_max         4.557
_refine_diff_density_min         -2.695
_refine_diff_density_rms         0.429
_refine_ls_extinction_method     none
_refine_ls_goodness_of_fit_ref   1.171
_refine_ls_hydrogen_treatment    constr
_refine_ls_matrix_type           full
_refine_ls_number_parameters     52
_refine_ls_number_reflns         1231
_refine_ls_number_restraints     0
_refine_ls_restrained_S_all      1.171
_refine_ls_R_factor_all          0.0696
_refine_ls_R_factor_gt           0.0579
_refine_ls_shift/su_max          0.000
_refine_ls_shift/su_mean         0.000
_refine_ls_structure_factor_coef Fsqd
_refine_ls_weighting_details
'w=1/[\s^2^(Fo^2^)+(0.0461P)^2^+56.6043P] where P=(Fo^2^+2Fc^2^)/3'
_refine_ls_weighting_scheme      calc
_refine_ls_wR_factor_gt          0.1350
_refine_ls_wR_factor_ref         0.1420
_reflns_Friedel_coverage         0.000
_reflns_number_gt                1026
_reflns_number_total             1231
_reflns_threshold_expression     'I > 2\s(I)'
_cod_data_source_file            c8dt03041c1.cif
_cod_data_source_block           7175-8629_n2
_cod_depositor_comments
'Adding full bibliography for 7047908--7047909.cif.'
_cod_original_cell_volume        998.57(8)
_cod_database_code               7047909
_shelx_shelxl_version_number     2014/7
_chemical_oxdiff_formula         'Pb Br3 N C5 H6'
_shelx_space_group_comment
;
The symmetry employed for this shelxl refinement is uniquely defined
by the following loop, which should always be used as a source of
symmetry information in preference to the above space-group names.
They are only intended as comments.
;
_shelx_estimated_absorpt_t_max   0.069
_shelx_estimated_absorpt_t_min   0.069
_reflns_odcompleteness_completeness 99.80
_reflns_odcompleteness_iscentric 1
_reflns_odcompleteness_theta     28.51
_olex2_refinement_description
;
1. Fixed Uiso
 At 1.2 times of:
  All C(H) groups
2. Shared sites
{C1, N25}
3. Uiso/Uaniso restraints and constraints
Uanis(C1) = Uanis(N25)
4. Others
 Fixed Sof: C1(0.5) N25(0.5)
5.a Aromatic/amide H refined with riding coordinates:
 C1(H1), C0AA(H0AA), C2(H2)
;
_shelx_res_file
;
    7175-8629_n2.res created by SHELXL-2014/7

TITL CF solution in Pnma
CELL 0.71073 14.004488 7.768951 9.178032 90 90 90
ZERR 4 0.00062 0.000353 0.000465 0 0 0
LATT 1
SYMM 0.5-X,-Y,0.5+Z
SYMM 0.5+X,0.5-Y,0.5-Z
SYMM -X,0.5+Y,-Z
SFAC C H Br N Pb
UNIT 20 24 12 4 4
EADP C1 N25
EXYZ C1 N25

L.S. 4
PLAN  25
SIZE 0.2 0.2 0.2
TEMP -173(2)
fmap 2
acta
OMIT -4 55
REM <olex2.extras>
REM <HklSrc "%.\\7175-8629_n2.hkl">
REM </olex2.extras>

WGHT    0.046100   56.604301
FVAR       1.70131
PB1   5    0.500000    0.500000    0.000000    10.50000    0.01417    0.01063 =
         0.01013    0.00018    0.00092   -0.00034
BR1   3    0.338322    0.750000    0.044237    10.50000    0.01277    0.05148 =
         0.01598    0.00000    0.00215    0.00000
BR2   3    0.608422    0.750000    0.189267    10.50000    0.01729    0.06827 =
         0.01322    0.00000   -0.00522    0.00000
PART 1
C1    1    0.396309    0.833058    0.425062    10.50000    0.03497    0.03016 =
         0.01453   -0.00503    0.00018   -0.00168
AFIX  43
H1    2    0.429802    0.892966    0.350694    11.00000   -1.20000
AFIX   0
PART 0
C0AA  1    0.349452    0.923846    0.529107    11.00000    0.03290    0.03446 =
         0.01923   -0.00584   -0.00579    0.00727
PART 1
AFIX  43
H0AA  2    0.350409    1.046116    0.529103    11.00000   -1.20000
AFIX   0
PART 0
C2    1    0.300000    0.833308    0.635728    11.00000    0.01269    0.04502 =
         0.02620   -0.00702   -0.00238    0.00320
AFIX  43
H2    2    0.265994    0.894075    0.709046    11.00000   -1.20000
AFIX   0
BR3   3    0.445970    0.250000    0.245821    10.50000    0.01207    0.16005 =
         0.00745    0.00000    0.00128    0.00000
PART -1
N25   4    0.396309    0.833058    0.425062    10.50000    0.03497    0.03016 =
         0.01453   -0.00503    0.00018   -0.00168
HKLF 4

REM  CF solution in Pnma
REM R1 =  0.0579 for    1026 Fo > 4sig(Fo)  and  0.0696 for all    1231 data
REM     52 parameters refined using      0 restraints

END

WGHT      0.0461     56.6151

REM Highest difference peak  4.557,  deepest hole -2.695,  1-sigma level  0.429
Q1    1   0.5009  0.3831  0.0013  11.00000  0.05    4.56
Q2    1   0.4476  0.1875  0.2522  11.00000  0.05    3.05
Q3    1   0.5151  0.5007  0.2014  11.00000  0.05    2.42
Q4    1   0.5388  0.7500  0.0082  10.50000  0.05    1.97
Q5    1   0.1606  0.7500  0.5452  10.50000  0.05    1.96
Q6    1   0.5586  0.4982  0.0227  11.00000  0.05    1.91
Q7    1   0.4430  0.8041  0.2518  11.00000  0.05    1.87
Q8    1   0.5815  0.4952 -0.1176  11.00000  0.05    1.65
Q9    1   0.5565  0.8141  0.2591  11.00000  0.05    1.59
Q10   1   0.3299  0.7500  0.7389  10.50000  0.05    1.57
Q11   1   0.3891  0.7500  0.8057  10.50000  0.05    1.45
Q12   1   0.5524  0.5891 -0.0787  11.00000  0.05    1.44
Q13   1   0.4583  0.7500  0.0020  10.50000  0.05    1.42
Q14   1   0.5523  0.1929  0.2661  11.00000  0.05    1.38
Q15   1   0.5608  0.4275  0.0606  11.00000  0.05    1.37
Q16   1   0.3408  0.9099  0.0505  11.00000  0.05    1.34
Q17   1   0.6008  0.9015  0.1820  11.00000  0.05    1.24
Q18   1   0.5534  0.6023  0.0808  11.00000  0.05    1.17
Q19   1   0.5944  0.4986  0.1015  11.00000  0.05    1.14
Q20   1   0.3669  0.7732  0.1756  11.00000  0.05    1.14
Q21   1   0.4432  1.0448  0.2553  11.00000  0.05    1.14
Q22   1   0.4030  0.2500  0.4013  10.50000  0.05    1.13
Q23   1   0.3839  0.1901  0.1966  11.00000  0.05    1.07
Q24   1   0.2854  0.8127 -0.0175  11.00000  0.05    1.01
Q25   1   0.5604  0.4230 -0.0610  11.00000  0.05    1.00
;
_shelx_res_checksum              562
_shelx_hkl_file
;
   2   0   0 323081. 3972.98  10
  -2   0   0 316330. 5471.04  14
  -2   0   0 316258. 4827.00   1
  -3   0   0 688.046 262.968   2
  -3   0   0 710.290 779.615  13
  -3   0   0 544.530 325.445   1
  -3   0   0 359.764 281.485  14
   3   0   0 577.316 327.148   2
  -3   0   0 433.684 166.156   9
   3   0   0 447.775 278.549  14
  -3   0   0 394.464 261.128  15
  -3   0   0 346.863 185.759  10
   3   0   0 1414.39 892.903  13
  -4   0   0 20975.6 1541.61   2
   4   0   0 15695.6 1777.96   2
   4   0   0 25598.4 5162.49  13
  -4   0   0 17235.2 1603.05   1
  -4   0   0 18183.0 1333.26  10
  -4   0   0 17039.6 1801.50  14
  -4   0   0 15927.1 1584.69  15
   4   0   0 17019.7 1793.40  14
  -4   0   0 29276.5 5850.14  13
  -5   0   0 605.007 414.255  15
  -5   0   0 587.857 324.665  10
  -5   0   0 2154.17 2229.63  13
   5   0   0 0.10391 438.408   2
   5   0   0 566.177 407.004  14
  -5   0   0 637.847 312.397   2
  -5   0   0 355.132 287.890   1
   6   0   0 178531. 7219.11  14
  -6   0   0 194344. 6757.86   1
  -6   0   0 186658. 5325.08  10
   6   0   0 176303. 7625.02   2
  -6   0   0 192948. 5415.15   2
  -7   0   0 762.033 450.126   2
  -7   0   0 747.816 437.095   1
  -7   0   0 680.575 431.414  10
   7   0   0 1301.04 867.283  14
  -8   0   0 83017.4 5058.40   1
  -8   0   0 83061.7 4106.49  10
   8   0   0 85820.9 5877.13  14
  -8   0   0 84887.7 3975.66   2
  -9   0   0 774.063 485.726   2
  -9   0   0 906.754 665.775   1
   9   0   0 1015.38 737.763  14
  -9   0   0 585.454 436.396  10
 -10   0   0 55047.4 4697.54   1
 -10   0   0 52648.4 3635.22  10
  10   0   0 57548.5 5442.53  14
 -11   0   0 704.520 492.085  10
 -11   0   0 1066.17 813.393   1
  11   0   0 922.382 854.241  14
 -12   0   0 74569.9 4793.63  10
 -12   0   0 86528.5 6461.39   1
  12   0   0 89591.4 7631.92  14
 -13   0   0 311.137 124.927  10
 -13   0   0 1695.80 1297.00   5
 -13   0   0 867.220 774.258   1
  13   0   0 1640.94 1340.25  14
  14   0   0 31909.6 5462.13  12
 -14   0   0 38512.7 7569.08  13
  14   0   0 25809.4 4523.34  14
 -14   0   0 21393.3 3577.62   1
 -14   0   0 27634.7 4360.01   5
  15   0   0 267.723 144.718  14
  15   0   0 852.623 1653.25  12
 -15   0   0 1263.42 1710.29   4
 -15   0   0 201.640 340.981   1
 -16   0   0 35792.2 7235.13  13
 -16   0   0 31189.8 4658.02   1
 -16   0   0 28326.4 5589.51   4
  16   0   0 27918.8 5011.93  14
  16   0   0 35962.1 6128.17  12
 -17   0   0 2938.30 2238.69   4
  17   0   0 2249.47 1854.74  14
 -17   0   0 7001.84 3870.85  13
  17   0   0 2340.84 1894.49  12
 -17   0   0 1456.88 1096.19   1
 -18   0   0 125485. 11885.8   4
 -18   0   0 132246. 10596.8   1
  18   0   0 131958. 11860.1  14
 -18   0   0 133385. 13914.4  13
  18   0   0 142916. 11947.0  12
  19   0   0 4492.01 2320.48  12
 -19   0   0 3283.47 2258.32   4
  19   0   0 5071.12 2649.17  14
 -19   0   0 3242.67 1702.09   1
   1   0   1 308543. 12604.1  13
   1   0  -1 310224. 7100.63   8
  -1   0  -1 337044. 4632.24   4
  -1   0   1 317876. 5802.19  14
   2   0  -1 1102.10 530.192   8
  -2   0  -1 696.319 287.773  14
   2   0  -1 818.887 415.094  14
   2   0   1 872.817 206.524  13
   2   0  -1 734.758 282.184  12
  -2   0  -1 877.677 236.099  13
  -2   0  -1 888.457 310.844  10
  -2   0   1 1167.85 542.728   8
  -2   0   1 941.531 279.526   2
   2   0   1 481.023 251.806  10
  -2   0   1 728.581 383.592  14
   2   0   1 515.960 237.682   1
   2   0   1 706.071 293.578  15
  -2   0  -1 796.781 331.206   4
   2   0   1 480.209 224.574  14
   2   0   1 742.073 242.507   7
   2   0   1 1196.04 392.069   3
   3   0   1 145137. 4494.52  15
   3   0  -1 154663. 5812.82   8
   3   0   1 144033. 4228.32  14
   3   0   1 202166. 14649.7  13
  -3   0   1 140069. 5447.58  14
   3   0   1 155373. 4250.00   1
  -3   0  -1 155613. 5017.19   4
  -3   0  -1 150483. 3917.85  10
  -3   0   1 179094. 10649.4  13
   3   0   1 151417. 3898.40  10
  -3   0  -1 188890. 13625.4  13
  -3   0  -1 150937. 4706.74  15
  -3   0  -1 137529. 4061.07  14
  -3   0   1 138172. 6429.81   2
  -3   0  -1 145514. 4152.32   1
   3   0  -1 152612. 5564.76  14
   4   0   1 22773.2 1071.41   2
   4   0  -1 23990.5 2460.41   8
   4   0   1 21778.3 1613.22  10
  -4   0   1 31551.9 5261.73  13
  -4   0  -1 21740.4 1608.79  10
   4   0   1 20598.9 1839.49  14
   4   0  -1 22991.7 2391.33  14
  -4   0  -1 21772.8 1835.37   1
  -4   0   1 21454.7 2652.39   2
  -4   0  -1 20963.8 1946.29  15
   4   0   1 22580.1 1839.67   1
   4   0   1 20529.6 1920.89  15
  -4   0  -1 19521.1 1762.10  14
   5   0   1 218260. 5519.58  10
  -5   0  -1 382576. 24259.0  13
   5   0   1 239752. 4687.81   2
  -5   0   1 217314. 8354.09   2
   5   0  -1 207754. 7939.88  14
  -5   0  -1 209676. 6182.69   1
   5   0  -1 207663. 7360.73   8
  -5   0   1 352006. 18689.1  13
   5   0   1 185710. 6287.82  15
   5   0   1 196289. 6541.12  14
  -5   0  -1 199950. 5317.30  10
  -6   0  -1 50272.2 3351.52   1
   6   0   1 51519.0 2829.13   2
  -6   0   1 50663.0 4103.42   2
   6   0  -1 52230.9 4293.67  14
   6   0   1 48398.6 3558.52  14
   6   0   1 46797.1 2020.72   9
   6   0   1 45414.4 3394.44  15
  -6   0  -1 49019.7 2840.80  10
   6   0  -1 49342.6 3809.86   8
  -6   0  -1 118351. 13976.5  13
   6   0   1 51716.5 2877.56  10
  -6   0   1 109340. 11179.9  13
   7   0  -1 251637. 10040.4  14
  -7   0   1 244456. 6444.05   9
  -7   0  -1 248266. 7945.77   1
   7   0   1 245174. 7278.24   2
  -7   0   1 251264. 8994.02   2
   7   0   1 239745. 4895.66   9
  -7   0  -1 230418. 6617.49  10
   7   0  -1 234818. 8699.68   8
  -7   0   1 232086. 6862.69  10
   7   0   1 211176. 7876.88  15
   7   0   1 231242. 8509.94  14
  -8   0   1 37318.7 2586.27   9
  -8   0  -1 34206.1 2727.83  10
  -8   0   1 37133.9 3528.12   2
  -8   0   1 34533.8 3483.85   1
   8   0  -1 40843.6 4366.30  14
  -8   0   1 34689.2 2811.43  10
   8   0   1 39369.2 3825.99  14
  -8   0  -1 36954.3 3274.34   1
  -9   0  -1 60301.7 3838.03  10
  -9   0  -1 79414.3 5170.01   5
  -9   0   1 65094.5 4679.58   2
  -9   0   1 60649.9 3929.40  10
   9   0  -1 70170.1 5938.91  14
  -9   0   1 62093.9 4887.18   1
   9   0   1 64577.6 5213.81  14
  -9   0   1 65368.0 3505.80   9
  -9   0  -1 64971.3 4649.93   1
 -10   0   1 13280.2 1915.92  10
 -10   0   1 14949.3 2260.36   2
  10   0  -1 14405.7 2801.02  14
  10   0   1 15568.8 2671.65  14
 -10   0  -1 15883.8 2475.74   5
 -10   0  -1 16234.1 2449.26   1
 -10   0   1 16107.3 2656.77   1
 -10   0  -1 13712.6 1933.40  10
 -11   0   1 100097. 5867.78   2
 -11   0   1 110412. 7244.58   1
 -11   0  -1 98700.6 5459.07  10
  11   0  -1 114294. 8439.93  14
 -11   0  -1 109890. 6843.65   1
  11   0   1 117610. 7967.83  14
 -11   0  -1 119520. 6702.51   5
 -11   0   1 103545. 5610.94  10
  12   0  -1 52256.9 6255.86  12
 -12   0   1 36353.7 3427.32  10
  12   0   1 42819.9 5120.35  14
 -12   0   1 40879.3 4650.74   1
  12   0  -1 43189.7 5434.38  14
 -12   0  -1 44139.5 4608.93   1
 -12   0   1 55064.5 8647.03  13
 -12   0   1 35981.2 3549.04   2
 -12   0  -1 42421.3 4149.25   5
 -12   0  -1 35333.0 3395.69  10
 -12   0  -1 44100.5 5612.18   4
  13   0  -1 121564. 9664.41  12
 -13   0  -1 104215. 8958.00   4
 -13   0   1 99853.8 7496.92   1
 -13   0  -1 107700. 7554.09   1
 -13   0  -1 101386. 6449.10   5
  13   0  -1 106275. 9011.49  14
  13   0   1 109445. 8609.72  14
 -13   0  -1 90882.1 5737.21  10
 -13   0   1 89498.7 5589.48  10
  14   0  -1 4565.39 2072.44  14
 -14   0   1 4649.39 2651.78  13
  14   0   1 4609.58 1807.76  14
  14   0  -1 6400.33 2484.03  12
 -14   0  -1 4192.49 1622.66   1
 -14   0  -1 4101.22 2242.49   4
 -14   0   1 2474.45 1199.66   1
 -14   0  -1 6470.39 3877.18  13
  15   0   1 17776.4 3798.64  14
 -15   0  -1 19550.5 4382.66   4
 -15   0  -1 17268.2 3437.14   1
 -15   0   1 17890.5 4934.24  13
 -15   0  -1 23482.2 6326.93  13
  15   0  -1 19689.9 4122.53  12
 -15   0   1 16603.5 3361.78   1
 -15   0   1 19790.4 4629.91   5
  15   0  -1 18279.8 4126.87  14
  16   0   1 1691.50 1369.85  14
 -16   0   1 298.560 191.918   1
  16   0   1 4379.03 2671.22  12
 -16   0  -1 3210.62 2672.20  13
 -16   0  -1 1329.82 1084.22   1
 -16   0   1 1201.58 1731.67  13
  16   0  -1 1030.03 1191.23  14
  16   0  -1 1003.80 844.864  12
 -16   0  -1 1123.32 1216.61   4
  17   0   1 63803.9 8740.82  12
 -17   0   1 55090.7 7646.28   4
  17   0  -1 40449.5 5941.31   7
 -17   0   1 51041.2 6272.81   1
 -17   0  -1 53654.7 7704.48   4
 -17   0  -1 59150.8 9701.07  13
  17   0  -1 53398.2 7367.62  14
  17   0   1 51120.6 7019.00  14
 -17   0  -1 52594.2 6429.79   1
 -17   0   1 45569.7 7873.48  13
  17   0  -1 53566.2 6977.43  12
  18   0   1 3538.12 2164.29  14
 -18   0  -1 1811.31 1337.25   1
  18   0  -1 1739.66 1633.55  12
 -18   0   1 1.75493 483.982   1
 -18   0   1 3662.06 2664.56   4
  18   0  -1 1881.76 1818.90  14
 -18   0  -1 6461.82 3953.23  13
  18   0   1 5346.84 3055.75  12
 -18   0  -1 2425.05 1907.36   4
  19   0   1 65199.0 8762.91  12
 -19   0   1 47661.6 6614.55   1
 -19   0  -1 52587.5 8041.56   4
  19   0  -1 53286.3 7944.18  14
  19   0  -1 56336.3 7290.28  12
 -19   0   1 51266.6 7806.35   4
  19   0   1 52574.7 7733.75  14
 -19   0  -1 56139.5 9603.89  13
   0   0  -2 143003. 2900.44  11
   0   0  -2 174591. 6196.99   8
   0   0   2 170739. 6375.16   8
   0   0   2 159903. 9085.24  13
   0   0   2 172333. 4954.74   7
   0   0  -2 177910. 5582.78  13
   0   0  -2 129263. 3030.39   3
   0   0  -2 170892. 4524.76   7
  -1   0  -2 4274.87 583.547   3
   1   0   2 4888.75 948.966  10
   1   0   2 3794.51 384.302  11
  -1   0   2 4947.19 1160.75   8
   1   0   2 4201.73 577.264   3
   1   0   2 4306.45 661.690   7
  -1   0  -2 4821.31 1141.59  13
   1   0  -2 4702.54 1100.01   8
   1   0   2 4676.83 943.278   8
   1   0  -2 5328.78 961.195   7
  -1   0   2 4719.88 936.314   7
  -1   0   2 4088.74 428.351  12
   1   0  -2 3857.40 432.043  12
  -1   0  -2 4776.55 678.484   7
   2   0   2 48373.6 2227.08   7
  -2   0  -2 52975.4 3024.18  10
   2   0  -2 57067.5 3690.43   7
  -2   0  -2 44653.8 2126.22   7
  -2   0   2 43133.1 1672.92  12
   2   0   2 51903.5 3024.66   8
   2   0  -2 43410.9 1612.99  12
   2   0   2 48051.3 2550.93   4
   2   0  -2 52663.4 4165.46   8
   2   0   2 53915.1 2963.46  10
  -2   0   2 40331.0 3033.14  14
   2   0   2 44279.5 2254.91   3
  -2   0  -2 44130.3 2343.71   3
  -2   0  -2 47840.6 5670.82  13
  -2   0   2 45744.6 3829.92   8
   3   0   2 37974.3 2380.53  14
   3   0  -2 34433.3 3632.65   8
   3   0   2 43210.6 2124.22   7
  -3   0  -2 40484.6 2087.52   7
   3   0   2 37637.7 2402.59   3
  -3   0  -2 41859.7 2586.76   4
  -3   0  -2 44257.8 2786.74  10
   3   0  -2 35811.6 3044.28  14
   3   0  -2 45611.7 3682.17   7
  -3   0   2 42210.0 3580.55  13
   3   0  -2 36422.4 1858.34  12
  -3   0  -2 40938.9 6006.97  13
   3   0   2 44909.4 2665.98  10
  -3   0   2 39287.5 3585.65   8
  -3   0   2 38501.0 4285.36   2
   4   0  -2 121750. 4451.93  12
  -4   0  -2 177622. 15161.6  13
  -4   0  -2 137168. 5412.36   4
   4   0   2 133904. 4782.48  10
  -4   0   2 125360. 8103.12   2
   4   0   2 121258. 4660.16  14
  -4   0   2 194417. 10194.0  13
   4   0   2 118919. 5175.53  15
  -4   0  -2 138071. 5060.64  10
   4   0   2 137412. 4154.81   7
   4   0  -2 127413. 6353.69  14
  -5   0   2 6217.71 1790.18   2
   5   0  -2 4712.03 1439.09  14
   5   0   2 6060.65 1302.94  15
   5   0   2 6762.92 1006.81   7
   5   0   2 6372.76 1210.12  14
  -5   0  -2 6318.60 1389.46   4
  -5   0   2 9924.10 2739.33  13
  -5   0  -2 6697.82 1227.33  10
   5   0  -2 5574.62 1162.07  12
  -6   0   2 484933. 16062.2   2
   6   0  -2 480443. 13957.9  14
  -6   0  -2 446200. 5286.06   5
   6   0   2 487000. 5479.84   2
   6   0  -2 492683. 11681.3  12
  -6   0  -2 480566. 10223.7  10
  -6   0  -2 505934. 12794.4   4
   6   0   2 464690. 10849.2  14
   6   0   2 450275. 11374.5  15
   7   0   2 50683.8 3916.79  14
  -7   0   2 51550.0 5178.11   2
   7   0   2 51991.9 2202.62   2
  -7   0  -2 51076.4 3459.62  10
  -7   0  -2 61460.5 4082.13   1
   7   0  -2 56475.6 4352.91  12
  -7   0  -2 54466.7 4545.63   4
   7   0   2 47583.5 3955.17  15
  -7   0  -2 47490.7 2049.28   5
   7   0  -2 52741.9 4877.83  14
  -8   0  -2 158833. 7119.28   1
   8   0   2 156006. 7598.65  15
   8   0   2 160966. 7613.92  14
   8   0   2 147252. 4627.77   2
  -8   0   2 163479. 9167.10   2
  -8   0  -2 156268. 6368.18  10
  -8   0  -2 156380. 4294.70   5
   8   0  -2 165857. 8300.88  12
   8   0  -2 166797. 9233.12  14
  -8   0  -2 158867. 8474.96   4
  -9   0   2 1153.06 612.994   9
  -9   0  -2 499.736 419.058   4
   9   0   2 917.350 583.786  15
  -9   0  -2 1199.25 631.948  10
   9   0  -2 1167.87 826.659  14
  -9   0   2 1014.85 773.260   2
   9   0  -2 525.658 623.657  12
   9   0   2 730.087 350.642   9
  -9   0  -2 735.431 541.313   1
  -9   0  -2 832.730 347.257   5
   9   0   2 153.560 224.350  14
  10   0  -2 76712.2 6362.84  12
  10   0   2 70394.2 5662.51  15
  10   0   2 74351.4 5831.50  14
 -10   0   2 71932.6 5938.65   2
 -10   0  -2 68435.5 3479.80   5
 -10   0   2 70499.9 4439.59   9
 -10   0  -2 62912.0 4453.89  10
 -10   0  -2 72028.0 5298.17   1
 -10   0  -2 71219.0 6356.08   4
  10   0  -2 73725.1 6842.60  14
 -10   0   2 64410.6 4536.19  10
  10   0   2 65902.4 3073.20   9
 -11   0  -2 20756.4 3708.25   4
 -11   0   2 20470.5 2374.86   9
 -11   0   2 18401.2 2508.28  10
 -11   0  -2 17706.0 2465.45  10
 -11   0   2 19268.9 3101.17   1
 -11   0   2 30141.7 5680.83  13
  11   0   2 21914.2 3309.91  14
  11   0  -2 22449.9 3481.35  12
  11   0  -2 20706.2 3702.62  14
 -11   0  -2 19724.7 1990.87   5
 -11   0  -2 23053.1 3095.71   1
 -11   0   2 21369.6 3261.03   2
 -12   0   2 205409. 10729.7   1
  12   0   2 222642. 11358.1  14
  12   0  -2 224319. 12846.3  14
  12   0  -2 228108. 11569.3  12
 -12   0  -2 210844. 10148.0   1
 -12   0   2 194623. 9651.89   2
 -12   0   2 256468. 16211.8  13
 -12   0  -2 200631. 6794.22   5
 -12   0  -2 214588. 12295.9   4
 -12   0   2 184782. 8229.40  10
 -12   0   2 206734. 7672.56   9
 -12   0  -2 184956. 8325.53  10
  13   0  -2 1871.67 1255.11  12
 -13   0  -2 3137.07 1861.93   4
 -13   0   2 1446.17 862.812  10
 -13   0   2 1677.81 1108.78   1
 -13   0  -2 1711.70 804.657  10
  13   0  -2 2431.13 1704.58  14
 -13   0   2 2984.60 1795.01  13
  13   0   2 3377.15 1634.60  14
 -13   0  -2 1735.49 1276.58   1
 -13   0   2 1165.84 888.053   2
 -13   0  -2 8526.85 5153.23  13
 -14   0  -2 96430.2 7534.16   1
 -14   0   2 75799.4 5959.74   2
 -14   0   2 96729.2 9942.98  13
  14   0  -2 87164.8 8738.02  14
  14   0  -2 91069.2 7917.64  12
 -14   0   2 80838.4 7277.66   1
 -14   0  -2 90446.0 8712.96   4
  14   0   2 94814.3 8242.50  14
 -15   0  -2 11801.7 4809.16  13
 -15   0  -2 4506.67 1720.08   1
  15   0  -2 5410.87 1949.55  12
  15   0   2 6189.22 2308.12  14
 -15   0   2 6060.84 2694.26  13
 -15   0  -2 4776.52 2254.05   4
  15   0  -2 4454.21 2186.32   7
 -15   0   2 3832.23 1556.56   1
  15   0  -2 3984.01 1991.93  14
  16   0   2 12073.6 3211.60  14
 -16   0   2 11629.4 3945.51   5
  16   0  -2 7615.13 2690.41   7
 -16   0  -2 10708.7 2750.52   1
 -16   0  -2 11266.6 3488.25   4
 -16   0  -2 12756.8 4527.38  13
  16   0  -2 8821.64 3024.22  14
 -16   0   2 9652.57 2690.00   1
  16   0  -2 8915.40 2644.71  12
  17   0   2 1260.09 2329.59  12
 -17   0   2-111.197 623.898   1
 -17   0  -2 3205.74 3106.34  13
  17   0   2-216.458 840.983  14
  17   0  -2-119.146 446.548  14
  17   0  -2 107.963 587.452  12
  17   0  -2-215.253 241.262   7
 -17   0  -2 1207.93 1153.32   4
  18   0   2 28468.1 6359.82  12
 -18   0   2 14563.7 3485.91   1
 -18   0   2 17381.8 4758.03   4
  18   0  -2 15695.9 3650.72  12
  18   0  -2 16801.2 4534.50  14
  18   0   2 18835.6 4441.19  14
 -18   0  -2 20970.5 6298.13  13
 -18   0  -2 13972.8 4211.43   4
 -19   0   2 2878.01 2266.83   4
 -19   0   2-835.675 1169.56   1
  19   0  -2 1730.39 1496.62  14
  19   0   2 1131.68 1172.46  14
  19   0  -2 135.304 418.475  12
   0   0  -3 610.207 275.275  11
   0   0   3 137.094 447.503   8
   0   0  -3 413.488 228.512   3
   0   0  -3 1027.52 465.992   7
   0   0  -3 1809.14 784.394  13
   0   0   3 1442.44 1837.33  13
  -1   0  -3 141368. 4749.37   7
  -1   0   3 145343. 7756.21   8
   1   0  -3 133566. 3414.69  13
   1   0  -3 145554. 5647.13   7
   1   0   3 126766. 2984.64  11
  -1   0   3 122659. 2982.06  12
   1   0   3 130232. 6560.73   8
  -1   0  -3 143381. 7723.29  13
  -1   0  -3 121451. 3703.98   3
   1   0   3 149332. 5125.18   7
   1   0   3 144447. 4202.27   3
   2   0   3 10387.5 1893.21   8
  -2   0   3 10249.9 2115.41   8
  -2   0  -3 15715.5 3563.36  13
   2   0   3 9942.43 1158.30   3
  -2   0   3 9454.02 801.473  12
   2   0  -3 9252.35 784.036  12
  -2   0  -3 9665.08 1176.93   7
   2   0   3 10722.6 1289.93   7
   2   0  -3 12265.4 1854.29   7
  -2   0  -3 9005.49 1151.94   3
  -2   0   3 9831.67 808.241   6
   3   0  -3 162169. 3753.81  12
  -3   0   3 161842. 4125.91  12
   3   0  -3 206330. 8477.48   7
  -3   0  -3 193133. 7143.97  10
  -3   0  -3 165170. 6009.80   3
  -3   0   3 165721. 10810.8   2
  -3   0  -3 152661. 4893.16   7
  -3   0  -3 211593. 14121.5  13
  -3   0   3 169653. 8875.17   8
   3   0   3 189055. 7301.48   8
   3   0   3 185402. 5373.26   7
  -4   0  -3 38970.7 3223.05  10
   4   0  -3 40196.9 4216.66   7
   4   0   3 41051.9 3395.47   8
   4   0   3 36850.9 2407.55   7
   4   0  -3 29894.3 1280.98   6
  -4   0   3 33875.4 5059.15   2
  -4   0  -3 32862.4 2325.33   7
  -4   0  -3 33333.6 2783.90   4
  -4   0   3 31377.1 3943.81   8
   4   0   3 34481.1 2741.17  14
   4   0  -3 31775.7 1939.80  12
   5   0  -3 489276. 15055.5   7
   5   0  -3 382937. 7824.21  12
  -5   0  -3 460497. 11319.5  10
  -5   0  -3 408511. 10622.0   4
   5   0   3 370506. 9479.03  14
  -5   0  -3 612705. 29962.1  13
  -5   0   3 440260. 17442.1   2
   5   0   3 377005. 10938.1  15
   5   0   3 445428. 10696.0   8
   6   0   3 62437.1 4096.28  14
  -6   0   3 52460.2 4615.64  13
  -6   0  -3 65750.0 4431.61  10
   6   0   3 61802.7 4616.02  15
  -6   0   3 64677.9 7030.06   2
  -6   0  -3 66046.8 4661.62   4
   6   0  -3 57122.3 3408.68  12
   6   0  -3 73728.0 6194.10   7
   6   0  -3 59848.3 5351.88  14
  -7   0  -3 151713. 7591.25   4
   7   0  -3 136052. 5994.16  12
   7   0  -3 162631. 9835.12   7
   7   0   3 141927. 7238.93  15
   7   0  -3 141454. 8573.40  14
  -7   0   3 151947. 10402.6   2
  -7   0  -3 152373. 6958.86  10
  -7   0   3 146748. 8714.49  13
   7   0   3 141035. 6610.04  14
  -8   0   3 2066.72 1335.75   2
   8   0  -3 1125.87 686.870  12
   8   0   3 1889.99 915.461  14
   8   0   3 1368.99 316.951   2
  -8   0  -3 1581.35 869.225  10
  -8   0  -3 1554.39 853.562   4
   8   0  -3 1473.67 1063.56  14
  -8   0   3 1966.35 1299.50  13
   8   0   3 1723.22 867.493  15
   8   0  -3 1044.54 794.926   7
   9   0  -3 23736.9 3959.15  14
  -9   0  -3 15572.2 899.862   5
  -9   0  -3 23916.8 2973.47  10
  -9   0   3 26401.4 4112.54  13
   9   0   3 15819.9 1323.73   2
  -9   0  -3 24115.7 3441.04   4
  -9   0   3 27774.7 4374.17   2
   9   0  -3 22401.4 2961.27  12
   9   0   3 24113.0 3267.25  15
   9   0   3 24196.1 3138.79  14
   9   0  -3 22662.9 4069.82   7
  10   0  -3 446.823 699.146  14
  10   0   3 21.7639 205.875  14
 -10   0  -3-446.844 484.553  10
  10   0   3 435.664 380.493  15
 -10   0  -3 186.309 110.387   5
  10   0  -3 279.359 755.630   7
  10   0  -3 425.408 426.953  12
 -10   0   3 2325.75 1533.08  13
 -10   0   3 390.046 811.466   2
 -10   0  -3 607.385 697.340   4
  11   0   3 82999.3 6680.12  15
  11   0   3 88749.0 6753.12  14
  11   0  -3 84504.4 8054.82   7
 -11   0   3 85733.5 7356.75   2
 -11   0  -3 74042.1 5661.98  10
 -11   0  -3 82468.7 7234.80   4
  11   0  -3 84365.2 7849.29  14
 -11   0   3 87217.3 7959.33  13
  11   0  -3 78924.3 6117.80  12
 -11   0   3 82922.0 5594.11   9
  12   0  -3 12895.5 3172.99  14
 -12   0  -3 12134.6 2346.02  10
 -12   0   3 13435.7 2185.71   9
 -12   0   3 13933.8 3091.85   2
  12   0   3 14483.3 2899.95  14
 -12   0   3 16830.8 3798.71  13
  12   0  -3 15454.4 3569.30   7
  12   0   3 12808.3 2725.99  15
  12   0  -3 14426.2 2691.01  12
 -12   0   3 9850.76 2047.30  10
 -12   0  -3 13733.8 3122.54   4
  13   0   3 133380. 9199.95  14
 -13   0   3 117226. 8503.02   2
  13   0  -3 122875. 8169.13  12
 -13   0   3 104757. 6774.07  10
  13   0  -3 123987. 10291.7  14
 -13   0   3 118199. 6543.39   9
  13   0  -3 122212. 10181.6   7
 -13   0  -3 129843. 9936.69   4
 -13   0   3 113023. 9524.18  13
 -13   0   3 114397. 8615.22   1
 -13   0  -3 115338. 7493.77  10
 -14   0  -3 28378.1 4882.15   4
  14   0  -3 29122.2 4134.27  12
  14   0  -3 27330.9 4911.39   7
  14   0  -3 29467.7 5236.06  14
 -14   0   3 25535.5 3930.59   2
 -14   0  -3 46438.2 9755.48  13
 -14   0   3 24528.0 4114.50   1
  14   0   3 35563.4 4947.43  14
  15   0   3 58832.2 6674.62  14
  15   0  -3 47930.3 5453.93  12
  15   0  -3 46247.3 6539.80   7
 -15   0  -3 52236.2 6853.28   4
 -15   0   3 44911.7 5805.18   1
  15   0  -3 49981.9 7059.71  14
  16   0   3 831.050 1043.60  14
  16   0  -3 372.497 686.841   7
 -16   0  -3 554.187 257.903   4
 -16   0  -3 2509.26 2776.80  13
  16   0  -3 1245.95 1059.21  14
  16   0  -3 337.431 419.264  12
 -16   0   3 78.7211 503.566   1
  17   0  -3 19918.3 4540.77   7
 -17   0  -3 34558.4 8180.85  13
 -17   0  -3 22484.5 4741.94   4
 -17   0   3 31943.6 6672.70   5
  17   0  -3 20434.2 3751.26  12
  17   0  -3 21562.7 5054.24  14
 -17   0   3 18261.2 4002.69   1
  17   0   3 26007.0 4938.84  14
  18   0  -3 967.525 1362.59  14
 -18   0  -3 1174.65 761.345   4
  18   0  -3 2529.62 1925.97   7
 -18   0  -3 4483.82 3815.69  13
  18   0   3 1803.41 1495.33  14
  18   0   3 6709.24 3879.56  12
 -18   0   3 297.891 1018.82   1
 -19   0   3 19495.1 4409.85   1
   0   0  -4 464680. 7715.15   3
   0   0   4 464073. 15473.7   8
   0   0  -4 512642. 10950.2  13
   0   0  -4 501345. 10847.1   7
  -1   0   4 49818.6 5375.76   8
  -1   0  -4 48631.5 3362.98   7
   1   0  -4 46858.2 2574.32  11
   1   0  -4 54329.7 3882.27   7
  -1   0  -4 57707.2 4795.60  13
  -1   0   4 46423.5 2164.29  12
   1   0   4 46627.4 4766.93   8
   1   0  -4 47954.5 2429.92  13
  -1   0  -4 44061.1 2580.36   3
   2   0   4 279572. 4857.60  11
  -2   0   4 300263. 5128.84  12
  -2   0   4 302901. 13117.6   8
  -2   0  -4 302151. 7696.69   7
  -2   0   4 271002. 8192.43  13
   2   0   4 327831. 12010.3   8
  -2   0  -4 291525. 7206.72   3
  -2   0  -4 349053. 14451.4  13
   2   0  -4 342783. 10593.5   7
  -2   0   4 303915. 5430.39   6
   3   0  -4 14737.1 1157.78  12
  -3   0   4 16992.1 3208.44   8
  -3   0   4 22125.7 4450.32   2
  -3   0  -4 21109.0 4257.79  13
  -3   0  -4 16188.8 1808.63   7
  -3   0  -4 15850.1 1928.87   3
   3   0  -4 19343.0 2823.17   7
  -3   0   4 14310.2 1165.45  12
   3   0   4 19489.4 2939.89   8
  -4   0   4 141165. 11060.7   2
   4   0  -4 177942. 9015.32   7
   4   0  -4 135439. 3802.12  12
  -4   0   4 139733. 9126.53   8
  -4   0  -4 191464. 14043.6  13
  -4   0  -4 142497. 6488.57   3
  -4   0  -4 138767. 5275.46   7
   4   0   4 157497. 7990.40   8
  -4   0   4 139378. 4715.74  12
  -5   0  -4 38526.3 2904.09   7
   5   0   4 45934.2 4410.90   8
  -5   0  -4 45442.7 4200.47  10
   5   0  -4 39876.7 2352.48  12
  -5   0   4 35364.5 4763.88   8
   5   0  -4 49429.9 5193.09   7
  -5   0   4 40162.6 5989.01   2
   5   0   4 36747.2 3295.52  14
   6   0  -4 114872. 2855.97   6
  -6   0  -4 156045. 7337.30   4
   6   0   4 144844. 6666.40  14
   6   0  -4 171079. 10119.8   7
  -6   0   4 150884. 11421.6   2
   6   0  -4 142368. 4983.42  12
   6   0   4 149481. 7827.68  15
  -6   0  -4 230578. 18459.3  13
  -6   0  -4 168401. 8085.17  10
   6   0   4 174736. 8234.27   8
  -7   0  -4 437.632 610.414  10
   7   0   4 1997.45 1337.97   8
   7   0   4 635.627 656.063  15
  -7   0   4 1012.94 1252.82   2
  -7   0  -4 1095.19 721.229   4
   7   0  -4 1777.01 1241.03   7
   7   0  -4 788.402 486.700  12
  -7   0   4 1155.87 605.308  13
   7   0   4 289.239 157.180  14
  -8   0   4 49393.2 6572.70   2
  -8   0   4 31136.8 2871.07  13
   8   0   4 45586.3 4592.55  15
   8   0   4 62018.5 5048.51   8
   8   0  -4 43633.4 3358.21  12
  -8   0  -4 50207.5 4660.15  10
   8   0   4 49942.2 4296.18  14
  -8   0  -4 48484.0 4691.10   4
   8   0  -4 52394.3 6261.57   7
  -9   0  -4 5225.74 3884.00  13
  -9   0  -4 1699.16 764.849   4
   9   0   4 1484.00 975.635  15
  -9   0  -4 2086.94 1035.41  10
  -9   0   4 1690.08 803.932  13
   9   0   4 1993.19 1011.30  14
  -9   0   4 2485.83 1497.74   2
   9   0   4 2816.03 1411.04   8
   9   0  -4 1726.29 735.289  12
   9   0  -4 2688.50 1568.15   7
 -10   0  -4 13522.7 2558.52  10
  10   0   4 14256.7 2807.31  15
  10   0   4 19096.5 2808.01   8
 -10   0   4 15077.1 3723.34   2
 -10   0  -4 13655.2 2770.99   4
  10   0   4 15352.1 2660.99  14
  10   0  -4 12798.0 3066.02  14
 -10   0   4 8224.22 1848.35  13
  10   0  -4 11101.1 1993.85  12
  10   0  -4 12644.7 3395.09   7
  11   0  -4 2257.64 1707.04   7
 -11   0  -4 919.644 750.092  10
  11   0   4 1403.65 1145.38  15
  11   0  -4 1105.39 644.238  12
  11   0   4 708.726 540.725  14
 -11   0   4 2100.65 1096.27  13
  11   0  -4 1053.97 1216.51  14
 -11   0  -4 4858.19 3988.83  13
 -11   0   4 1453.88 1490.70   2
 -11   0  -4 1070.58 714.025   4
 -12   0  -4 70927.6 6232.51  10
  12   0   4 75142.9 6483.99  14
  12   0  -4 63168.3 7625.77   7
 -12   0   4 68918.3 7376.49   2
  12   0  -4 61751.7 5072.05  12
 -12   0  -4 70445.0 6910.16   4
 -12   0   4 66548.7 5625.60   9
  12   0  -4 66474.8 7565.17  14
  12   0   4 66263.3 6486.26  15
 -13   0  -4 10634.4 2391.99  10
 -13   0  -4 10000.5 2858.37   4
 -13   0   4 9165.62 2733.24   2
  13   0  -4 10794.4 3296.00   7
  13   0  -4 10149.3 2154.33  12
  13   0   4 10691.3 2703.56  15
  13   0  -4 10715.2 3215.89  14
  13   0   4 12179.0 2754.05  14
 -13   0   4 9380.96 2106.66   9
  14   0  -4 46471.7 6734.71  14
 -14   0   4 41501.9 5564.44   1
  14   0  -4 45897.9 4761.42  12
  14   0   4 56859.7 6229.92  14
  14   0   4 50874.8 5974.66  15
 -14   0  -4 50292.9 6444.16   4
  14   0  -4 50279.8 7044.12   7
 -14   0   4 46460.5 5945.03   2
  15   0  -4 327.589 137.476  12
 -15   0   4 561.747 77.0210   1
  15   0  -4 1793.15 1414.33   7
 -15   0  -4 197.138 667.737   4
  15   0   4 506.850 572.183  14
 -15   0   4 213.355 480.703   2
  15   0  -4 67.5020 422.825  14
 -16   0   4 36413.3 5533.27   1
 -16   0  -4 44256.6 6535.16   4
  16   0  -4 38922.8 6398.59   7
  16   0   4 47817.3 6276.52  14
 -16   0  -4 54953.6 10678.2  13
 -17   0   4 9193.08 2921.37   1
 -17   0   4 19371.9 5661.98   5
 -17   0  -4 10357.2 3190.41   4
  17   0  -4 12608.9 3655.42   7
  17   0   4 14244.4 3631.97  14
 -17   0  -4 18177.3 6354.02  13
 -18   0  -4 76847.4 12905.1  13
  18   0  -4 61712.2 8261.70   7
 -18   0   4 51840.0 7185.75   1
 -18   0   4 79934.0 11197.5   5
  19   0  -4 2552.06 1864.03   7
   0   0  -5 359.418 205.950   3
   0   0   5 1864.22 999.573   8
   0   0  -5 962.032 689.436   7
   0   0  -5 899.112 331.139  11
   0   0  -5 1611.52 809.966  13
   1   0  -5 286658. 6986.67   3
  -1   0  -5 339585. 9683.99   7
  -1   0  -5 301458. 7331.83   3
   1   0  -5 342115. 10528.1   7
  -1   0   5 313102. 6357.04  12
   1   0  -5 299140. 6662.72  13
  -1   0  -5 354773. 11574.2  13
  -1   0   5 299646. 14322.9   8
   1   0   5 344544. 14879.0   8
  -2   0  -5 81991.1 4625.44   7
   2   0  -5 87564.9 5795.98   7
   2   0   5 96879.4 7676.43   8
  -2   0   5 87421.2 7938.57   8
  -2   0   5 76501.9 3237.22   6
  -2   0  -5 103880. 7504.31  13
  -2   0   5 78533.7 2975.09  12
  -2   0  -5 80271.9 4180.80   3
  -3   0  -5 96690.8 4824.69   7
   3   0   5 87141.7 3017.57  11
   3   0   5 111617. 7935.96   8
   3   0  -5 105477. 6825.32   7
  -3   0   5 101577. 10077.9   2
  -3   0   5 77240.0 2838.29  12
  -3   0  -5 117000. 9154.94  13
  -3   0   5 96429.1 8288.21   8
  -3   0  -5 97400.1 4949.35   3
   4   0   5 2150.59 977.108   8
  -4   0   5 1294.25 416.844  12
   4   0  -5 2016.14 486.059  12
  -4   0  -5 2148.44 824.497   3
  -4   0  -5 2428.33 1614.44  13
  -4   0  -5 1585.27 579.481   7
   4   0  -5 2262.91 1142.28   7
  -4   0   5 823.993 948.073   8
  -4   0   5 3573.99 2322.93   2
   5   0  -5 64067.7 6096.66   7
  -5   0   5 54235.3 7481.61   2
  -5   0  -5 56005.2 3756.16   7
   5   0  -5 53731.3 2547.57  12
  -5   0   5 52246.1 6214.51   8
   5   0   5 68379.6 6049.49   8
  -5   0  -5 74830.4 9113.81  13
   6   0   5 7535.47 2061.30   8
   6   0  -5 5453.09 2129.85   7
  -6   0   5 6265.26 2486.79   2
   6   0  -5 5494.38 912.890  12
  -6   0  -5 5161.68 1172.27   7
   6   0   5 4666.26 1351.29  14
   6   0   5 5235.17 1759.82  15
  -6   0  -5 8969.01 3684.83  13
  -7   0   5 103930. 10303.6   2
   7   0   5 96399.2 7080.06  15
   7   0   5 99253.4 6165.42  14
   7   0  -5 99442.8 4309.65  12
   7   0  -5 113389. 9175.56   7
   7   0   5 122407. 8285.56   8
   8   0  -5 9901.21 1509.12  12
   8   0   5 9714.82 1936.59  14
   8   0   5 16350.0 3081.91   8
   8   0  -5 11304.4 3081.61   7
  -8   0   5 10153.1 3552.58   2
   8   0   5 8233.46 2236.31  15
   9   0   5 143905. 9008.59  15
  -9   0  -5 152096. 8972.57   4
   9   0   5 237820. 11534.1   8
   9   0   5 158144. 8284.72  14
   9   0  -5 157952. 11605.0   7
  -9   0  -5 256016. 20905.3  13
   9   0  -5 139482. 6030.67  12
  -9   0   5 160584. 12519.0   2
 -10   0  -5 7411.28 2127.90   4
 -10   0   5 9528.38 3321.16   2
  10   0  -5 6312.82 1405.82  12
  10   0   5 6343.67 2015.06  15
  10   0  -5 7728.27 2589.30   7
  10   0   5 12732.9 2920.46   8
 -10   0  -5 6422.14 1931.72  10
  10   0   5 7491.83 1962.92  14
  11   0  -5 97265.6 9525.47   7
  11   0   5 102415. 7352.83  14
  11   0  -5 89037.8 5567.10  12
 -11   0  -5 103973. 8125.97  10
  11   0   5 93856.5 7807.39  15
 -11   0   5 98599.3 9872.29   2
 -11   0  -5 94769.1 7798.83   4
 -12   0  -5 3500.22 1523.06   4
 -12   0  -5 10011.0 4620.62  13
  12   0  -5 3482.43 1943.13   7
 -12   0   5 4893.67 2386.25   2
  12   0  -5 3966.85 1288.65  12
 -12   0  -5 3552.91 1399.64  10
  12   0   5 4979.89 1861.67  15
  12   0   5 5255.31 1727.93  14
  13   0   5 26878.2 4052.25  14
  13   0   5 24283.0 4242.45  15
 -13   0   5 25204.4 4872.86   2
  13   0  -5 22854.3 4833.31   7
 -13   0  -5 23356.4 4123.60   4
  14   0  -5 1820.24 1535.75   7
  14   0   5 1886.52 1358.55  15
 -14   0   5 1438.53 1343.54   2
  14   0   5 1196.04 1112.41  14
 -14   0  -5 242.044 501.476   4
 -14   0  -5 3006.50 2499.28  13
  15   0   5 20045.8 4009.08  15
  15   0   5 24650.4 4221.92  14
 -15   0   5 18529.2 4053.71   2
  15   0  -5 19920.0 4672.79   7
 -15   0  -5 31735.2 8147.76  13
 -15   0  -5 19799.7 4179.40   4
  16   0  -5 10975.5 3561.77   7
 -16   0   5 8717.63 2744.42   2
 -16   0   5 8890.75 2915.87   1
 -16   0  -5 10881.5 3229.45   4
 -16   0  -5 15659.3 5586.67  13
  17   0  -5 37123.5 6471.18   7
 -17   0   5 34528.9 5861.50   1
 -17   0  -5 44472.0 6826.86   4
 -18   0   5 5765.29 3635.68   5
 -18   0   5 2438.77 1637.87   1
  18   0  -5 2640.22 1810.42   7
   0   0  -6 83977.5 4104.00   3
   0   0   6 95803.5 8904.35   8
   0   0  -6 93297.9 5040.17  13
   0   0  -6 93700.8 5894.96   7
  -1   0  -6 4166.49 1409.51  13
   1   0  -6 2591.24 648.806   3
  -1   0  -6 3366.31 1054.17   7
   1   0   6 3096.02 1247.60   8
   1   0  -6 2873.83 729.304  13
  -1   0  -6 2723.00 779.153   3
  -1   0   6 2955.61 1483.34   8
   1   0  -6 2906.01 1042.85   7
  -2   0  -6 64617.6 4487.52   7
   2   0   6 76981.0 7617.90   8
  -2   0   6 59293.1 2848.88  12
  -2   0  -6 62696.0 3933.18   3
  -2   0  -6 76617.1 6298.96  13
  -2   0   6 67652.9 7766.27   8
  -2   0   6 84818.0 9991.54   2
   2   0  -6 65579.9 5307.28   7
   3   0   6 2609.70 724.892   8
   3   0  -6 2805.71 1255.67   7
  -3   0  -6 2763.41 903.958   3
  -3   0   6 2051.34 484.298  12
  -3   0  -6 4430.88 1873.11  13
  -3   0  -6 3184.60 962.279   7
  -3   0   6 2463.81 1441.41   8
  -3   0   6 5703.27 3054.71   2
  -4   0  -6 72172.9 5120.38   3
  -4   0   6 72474.5 9244.26   2
  -4   0   6 59566.3 7389.98   8
   4   0   6 84412.2 7826.53   8
   4   0  -6 72728.7 6395.95   7
   4   0   6 65233.7 2798.98  11
  -4   0  -6 66560.4 4468.74   7
  -4   0  -6 78764.7 8262.73  13
   5   0   6 13742.1 2860.28   8
  -5   0  -6 14647.6 3843.08  13
  -5   0   6 10544.9 3668.83   2
  -5   0  -6 9967.99 1680.19   7
   5   0   6 9464.26 1029.60  11
  -5   0   6 7384.61 2769.89   8
   5   0  -6 9575.10 2502.73   7
  -6   0   6 129014. 12371.1   2
   6   0   6 121684. 7286.57  14
   6   0  -6 115777. 3934.05  12
  -6   0  -6 116319. 5956.08   7
   6   0  -6 135167. 9556.66   7
   6   0   6 160719. 10780.5   8
  -6   0  -6 164932. 13776.8  13
   7   0  -6 36074.6 5299.66   7
   7   0  -6 31263.6 2206.76  12
  -7   0  -6 47613.2 7642.25  13
  -7   0  -6 31063.2 3069.97   7
   7   0   6 30931.9 3603.22  14
  -7   0   6 35405.5 6482.66   2
   7   0   6 50811.4 5866.74   8
   7   0   6 30035.4 4427.52  15
   8   0   6 187719. 10916.7  15
   8   0  -6 207846. 13055.0   7
  -8   0   6 212546. 15741.9   2
  -8   0  -6 285507. 20307.4  13
   8   0   6 199845. 9516.80  14
   8   0   6 283413. 14434.7   8
   8   0  -6 185268. 6038.95  12
   9   0   6 6965.67 2259.48  15
   9   0   6 4414.91 1421.68  14
   9   0  -6 5232.42 2225.76   7
   9   0   6 9854.02 2578.87   8
  -9   0   6 6839.74 3075.22   2
  -9   0  -6 10663.4 4590.95  13
  10   0  -6 171185. 12636.9   7
  10   0   6 170027. 9312.70  14
 -10   0  -6 250562. 20481.6  13
 -10   0   6 158716. 13321.4   2
  10   0   6 280789. 14501.6   8
  10   0   6 145463. 10010.6  15
  11   0   6 34103.1 4959.09  15
  11   0   6 41707.9 4820.42  14
 -11   0   6 40885.3 6926.94   2
  11   0  -6 44282.6 6489.66   7
  12   0  -6 67349.2 8204.44   7
  12   0   6 61835.1 6929.46  15
 -12   0  -6 92119.9 13151.4  13
  12   0   6 66927.1 6384.78  14
 -12   0   6 68228.5 8635.33   2
 -13   0  -6 2831.91 2526.01  13
 -13   0   6 2124.95 1495.92   2
  13   0   6-55.2187 354.366  15
  13   0  -6 270.367 421.847   7
  13   0   6 733.272 955.772  14
 -14   0   6 28222.7 5344.80   2
 -14   0  -6 40027.5 9038.00  13
  14   0  -6 27447.7 5668.23   7
  14   0   6 26127.6 4752.62  15
 -15   0   6 3884.99 1959.99   2
  15   0   6 4688.93 2138.96  15
 -15   0  -6 5855.76 4113.03  13
  15   0  -6 2131.13 1549.59   7
  16   0  -6 18932.5 4660.53   7
  16   0   6 21526.6 4420.40  15
 -16   0   6 18279.2 4290.90   2
  17   0  -6 3700.74 2231.87   7
 -17   0   6 86.9289 639.527   1
   0   0  -7 709.836 525.292  13
   0   0  -7 193.527 240.108   3
   0   0   7 450.031 826.294   8
   0   0  -7 417.484 438.958   7
   1   0  -7 58321.7 5162.88   7
  -1   0  -7 55461.9 3732.58   3
   1   0  -7 56276.2 3523.33   3
  -1   0   7 56109.1 7574.72   8
  -1   0  -7 67262.2 5099.33  13
  -1   0  -7 58629.1 4842.48   7
   1   0   7 68916.4 8176.85   8
  -2   0  -7 12548.8 1866.54   3
  -2   0  -7 12870.3 2125.64   7
   2   0  -7 12313.9 1631.11   3
   2   0  -7 12538.6 2469.19   7
  -2   0   7 10711.4 3331.84   8
   2   0   7 19352.6 4609.52   8
  -2   0  -7 15413.5 2781.97  13
  -3   0  -7 183499. 10761.6  13
  -3   0  -7 151431. 7057.07   3
   3   0  -7 144912. 8854.93   7
  -3   0  -7 137232. 6968.80   7
  -3   0   7 141075. 12003.9   8
   3   0   7 199167. 13580.9   8
  -3   0   7 186937. 15486.7   2
  -4   0   7 54686.7 7681.11   8
   4   0   7 85623.1 8911.52   8
   4   0  -7 60940.1 6076.75   7
  -4   0  -7 69926.8 5280.33   3
  -4   0  -7 75399.5 7582.55  13
  -4   0  -7 59174.8 4504.56   7
  -4   0   7 72112.3 9654.75   2
  -5   0   7 104562. 11645.1   2
   5   0  -7 101746. 8274.69   7
  -5   0  -7 121256. 10582.9  13
  -5   0  -7 93881.2 5745.33   7
  -5   0   7 87886.9 9544.48   8
  -6   0   7 2065.42 1917.54   2
  -6   0  -7 1747.58 835.881   7
   6   0  -7 1652.48 1221.96   7
   6   0   7 790.397 319.258   8
  -6   0  -7 4020.93 2472.69  13
  -7   0  -7 97515.5 10879.0  13
   7   0   7 74120.9 6110.20  14
  -7   0   7 88371.7 11036.0   2
  -7   0  -7 75531.5 5166.66   7
   7   0   7 75265.1 7593.43  15
   7   0  -7 79933.5 8137.53   7
   8   0   7 14049.0 3589.18   8
   8   0   7 6936.22 1869.84  14
  -8   0   7 10630.6 3970.24   2
   8   0   7 8971.68 2630.54  15
  -8   0  -7 12751.6 3973.24  13
   8   0  -7 9485.98 3021.61   7
   9   0   7 69205.4 7355.78  15
   9   0  -7 74556.8 8307.04   7
   9   0   7 77693.1 6483.49  14
  -9   0  -7 101559. 12225.7  13
  -9   0   7 81148.5 10240.5   2
 -10   0   7 6780.59 3197.39   2
 -10   0  -7 11517.7 4137.14  13
  10   0   7 8733.16 2280.32  14
  10   0   7 7212.87 2325.63  15
  10   0  -7 5982.02 2504.85   7
  11   0   7 47122.6 6201.55  15
 -11   0  -7 69897.0 10823.4  13
  11   0  -7 48375.9 6949.19   7
  11   0   7 54719.0 5753.70  14
 -11   0   7 55499.5 8411.72   2
  12   0   7-483.928 648.244  15
 -12   0   7 3849.31 2758.90   2
  12   0  -7 269.639 1208.60   7
 -12   0  -7 2274.22 2763.54  13
 -13   0  -7 64146.6 10998.4  13
  13   0   7 39469.0 6049.06  15
  13   0  -7 42021.2 6662.07   7
 -13   0   7 42368.4 7223.29   2
  14   0  -7 15560.9 4194.20   7
 -14   0  -7 28474.6 7626.53  13
 -14   0   7 19129.8 4882.72   2
  14   0   7 17071.4 3909.09  15
  15   0  -7 37876.5 6837.80   7
 -15   0   7 38071.7 6728.12   2
  15   0   7 42039.4 6478.72  15
 -16   0   7 3379.52 1980.04   2
  16   0   7 5157.31 2466.01  15
  16   0  -7 3337.01 1943.30   7
   0   0  -8 44925.8 3415.93  13
   0   0  -8 54257.6 5173.22   7
   0   0  -8 51697.9 3705.16   3
   1   0  -8 10613.0 1625.35   3
  -1   0   8 8955.06 3418.37   8
  -1   0  -8 13110.2 2248.45  13
   1   0   8 26530.7 6690.43   2
   1   0  -8 12510.5 2616.54   7
  -1   0  -8 10941.4 2230.20   7
  -1   0   8 27235.6 6330.62   2
  -1   0  -8 10208.9 1751.72   3
   1   0   8 13907.7 4491.98   8
  -2   0   8 207450. 17059.1   2
  -2   0   8 140013. 12841.0   8
   2   0   8 196654. 14810.0   8
  -2   0  -8 137205. 6643.87   3
   2   0  -8 124727. 5630.87   3
   2   0  -8 133481. 8691.63   7
  -2   0  -8 159210. 8853.68  13
  -2   0  -8 132452. 7548.86   7
  -3   0  -8 1356.95 944.494   3
   3   0   8 6801.66 4137.68   2
  -3   0   8 6122.88 3769.45   2
   3   0   8 3867.49 2830.30   8
  -3   0  -8 1856.05 982.683   7
   3   0  -8 1671.63 1217.81   7
  -3   0   8 2282.74 1928.15   8
  -3   0  -8 6581.58 2433.41  13
   3   0  -8 631.632 514.018   3
  -4   0   8 203333. 15367.0   8
  -4   0  -8 219029. 9946.91   3
  -4   0  -8 198129. 8981.35   7
  -4   0   8 265588. 19314.4   2
   4   0  -8 202419. 11444.0   7
  -4   0  -8 253463. 13710.4  13
   4   0   8 308711. 18417.3   8
  -5   0   8 13195.8 4032.84   8
   5   0  -8 13750.9 3312.04   7
  -5   0  -8 22483.9 4618.10  13
   5   0   8 23795.3 5549.68   8
  -5   0   8 18672.3 5741.90   2
  -5   0  -8 14383.7 2427.76   7
  -6   0   8 65099.1 9763.86   2
   6   0  -8 56756.3 6719.19   7
  -6   0  -8 56122.8 4726.60   7
  -6   0  -8 72486.9 8513.62  13
   7   0   8 609.141 229.269  14
  -7   0  -8 3473.49 2658.56  13
   7   0  -8 2227.42 1610.09   7
   7   0   8 1843.51 1491.16  15
  -7   0  -8 1480.13 699.943   7
  -7   0   8 2369.16 2259.84   2
   7   0   8 4349.21 2255.80   8
   8   0   8 8436.57 2873.91  15
   8   0   8 10512.6 2622.95  14
  -8   0  -8 13573.8 4127.80  13
   8   0   8 19370.3 4773.37   8
  -8   0  -8 9641.05 1929.63   7
  -8   0   8 14568.8 4575.32   2
   8   0  -8 10897.2 3359.53   7
  -9   0   8 120.361 1256.50   2
   9   0   8-248.599 723.816  14
  -9   0  -8-202.315 808.093  13
   9   0  -8 1671.21 1681.71   7
   9   0   8 1125.29 1491.17  15
   9   0   8 1590.21 1954.71   8
 -10   0  -8 22557.4 6199.47  13
  10   0   8 11980.7 3407.70  15
  10   0  -8 13997.6 4010.92   7
 -10   0   8 15241.7 4523.93   2
 -11   0  -8 3816.99 2573.02  13
  11   0  -8 4589.27 2560.03   7
  11   0   8 1982.67 1175.51  15
 -11   0   8 1955.03 1586.20   2
 -12   0   8 22140.0 5632.59   2
  12   0   8 16888.3 4102.33  15
  12   0  -8 20773.2 4855.21   7
 -12   0  -8 25240.2 6687.08  13
 -13   0   8 7034.80 3471.41   2
 -13   0  -8 8456.67 4297.75  13
  13   0  -8 5999.17 2813.74   7
  13   0   8 2276.74 1748.72  15
 -14   0  -8 88192.2 13413.1  13
  14   0   8 60997.4 8006.21  15
  14   0  -8 62572.6 8728.21   7
 -14   0   8 61565.2 9064.11   2
 -15   0   8 4024.08 2398.71   2
  15   0   8 3283.62 2218.58  15
  16   0   8 52528.6 7669.07  15
   0   0   9 4091.13 3275.62   2
   0   0   9 993.285 110.626   8
   0   0  -9 1220.95 866.589   7
  -1   0   9 99419.8 12220.8   2
  -1   0  -9 55750.2 5363.97   7
  -1   0   9 63223.9 8975.26   8
   1   0  -9 55236.0 5784.55   7
   1   0   9 78731.6 9829.83   8
   1   0   9 109647. 12692.7   2
  -2   0   9 25161.9 6050.88   8
   2   0  -9 25244.5 4097.16   7
  -2   0  -9 29835.2 3749.16  13
   2   0   9 40888.9 7230.67   8
  -2   0   9 44882.2 8406.79   2
  -2   0  -9 24967.1 3528.83   7
  -3   0   9 184914. 16769.1   2
  -3   0  -9 147005. 8076.50   3
   3   0  -9 123892. 9285.47   7
  -3   0  -9 148318. 9260.94  13
   3   0   9 191196. 15592.3   8
  -3   0   9 133936. 13178.9   8
  -3   0  -9 123729. 7656.97   7
  -4   0  -9 11218.1 2273.03   7
  -4   0   9 9311.47 3530.12   8
  -4   0   9 17615.3 5404.70   2
   4   0   9 18117.5 5052.38   8
   4   0  -9 11719.5 2958.56   7
  -4   0  -9 18838.4 3916.26  13
   5   0  -9 53836.7 6452.64   7
  -5   0   9 77961.7 11049.3   2
  -5   0  -9 68257.0 7552.39  13
  -5   0  -9 62311.0 5289.76   7
  -6   0   9 1487.37 1635.52   2
   6   0   9 2870.94 2353.45   8
   6   0  -9 835.755 954.103   7
  -6   0  -9 727.924 703.657   7
  -6   0  -9 1622.78 1109.45  13
   7   0   9 26454.6 5356.38  15
   7   0   9 47809.6 8208.90   8
  -7   0  -9 26655.2 3396.80   7
   7   0   9 25833.7 4348.90  14
  -7   0   9 29675.5 6760.10   2
  -7   0  -9 33767.9 6048.34  13
   7   0  -9 27518.7 4942.47   7
   8   0   9 1428.21 798.417  15
  -8   0   9 1313.03 1730.76   2
   8   0  -9 1642.73 1551.51   7
   8   0   9 2495.97 2215.29   8
  -8   0  -9 3425.91 2472.41  13
  -9   0  -9 67191.2 9721.73  13
   9   0   9 53369.5 7453.08  15
  -9   0   9 61535.3 9734.66   2
   9   0  -9 53252.7 7504.94   7
 -10   0  -9 765.188 1157.52  13
 -10   0   9 2576.40 2145.75   2
  10   0   9 1084.77 1124.86  15
  10   0  -9 2065.06 1746.40   7
 -11   0   9 37828.1 7890.04   2
  11   0   9 33608.9 5962.76  15
 -11   0  -9 46582.4 8648.65  13
  11   0  -9 32231.3 6110.79   7
  12   0  -9 4363.50 2509.90   7
 -12   0   9 3338.98 3038.91   2
  12   0   9-300.718 1171.42  15
 -12   0  -9 6362.27 3898.60  13
 -13   0  -9 36661.7 8535.00  13
  13   0  -9 21742.7 5240.04   7
  13   0   9 24823.1 5377.98  15
 -13   0   9 23963.1 6052.29   2
  14   0   9 1466.06 1792.77  15
   0   0 -10 16861.1 3238.31   7
   0   0  10 21195.9 5477.67   8
  -1   0 -10 8476.18 2299.50   7
   1   0  10 11299.6 4042.55   8
   1   0  10 23321.2 6319.00   2
  -1   0  10 20129.1 6047.70   2
   1   0 -10 8806.66 2463.01   7
  -1   0  10 10510.0 3648.22   8
   2   0  10 69150.9 10065.0   8
  -2   0 -10 47785.5 5188.61   7
   2   0 -10 48141.6 5899.03   7
  -2   0  10 47335.0 8739.60   8
  -3   0  10 4147.55 1968.93   8
  -3   0  10 9086.03 4093.70   2
   3   0  10 15925.6 5162.75   2
   3   0  10 11821.2 4227.02   8
   3   0 -10 4775.18 1850.01   7
  -3   0 -10 6873.05 1904.13   7
   4   0  10 53289.9 9098.59   8
   4   0 -10 36955.0 5588.21   7
  -4   0 -10 40991.1 5139.53  13
  -4   0 -10 37983.9 4446.22   7
  -4   0  10 55282.5 9406.19   2
   5   0  10 2566.14 2205.51   8
   5   0 -10-395.887 936.761   7
  -5   0  10 2367.18 1408.93   2
  -5   0 -10 2575.82 1478.14  13
  -5   0 -10 1749.65 916.895   7
   6   0 -10 19087.9 4091.38   7
  -6   0  10 26943.4 6488.40   2
   6   0  10 32444.3 7133.37   8
  -6   0 -10 23430.0 4634.13  13
  -7   0  10 301.825 1171.94   2
   7   0  10 1800.35 2036.85   8
  -7   0 -10 2395.17 2044.82  13
   7   0 -10 1615.93 1198.40   7
   7   0  10 2888.67 2083.74  15
   8   0  10 99970.8 10882.3  15
  -8   0  10 117107. 14066.1   2
  -8   0 -10 129640. 12521.5  13
   8   0 -10 104687. 10268.4   7
  -9   0 -10 6295.95 3241.25  13
  -9   0  10 1372.09 1877.73   2
   9   0 -10 2027.44 1814.52   7
   9   0  10 3186.27 2398.08  15
 -10   0 -10 146873. 14372.0  13
 -10   0  10 123391. 14343.0   2
  10   0 -10 105912. 10936.1   7
  10   0  10 109651. 11359.9  15
 -11   0 -10 4578.38 3177.23  13
  11   0 -10 1807.48 1859.33   7
  11   0  10 1995.61 2010.48  15
 -11   0  10 1117.16 2657.23   2
 -12   0 -10 32684.1 7392.88  13
  12   0  10 22160.6 5149.34  15
   0   0 -11 1023.12 1078.54   7
   0   0  11-2031.23 2312.07   8
  -1   0  11 71181.5 10912.3   2
   1   0  11 86259.4 11792.5   2
   1   0  11 53185.5 9349.63   8
   1   0 -11 40727.4 5520.43   7
  -1   0  11 40344.8 8316.44   8
  -1   0 -11 38533.2 5137.64   7
  -2   0 -11 9975.91 2488.52   7
  -2   0  11 18678.0 5627.07   2
  -2   0  11 6825.32 3201.18   8
   2   0 -11 11642.6 2994.62   7
   2   0  11 11444.1 4147.12   8
   3   0  11 103769. 13018.1   2
  -3   0  11 83103.6 11849.5   2
  -3   0 -11 46886.5 5401.63   7
   3   0 -11 44919.0 6174.31   7
   3   0  11 75201.1 11089.7   8
  -4   0  11 17308.8 5430.46   2
  -4   0 -11 8775.98 2234.54   7
   4   0 -11 8232.39 2530.02   7
   4   0  11 14295.8 4842.23   8
   5   0 -11 16584.6 4009.65   7
  -5   0  11 31107.1 7245.80   2
   5   0  11 29052.9 6840.97   8
   6   0  11 722.749 913.143   8
   6   0 -11-565.581 784.746   7
  -6   0  11 1097.07 1567.34   2
  -7   0  11 32921.4 7702.41   2
   7   0  11 23197.6 5690.39  15
   7   0 -11 26913.9 5277.60   7
  -8   0  11 902.112 1357.04   2
   8   0 -11 2446.54 1682.56   7
   8   0  11 1501.33 1915.48  15
  -8   0 -11 2499.08 2160.90  13
   9   0  11 82408.8 10670.5  15
  -9   0 -11 92154.2 10582.3  13
 -10   0 -11 4229.49 2994.11  13
   0   0  12 39178.7 8212.41   8
   0   0 -12 31768.9 4932.63   7
   1   0  12 2882.98 1384.09   8
   1   0  12 6447.54 3785.35   2
  -1   0 -12 2629.59 1450.14   7
   1   0 -12 2768.99 1552.11   7
  -1   0  12 8314.82 4075.23   2
   2   0 -12 65329.8 7488.13   7
  -2   0  12 113136. 14097.0   2
   2   0  12 142102. 15321.9   2
  -2   0 -12 62567.0 6676.67   7
   2   0  12 97195.7 12970.1   8
   3   0  12 7919.23 3715.81   8
   3   0 -12 5158.57 2477.74   7
  -3   0  12 9083.02 4212.92   2
   4   0 -12 45575.6 6694.98   7
  -4   0  12 74333.2 11668.6   2
   4   0  12 72455.3 11460.0   8
   5   0  12 1203.91 643.357   8
  -5   0  12-307.065 126.642   2
   5   0 -12-1014.11 1513.70   7
   6   0 -12 5632.52 2347.25   7
   6   0  12 10957.2 3891.40   8
   7   0  12 234.245 1438.92   8
   0   0  13-831.140 940.960   2
   0   0 -13 147.015 405.518   7
   1   0 -13 12544.2 3440.08   7
   1   0  13 22614.5 6002.13   2
   2   0 -13 1126.12 1218.31   7
  -1   1   0 319.188 171.538  12
  -1  -1   0 411.176 201.275   5
  -1  -1   0 111.526 95.3225  14
   1   1   0 293.231 119.031   7
   1   1   0 246.050 126.273   3
   1   1   0 252.331 156.164  11
  -1   1   0 307.257 184.484   1
   1  -1   0 231.719 146.189  10
   1   1   0 267.241 154.741  12
   1  -1   0 364.280 190.754   6
   2   1   0 1310.91 388.242   3
  -2   1   0 1291.21 411.570   1
  -2   1   0 1191.37 342.276   4
   2   1   0 1612.12 404.714  11
   2  -1   0 1202.03 336.597   4
   2  -1   0 2117.12 469.963   1
  -2  -1   0 1481.12 297.394   7
  -2   1   0 1481.67 374.874  14
  -2  -1   0 1440.45 365.159   5
  -2  -1   0 1104.59 370.227  14
   2  -1   0 1593.55 510.669  13
   2   1   0 1316.06 390.107   5
   2   1   0 1458.41 290.237   7
   2  -1   0 1073.02 371.390  10
  -2   1   0 1396.74 387.595  10
   2  -1   0 1857.97 492.289  12
  -2  -1   0 1241.45 438.562  15
  -2  -1   0 1601.02 410.540   3
  -2   1   0 1837.99 506.604  12
   2  -1   0 1273.17 344.715   9
   2   1   0 1271.40 396.210  14
  -3  -1   0 228.757 163.141  14
   3  -1   0 206.124 90.1397   9
  -3   1   0 94.6349 124.366   1
  -3   1   0 216.867 218.474   4
   3  -1   0 416.471 318.859  10
   3   1   0 197.883 144.464  14
  -3  -1   0 447.166 261.766   5
   3   1   0 310.115 214.252   5
  -3  -1   0 122.313 205.063  15
   3  -1   0 465.508 323.666  14
  -3  -1   0 362.107 294.640   3
  -3   1   0 75.4314 62.3536  15
   3   1   0 569.898 303.347   3
  -3   1   0 886.001 539.452  13
  -3   1   0 280.967 337.866  12
  -3   1   0 262.449 201.805  14
   3  -1   0 969.319 743.131  13
   3  -1   0 433.182 400.839  12
   3  -1   0 109.171 130.074   1
  -3   1   0 517.221 331.924  10
   3   1   0 858.333 360.117   7
   3  -1   0 369.791 231.280   2
  -4   1   0 164247. 7676.45  13
  -4  -1   0 211817. 4786.04   1
  -4   1   0 197929. 4379.72  15
   4  -1   0 182092. 7958.51  13
  -4  -1   0 202784. 5804.78   5
   4  -1   0 217637. 5508.64   2
  -4   1   0 201176. 6310.35   1
   4  -1   0 214505. 6831.06  14
  -4   1   0 213608. 6513.64   4
   4  -1   0 208542. 5155.20   9
  -4   1   0 213914. 6115.20  10
   4   1   0 217863. 6439.88   7
  -4   1   0 197754. 6008.02  14
   4  -1   0 232677. 8118.15  12
   4   1   0 201943. 6541.72  14
   5  -1   0 345.915 219.043   9
  -5   1   0 90.0982 139.373   4
  -5   1   0 243.252 289.991  10
  -5  -1   0 217.387 243.772   1
   5   1   0 196.895 272.951  14
  -5   1   0 227.377 198.563  15
  -5  -1   0 191.023 115.921  10
   5  -1   0 458.708 372.083  14
   5  -1   0 340.513 389.349  12
   5  -1   0 0.41575 44.6661   2
  -5  -1   0 160.670 263.753   5
  -5   1   0 448.382 500.209   1
  -6  -1   0 1878.90 539.166   1
  -6   1   0 709.955 655.500  13
  -6  -1   0 1830.41 753.929   5
  -6   1   0 1610.11 745.658   1
  -6  -1   0 2096.57 551.281   2
  -6   1   0 1697.17 513.443  15
  -6   1   0 1718.54 695.254  10
  -6   1   0 1909.97 757.666   4
   6   1   0 1720.65 643.858  14
   6  -1   0 2020.89 781.757  14
   6  -1   0 1928.15 745.650  12
  -6  -1   0 1535.80 330.832  10
  -6  -1   0 3132.13 2165.67  13
   7   1   0 347.308 177.430  14
  -7   1   0 9.68806 305.475   4
  -7   1   0 124.809 364.698   1
  -7  -1   0 523.173 457.131   2
  -7   1   0 463.594 428.698  10
  -7  -1   0 384.529 217.101  10
  -7   1   0-1104.50 1578.89  13
  -7  -1   0 150.751 295.682   5
  -7   1   0 180.462 183.706  15
   7  -1   0 242.996 130.136  12
  -7  -1   0 221.453 301.872   1
   7  -1   0 523.113 487.812  14
  -7  -1   0-807.035 1622.24  13
  -8   1   0 28083.1 3178.02   1
  -8   1   0 24698.2 3451.46   4
  -8  -1   0 22186.6 1623.38  10
  -8  -1   0 25303.9 3059.99   5
   8  -1   0 29486.2 4239.80  12
   8  -1   0 26419.5 3367.14  14
  -8  -1   0 28329.2 2740.32   1
  -8   1   0 25591.1 2739.65  10
  -8  -1   0 15863.7 4687.68  13
  -8  -1   0 29474.0 2441.39   2
   8   1   0 25512.7 3203.09  14
   9   1   0-8.56049 168.209  14
   9  -1   0-379.533 762.574  12
  -9  -1   0 323.942 264.846   2
  -9  -1   0 203.687 339.406   1
  -9  -1   0 312.097 337.279   5
  -9   1   0 246.175 105.097   4
  -9   1   0-214.719 236.051  10
   9  -1   0-104.324 591.830  14
  -9   1   0 83.4437 209.763   1
  -9  -1   0 77.0614 65.9375  10
  -9  -1   0-720.903 2228.72  13
 -10   1   0 3838.21 1720.22  13
  10  -1   0 15941.4 3424.34  12
  10  -1   0 13691.8 2658.20  14
 -10  -1   0 10590.8 1315.73  10
  10   1   0 12921.4 2568.63  14
 -10   1   0 12316.2 2330.99   1
 -10  -1   0 10976.7 2218.16   5
 -10  -1   0 11193.1 4447.15  13
 -10   1   0 12983.8 2879.74   4
 -10  -1   0 13667.7 2192.65   1
 -10  -1   0 12092.1 1533.30   2
 -10   1   0 11996.8 1981.28  10
 -11   1   0 163.410 356.859  10
  11  -1   0 904.077 1104.37  12
 -11  -1   0 353.592 494.841   5
 -11  -1   0 381.492 249.538  10
  11   1   0 466.248 607.245  14
 -11   1   0-2154.06 2449.88  13
 -11   1   0 443.250 496.501   1
 -11  -1   0 2836.13 1799.32  13
 -11  -1   0 279.891 309.344   2
 -11  -1   0 131.184 89.0303   1
  11  -1   0 209.738 483.506  14
 -11   1   0 764.885 1046.35   4
 -12  -1   0 1131.09 650.542   1
 -12  -1   0 757.162 491.095   5
 -12  -1   0 1293.37 2028.01  13
  12  -1   0 1448.99 644.340  14
 -12   1   0 1034.31 574.961  10
 -12   1   0-826.372 2034.75  13
 -12   1   0 1095.90 568.962   1
 -12  -1   0 947.952 476.793  10
 -12   1   0 2664.25 1675.97   4
  12  -1   0 2379.23 1460.50  12
  12   1   0 917.704 716.325  14
 -13   1   0-1488.11 1891.50  13
 -13   1   0 1853.73 1651.16   4
 -13   1   0-89.6799 560.525   1
  13   1   0 424.227 682.605  14
 -13  -1   0-276.333 522.527   5
 -13   1   0 59.4340 555.371  10
  13  -1   0 922.515 833.668  14
 -13  -1   0 50.4362 209.523   1
  13  -1   0 676.123 1065.21  12
 -14   1   0 32872.2 3863.22  10
  14  -1   0 43195.2 5970.17  14
 -14   1   0 42376.8 7868.74  13
 -14   1   0 42437.1 6221.61   4
  14  -1   0 43571.0 6126.98  12
 -14  -1   0 52012.1 9212.77  13
 -14   1   0 36473.7 4903.34   1
  14   1   0 40885.7 5609.95  14
 -14  -1   0 38902.4 4547.10   1
 -14  -1   0 36138.1 4646.61   5
  15   1   0 293.861 640.631  14
 -15   1   0-136.302 243.132   1
  15   1   0 1143.99 1229.68   7
 -15  -1   0-2.64839 278.327   1
 -15   1   0 1443.84 2036.98  13
  15  -1   0 1127.28 1055.06  14
 -15  -1   0 3161.93 2557.59  13
  15  -1   0 645.127 1216.75  12
 -15  -1   0-41.7977 400.751   5
 -15   1   0 1544.34 1762.03   4
 -16  -1   0 6985.37 2080.45   1
 -16   1   0 8377.77 2420.83   1
  16  -1   0 9964.37 3138.55  14
  16  -1   0 10588.5 3191.80  12
 -16   1   0 9356.76 3271.01   4
 -16  -1   0 10003.6 4179.55  13
 -16   1   0 10681.9 3904.86  13
  16   1   0 8336.20 2801.60  14
 -17   1   0 5679.35 3618.14  13
  17   1   0-443.003 712.034  14
 -17   1   0 402.515 1252.29   4
  17  -1   0-244.000 860.798  14
 -17  -1   0 2587.09 2490.98  13
  17  -1   0 257.899 588.399  12
 -17  -1   0 111.163 503.019   1
 -17   1   0 379.688 373.603   1
  17   1   0 3435.20 2248.42  12
  18   1   0 3525.19 2325.69  12
 -18   1   0 142.823 869.628   4
 -18  -1   0 3340.86 2598.10  13
 -18   1   0 6042.42 3387.18  13
  18   1   0-101.740 450.783  14
 -18   1   0 433.825 1009.02   1
 -18  -1   0 1598.91 1410.49   4
  18  -1   0 225.872 190.069  12
  18  -1   0-162.143 312.110  14
  19  -1   0-71.8822 1264.81  14
 -19  -1   0 3398.70 2591.60  13
  19   1   0 697.453 1185.27  14
  19  -1   0 192.821 930.099  12
 -19   1   0-426.455 82.1934   4
 -19  -1   0 1859.62 1787.98   4
 -19   1   0-828.291 1056.81   1
  19   1   0 2276.97 1564.53  12
 -19   1   0 2495.42 2549.42  13
  20  -1   0 466.284 675.072  14
   0   1   1 1161.71 352.538  15
   0   1  -1 1280.91 283.585  12
   0  -1   1 1038.28 340.333   6
   0  -1   1 1123.59 295.064   5
   0  -1  -1 1067.49 313.962  12
   0  -1   1 1256.85 260.820  12
   0  -1  -1 1245.60 403.360   2
   0  -1   1 1254.70 393.541  10
   0   1  -1 1396.61 382.865   6
   0   1   1 1474.06 424.552   2
   0   1  -1 1386.20 368.694   5
   0  -1   1 1326.32 363.907   7
   0   1   1 975.472 311.915  12
   0   1  -1 1147.07 322.152  10
   0   1  -1 1286.49 348.576   7
   1   1  -1 1592.93 392.223  11
  -1  -1   1 1272.18 233.211  12
   1  -1   1 1413.80 286.052   5
   1  -1   1 2480.38 514.422  12
   1  -1  -1 1531.17 503.121   2
  -1  -1   1 1488.91 345.361  11
  -1  -1  -1 1832.38 357.710   2
   1   1  -1 1378.46 479.960   5
   1   1   1 1757.33 492.751  15
  -1  -1   1 1498.19 388.861  10
  -1  -1   1 1828.04 483.109   5
   1  -1   1 1486.62 468.589  10
  -1  -1   1 1543.97 247.658   3
  -1  -1  -1 1468.18 385.705   3
  -1   1   1 1506.64 402.089  12
  -1   1  -1 1825.19 456.911  10
  -1   1  -1 1368.59 410.772   7
  -1   1  -1 1432.91 320.979   5
   1  -1   1 1820.80 528.010  13
   1   1   1 1563.10 413.808   3
  -1  -1   1 1729.91 413.910  14
   1   1   1 1898.22 468.639  12
  -1   1  -1 2087.31 524.348  12
   1   1  -1 1440.66 369.801  14
  -1  -1   1 1552.10 411.040   7
  -1  -1  -1 1561.53 467.604  15
   1   1  -1 1092.49 317.931  10
  -1  -1  -1 1235.39 200.852  11
   1   1  -1 1485.35 405.516   7
   1  -1  -1 1644.88 455.389  12
  -1   1   1 1861.76 512.151   2
   1  -1   1 1720.20 437.607   7
   1   1  -1 952.429 203.683  12
   1   1   1 1141.72 294.872   5
   2  -1   1 11916.6 1616.85  13
  -2  -1   1 9237.69 1061.84   7
  -2   1  -1 9518.13 1167.75   1
  -2   1   1 9577.95 1173.48   9
   2   1   1 7684.24 1108.69  15
   2  -1  -1 8952.03 1236.20   2
   2  -1   1 9345.65 1063.88   4
   2  -1   1 9718.95 1095.90   7
  -2  -1   1 8118.09 1271.63   5
   2   1   1 9385.15 751.480  11
  -2   1   1 9599.83 1263.36   2
   2   1  -1 8708.50 905.732   3
  -2  -1   1 5920.04 770.513  10
   2  -1   1 11657.8 1468.38  12
   2   1   1 8713.89 1038.12   3
   2   1  -1 9160.09 1074.07   7
  -2  -1  -1 8594.97 632.085   2
  -2   1  -1 8395.87 1024.73   7
  -2   1  -1 9846.73 1135.09  10
   2   1  -1 8604.50 1093.14  11
   2  -1   1 8487.83 1097.81   1
  -2  -1   1 7353.99 1069.60  14
   2  -1  -1 8701.96 717.112   6
   2   1   1 9084.32 862.740   5
   2   1  -1 7941.15 1052.62  14
  -2   1  -1 8690.28 711.852   5
  -2  -1  -1 8464.24 822.956   5
   2  -1  -1 8692.47 1053.15  12
  -2   1  -1 11552.6 1586.86  13
   2  -1   1 8943.67 1113.80  10
  -2   1   1 8624.07 1011.76  12
   2   1   1 8208.33 1126.32  14
  -2  -1  -1 7747.17 1102.06  15
  -2  -1  -1 8828.19 1012.08   3
   3   1   1 7257.79 743.808   1
  -3   1  -1 8167.70 1154.33   1
   3  -1   1 9307.00 1618.59  12
  -3  -1  -1 6118.62 1058.67  15
   3  -1   1 8080.82 1683.71  13
  -3  -1  -1 6801.05 1107.31  14
   3  -1   1 7727.14 1060.65   7
  -3  -1   1 6248.33 1034.06   7
   3  -1  -1 7927.80 1137.12  12
  -3   1   1 5746.75 1107.69  14
   3  -1  -1 6944.26 1264.48   2
   3  -1   1 7309.65 818.029  14
   3  -1   1 7348.95 1094.47   1
  -3   1  -1 7561.58 1095.01   4
   3   1   1 5550.82 650.052  10
   3  -1   1 7637.74 1073.91  10
  -3   1  -1 7836.74 1073.13  10
  -3  -1   1 6173.18 828.735   8
   3   1  -1 6016.75 1036.70  14
   3   1  -1 7884.71 1232.06   7
  -3  -1  -1 7167.30 1068.91   3
  -3  -1   1 6712.30 1319.57   5
   3   1   1 7009.92 1065.07   3
   3   1   1 7347.50 804.742   5
  -3   1   1 6014.57 1192.71   2
  -3   1  -1 7691.38 1678.08  13
  -3   1  -1 5777.50 686.954  14
  -3   1   1 7126.00 1087.08   9
  -3   1   1 8172.33 1155.59  12
  -3  -1   1 5514.75 1078.64  14
   3   1   1 6548.40 1142.50  15
   3   1   1 6986.94 1107.71  14
   3  -1   1 7702.67 1069.83   4
   3   1  -1 6277.14 1054.38   3
   3  -1  -1 6372.73 992.761  13
  -3  -1  -1 7024.34 779.947   5
   4  -1  -1 72037.3 4008.90  12
  -4  -1   1 59861.0 3006.70   8
   4  -1  -1 67762.9 4365.93  14
  -4   1   1 67129.0 3967.52   2
  -4  -1  -1 69109.9 2770.61   1
  -4   1  -1 67653.2 3475.64  10
   4   1   1 70968.3 2782.67   1
  -4  -1  -1 68305.4 2709.20   5
   4   1   1 64344.3 3897.07  15
  -4   1   1 69233.9 3568.64   9
   4   1  -1 65566.5 3894.14  14
  -4   1  -1 63552.0 2798.16  14
   4   1   1 64330.3 2123.81  10
   4  -1  -1 59546.3 3969.88  13
  -4   1  -1 70857.6 5902.03  13
  -4  -1  -1 74613.4 4055.74   3
   4   1   1 75110.9 2944.25   5
   4   1  -1 77626.4 4510.43   7
  -4   1  -1 73575.3 3794.32   1
   4  -1   1 68750.3 3217.81  14
  -4   1   1 60754.8 3749.71  13
  -4  -1   1 71898.5 4976.62   5
  -4   1  -1 68212.8 3754.73   4
   4  -1   1 66657.7 2880.26  15
   4   1   1 67385.9 3766.34  14
  -5  -1  -1 16967.4 1554.70   1
  -5   1   1 9314.10 1837.78  13
   5  -1  -1 16650.6 2393.14  14
  -5   1   1 15207.9 2013.28   2
  -5  -1  -1 12013.2 1169.20  10
   5   1   1 16322.4 1536.11   1
  -5   1   1 15542.4 1765.54   9
  -5   1  -1 14136.0 1552.33  14
  -5  -1   1 12430.2 1550.77   8
  -5   1  -1 17544.0 1869.90  10
   5  -1   1 17004.2 1852.59  14
  -5   1  -1 9063.37 2558.04  13
   5   1   1 15369.1 1097.96  10
  -5  -1  -1 14401.8 1376.79   5
   5  -1  -1 6820.48 1455.98  13
  -5   1  -1 15817.7 1883.96   1
   5  -1  -1 16511.7 2201.35  12
   5   1   1 14585.7 2002.92  15
   5   1   1 15193.4 1975.29  14
   5   1  -1 15892.2 2123.49  14
  -5   1  -1 16838.6 2096.21   4
  -5  -1  -1 15584.0 3918.89  13
   5   1  -1 16908.6 2384.22   7
   5  -1   1 16398.6 1612.28  15
  -6   1   1 128.091 172.162   9
  -6  -1  -1 121.375 26.9296   5
  -6   1   1 844.870 845.834  13
   6   1  -1 216.821 91.6706   7
   6   1   1 372.709 425.737  15
   6   1  -1 95.5208 112.150   8
   6   1   1 221.128 190.149  10
   6  -1  -1 450.506 472.775  14
   6  -1   1 314.325 202.557  15
  -6   1  -1 138.109 278.741   4
   6  -1   1 166.672 181.706  14
  -6   1  -1 77.1539 106.628  10
  -6   1   1 273.739 305.944   2
  -6   1  -1 109.306 194.247  15
  -6   1  -1-388.291 1201.89  13
   6   1   1 230.592 218.637  14
  -6   1   1 271.623 134.992  10
   6   1  -1 146.270 138.545  14
  -6  -1  -1 256.472 317.707   1
  -6  -1  -1-1652.04 2052.99  13
  -6  -1  -1 69.9408 137.039  10
  -6   1  -1 315.088 350.783   1
   6  -1   1 194.218 172.382   2
   6  -1  -1 228.936 266.927  12
  -7   1  -1 29984.6 3386.99   4
   7   1   1 31266.0 1886.19  10
  -7  -1   1 24088.9 3003.41   2
  -7  -1   1 22725.5 4885.40  13
   7  -1   1 26808.2 2470.57  15
   7  -1  -1 30684.8 3686.34  12
  -7  -1  -1 30570.8 2535.59   1
  -7  -1   1 27738.6 1831.26  10
  -7   1  -1 27821.1 2719.73  10
   7   1  -1 28779.6 3354.19  14
  -7  -1  -1 15179.4 4428.43  13
  -7   1  -1 31033.2 3057.76   1
  -7   1   1 28725.1 3218.96   1
  -7   1   1 28361.7 2968.50   2
   7  -1   1 33787.7 3247.65  14
   7  -1  -1 29871.3 3667.07  14
  -7  -1  -1 24835.0 1872.58  10
  -7   1   1 17813.5 3203.26  13
  -7   1   1 25592.5 2795.82  10
   7   1   1 29331.0 3178.57  14
   7   1  -1 29607.0 3736.71   7
  -7   1   1 29681.8 2580.86   9
  -7  -1  -1 28476.2 2379.25   5
   7   1   1 26112.0 3021.54  15
  -8   1   1 28596.6 4541.04  13
  -8  -1  -1 37544.5 7861.71  13
  -8   1   1 50102.5 4080.06   2
  -8  -1   1 52305.8 4487.90   2
  -8   1  -1 51194.1 4948.78   4
  -8   1  -1 50990.6 3829.33  10
  -8  -1   1 29315.0 5920.12  13
  -8  -1  -1 40752.9 2567.20  10
  -8   1   1 48900.0 4397.44   1
  -8  -1  -1 47451.5 3295.77   5
  -8  -1   1 56570.6 5961.35   5
   8   1   1 52990.0 4632.26  14
   8  -1  -1 54209.8 5143.52  12
   8   1  -1 51467.9 4763.50  14
  -8   1   1 50064.0 3463.32   9
   8  -1   1 58936.0 4729.15  14
   8   1  -1 52638.9 5247.58   7
   8  -1  -1 54007.6 5233.67  14
  -8  -1  -1 50637.8 3543.78   1
   8  -1   1 47265.3 3554.82  15
  -8  -1   1 47511.5 2613.60  10
  -8   1  -1 53630.7 4298.23   1
  -8   1   1 47504.3 3883.05  10
  -9   1   1 3084.08 1069.13   2
   9  -1   1 4195.46 1314.65  14
  -9  -1  -1 2455.58 650.497  10
  -9   1   1-321.708 1274.65  13
   9   1  -1 264.563 532.851   8
  -9  -1  -1 3103.44 888.405   5
  -9  -1   1 2985.51 727.055  10
  -9  -1   1 3463.91 666.781   9
  -9  -1   1 3720.89 1299.25   2
  -9   1   1 3545.33 1245.88   1
  -9   1  -1-3719.17 3853.66  13
  -9  -1  -1 1431.26 898.026  13
  -9   1   1 3432.53 1098.36  10
  -9   1  -1 2731.87 1101.95   4
   9  -1  -1 2771.22 1294.90  12
   9   1  -1 2836.57 1356.51   7
  -9   1  -1 3981.89 1197.09   1
   9  -1  -1 2845.11 1271.47  14
   9   1  -1 2898.73 1218.77  14
  -9   1  -1 2797.71 956.367  10
  -9  -1  -1 3659.06 1037.91   1
   9   1   1 3684.93 1270.44  14
  -9  -1   1 2758.02 1207.87   5
  -9  -1   1-260.135 1234.58  13
  -9  -1   1 4009.75 1109.12   1
 -10  -1  -1 31537.2 3240.64   1
 -10   1  -1 16799.7 4429.68  13
 -10  -1   1 32492.0 3519.16   1
 -10   1   1 19680.8 4244.72  13
 -10   1   1 31176.0 3358.57  10
  10  -1  -1 35961.5 4719.54  14
  10  -1   1 37779.7 4339.85  14
  10  -1   1 46581.4 6372.19  12
  10   1  -1 14909.2 2406.39   8
 -10  -1  -1 40867.3 8502.72  13
  10   1  -1 31426.9 4511.07   7
 -10  -1   1 30572.9 6682.41  13
 -10  -1   1 32739.4 5015.55   5
 -10   1   1 30883.2 3870.07   1
 -10   1  -1 30761.9 3243.75  10
 -10   1   1 28833.5 3224.74   2
  10   1  -1 33328.8 4291.54  14
 -10   1  -1 34482.9 3862.67   1
 -10  -1   1 31717.8 2093.26   9
  10  -1  -1 32146.5 4470.16  12
 -10  -1  -1 30694.4 3040.87   5
 -10  -1   1 29417.6 2341.71  10
 -10   1  -1 28596.4 4201.75   4
 -10  -1  -1 25859.5 2319.43  10
  10   1   1 32425.7 3969.69  14
 -10  -1   1 32271.8 3441.91   2
 -11   1   1 29762.4 3989.53   1
 -11  -1  -1 39698.9 8360.49  13
 -11  -1   1 35292.9 7056.21  13
  11  -1   1 42153.4 6304.17  12
  11   1  -1 29528.1 4289.44  14
 -11   1  -1 25641.8 3103.58  10
 -11  -1  -1 22981.7 2328.22  10
 -11  -1  -1 25607.6 2936.72   5
 -11  -1   1 26988.1 3409.95   1
  11   1   1 27870.2 3914.06  14
  11  -1  -1 31342.1 4598.00  14
 -11   1  -1 30750.0 3825.53   1
  11   1  -1 27844.0 4370.21   7
 -11  -1   1 25433.4 2251.13  10
 -11  -1  -1 28569.3 3276.55   1
 -11   1   1 29090.5 3378.97  10
  11  -1  -1 31203.2 4566.45  12
 -11  -1   1 26424.2 3026.50   2
 -11   1  -1 26096.2 4302.53   4
 -11   1   1 20989.9 4569.78  13
 -11   1  -1 24012.3 5683.74  13
 -11  -1   1 29508.3 4803.82   5
  11  -1   1 33204.4 4304.98  14
 -12   1  -1 2649.78 1224.69  13
  12   1   1 4755.83 1717.47  14
 -12   1   1 4635.06 1624.60   1
 -12   1  -1 5257.86 2183.06   4
 -12  -1   1 5026.92 2085.34   5
 -12   1   1 5291.79 1460.50  10
 -12   1  -1 4337.67 1357.65  10
 -12  -1   1 4863.66 1313.98   2
 -12  -1  -1 2304.35 1022.91  13
 -12  -1   1 4797.25 1470.30   1
  12  -1   1 5732.07 1846.81  14
 -12  -1  -1 4804.61 1275.13   5
 -12  -1  -1 5408.99 1541.26   1
  12   1  -1 5033.18 1931.03  14
 -12  -1   1 2805.65 1675.45  13
  12  -1  -1 4954.06 1988.49  14
 -12   1   1 3422.77 1922.38  13
  12  -1  -1 5376.00 2122.74  12
  12  -1   1 8154.01 3125.90  12
 -12   1  -1 6231.28 1856.89   1
  12   1  -1 5666.44 2283.07   7
 -12  -1   1 3700.18 863.447  10
 -13  -1  -1 2019.15 1049.28   1
 -13   1   1 2088.90 1281.81   1
  13  -1  -1 2535.31 1301.64  12
 -13  -1   1 198.048 586.872  13
 -13   1   1 3735.21 2242.63   4
  13  -1  -1 1995.60 1241.10  14
  13  -1   1 3754.67 2387.11  12
 -13  -1  -1 531.638 1209.18  13
  13   1  -1 4456.68 2043.20   7
  13  -1   1 1612.33 810.234  14
 -13   1  -1-111.819 1724.97  13
 -13  -1   1 2249.77 833.035   2
 -13  -1   1 1878.74 1184.71   5
 -13   1   1 1196.17 766.318  10
 -13  -1  -1 2224.82 986.789   5
 -13   1  -1 1503.20 854.971  10
 -13   1  -1 3065.40 1401.75   1
  13   1   1 2300.13 1245.86  14
  13   1  -1 2888.32 1550.80  14
 -13  -1   1 2505.52 1160.63   1
 -13   1  -1 2526.52 1566.29   4
 -13   1   1 1944.87 1139.73  13
  14  -1   1 8090.19 2369.76  14
  14   1   1 8505.03 2597.83  14
  14   1  -1 8721.12 2640.06  14
 -14  -1   1 9302.36 2334.79   1
 -14  -1   1 11151.4 3857.76  13
 -14   1  -1 9462.06 3116.00   4
  14  -1   1 12427.9 3562.58  12
  14  -1  -1 9645.11 2843.38  14
 -14   1   1 10047.9 3450.79   4
 -14   1   1 8515.01 2442.98   1
 -14   1  -1 6747.70 1818.49  10
 -14  -1   1 8529.20 2635.37   5
 -14   1   1 5050.94 1503.13  10
 -14   1  -1 6317.10 2832.65  13
 -14   1  -1 7970.71 2205.69   1
 -14  -1  -1 7952.53 2012.55   1
  14   1  -1 9951.56 2907.28   7
 -14   1   1 10388.2 3827.63  13
  14  -1  -1 10009.6 2785.11  12
 -14  -1  -1 10070.8 3858.40  13
 -15   1   1 3446.80 1542.40   1
  15   1   1 4740.52 2111.55  14
 -15  -1  -1 4800.25 2931.28  13
  15   1  -1 5450.21 2116.28  14
 -15   1  -1 2935.78 2555.12  13
 -15  -1   1 4584.96 1587.70   1
 -15  -1   1 5494.40 2821.40  13
 -15   1  -1 4289.03 1979.04   1
 -15   1   1 6823.68 2847.60   4
 -15  -1  -1 4586.31 1594.35   1
 -15   1  -1 4460.75 2272.92   4
 -15   1   1 3978.31 2744.11  13
  15  -1   1 5142.38 2504.90  12
  15  -1   1 4199.90 1960.18  14
  15   1  -1 4383.44 2103.93   7
 -15  -1   1 2616.31 1419.36   5
  15  -1  -1 5250.36 2056.97  12
  15  -1  -1 4516.76 2211.58  14
 -16   1  -1 6725.89 2227.31   1
 -16  -1   1 7666.66 3440.67  13
  16   1  -1 10129.8 3172.27  12
 -16   1   1 6152.36 2092.85   1
 -16  -1  -1 5972.48 2615.27   4
 -16   1  -1 16039.5 5559.45  13
  16  -1  -1 6863.99 2326.12  12
  16  -1   1 10364.3 3424.24  12
  16  -1   1 9159.75 3032.65  14
 -16  -1   1 5299.59 1866.32   1
  16   1   1 6471.87 2420.32  14
 -16   1   1 7046.44 3266.96  13
 -16  -1  -1 9631.07 4008.05  13
 -16  -1  -1 6757.29 2104.48   1
 -16   1  -1 6639.44 2840.11   4
  16   1  -1 6183.72 2566.91  14
  16  -1  -1 6172.30 2510.08  14
 -16   1   1 7247.74 3164.82   4
 -16  -1   1 4620.44 1927.91   5
  17  -1   1 2998.87 1737.46  14
  17   1   1 3272.36 1817.65  14
  17  -1  -1 448.852 869.388  12
 -17   1  -1 344.333 657.545   4
 -17   1  -1 2947.34 1684.48   1
 -17   1  -1 5530.56 3515.39  13
  17   1  -1 4817.57 2343.38  12
 -17  -1   1 1957.37 1842.14  13
 -17  -1  -1 4644.37 3318.84  13
 -17   1   1 2954.85 1540.96   1
  17   1  -1 3158.62 1952.09  14
  17  -1   1 3420.68 2052.81  12
 -17  -1  -1 3952.66 2388.50   4
  17  -1  -1 2127.22 1748.54  14
 -17   1   1 2339.38 1863.71  13
 -17  -1   1 2058.34 1185.65   1
 -17   1   1 3652.14 2335.10   4
  18  -1  -1-1164.86 1673.53  12
  18  -1  -1-541.680 1554.07  14
  18  -1   1 548.147 901.515  12
 -18  -1  -1 5335.08 3476.98  13
 -18  -1  -1 2195.37 1569.15   4
  18   1  -1 1625.22 1290.25  12
 -18   1  -1 3224.43 3005.95  13
  18   1   1 76.9435 580.356  14
  18  -1   1 815.840 1392.00  14
 -18   1  -1 951.084 871.268   4
  18   1   1 3464.86 2578.49  12
  18   1  -1 1497.82 1100.83  14
 -18   1  -1 301.712 851.348   1
 -18   1   1 2298.50 2158.59   4
 -18   1   1 187.679 536.666   1
  19   1  -1 1182.13 1258.85  12
 -19   1   1 1589.64 1350.46   1
  19   1   1 3136.93 2495.19  12
 -19  -1   1 3600.20 2439.16   4
 -19   1   1 3609.19 2520.30   4
  19  -1   1 1343.29 1380.16  12
 -19   1  -1 1534.68 1339.64   1
  19   1  -1-99.5792 580.218  14
  19  -1  -1-646.906 1221.69  14
 -19   1  -1-788.683 1163.32   4
 -19  -1  -1 6120.05 3689.41  13
 -19   1  -1 4364.31 3383.03  13
  19   1   1 1203.49 903.875  14
  19  -1  -1-487.507 1407.60  12
  19  -1   1 575.086 1210.38  14
  20   1  -1 662.588 942.933  12
   0   1  -2 166.864 212.455   7
   0  -1   2 425.221 241.933   5
   0   1   2 298.290 221.979  12
   0  -1   2 543.505 322.905  10
   0  -1   2 550.417 299.505   7
   0  -1  -2 760.486 573.350   8
   0  -1  -2 469.378 243.861   7
   0  -1   2-74.1579 40.5548   6
   0  -1   2 141.863 175.270  11
   0  -1   2 312.210 244.865  14
   0  -1  -2 402.735 385.830   2
   0  -1   2 262.039 163.503  12
   0   1  -2 237.830 182.402  10
   0   1   2 1046.19 767.797   2
   0   1   2 202.321 105.384   4
   0  -1   2 251.772 283.908  13
   0  -1  -2 164.378 126.605  12
  -1   1  -2 21814.3 1769.67   7
   1   1  -2 17352.6 1606.27  14
  -1   1   2 21604.2 2681.88   2
  -1  -1  -2 22512.2 1638.21   3
  -1  -1   2 21452.2 1789.43   7
  -1  -1   2 20738.6 1532.59   6
   1   1  -2 20693.4 1514.46   6
  -1  -1  -2 24667.3 2299.17   8
  -1  -1   2 21332.9 1562.62  11
   1  -1   2 23388.6 2065.74  12
   1   1  -2 18687.5 1461.24  11
  -1   1   2 21530.2 1566.09  12
   1  -1  -2 18142.0 1413.80  12
   1  -1   2 23227.7 1472.58   5
   1   1  -2 21267.5 1874.96   7
   1   1   2 25137.9 2270.71   2
   1   1  -2 20261.9 1753.49  10
  -1  -1  -2 20092.9 1230.64   4
  -1  -1   2 17094.3 1856.73  10
   1  -1  -2 23521.8 2530.22   8
  -1  -1  -2 22356.4 2115.98   2
   1  -1   2 22649.3 1769.73   7
  -1  -1   2 16462.7 1751.07  14
  -1   1  -2 23314.4 1998.33  13
  -1   1  -2 23496.8 1932.59  10
   1  -1  -2 19556.7 2330.59   2
   1  -1   2 26929.0 2405.87  13
   1  -1   2 23481.8 2068.01  10
  -1  -1  -2 25033.6 1509.05   7
  -1  -1   2 21877.5 2336.58   5
  -2  -1  -2 212073. 5115.81   4
  -2  -1  -2 199705. 6130.79   2
  -2   1   2 202606. 5085.35  12
   2  -1   2 229579. 5953.97   7
   2  -1   2 247954. 8673.66  13
   2   1   2 214390. 5756.85   3
  -2  -1  -2 199703. 3505.53   7
   2   1   2 213711. 6870.64  15
   2  -1   2 208795. 3659.05   5
  -2   1  -2 233085. 6416.59  10
   2   1  -2 206167. 6392.57  14
  -2  -1   2 193090. 6762.89  14
  -2   1  -2 228663. 4199.04   5
  -2  -1   2 215523. 6406.24   7
   2   1   2 227281. 8239.11   8
   2   1   2 244232. 4948.33   7
  -2  -1   2 172140. 6107.10  10
   2   1  -2 200486. 5845.38  11
  -2   1  -2 278801. 8994.19  13
  -2  -1  -2 203695. 5450.12   3
  -2  -1   2 187828. 6048.33   8
   2  -1  -2 203935. 5197.51  12
   2   1  -2 223527. 6541.61   7
  -2   1   2 227607. 9081.42   2
  -2  -1  -2 209596. 6313.69   8
   2   1   2 237314. 5764.28   2
  -2   1  -2 201354. 5670.88   7
  -3  -1  -2 42909.2 2442.37   8
  -3  -1  -2 42162.3 1477.37   7
   3   1  -2 41338.7 3214.17   7
   3   1   2 43372.6 2627.36  10
  -3   1   2 40596.7 4026.07   2
   3   1  -2 41299.2 3142.53  14
   3   1   2 42550.4 1896.39   5
   3   1   2 39759.0 3072.24  15
  -3   1  -2 43118.2 1443.77   5
  -3  -1   2 34317.7 2650.92   8
   3  -1   2 37377.9 1851.64  14
   3   1   2 43480.0 1569.04   7
   3   1   2 46759.6 1913.66   2
   3  -1  -2 36898.9 1828.11  13
  -3  -1  -2 57258.1 6531.23  13
  -3   1  -2 52209.5 4616.00  13
   3  -1  -2 41969.1 2505.27  12
   3   1   2 43004.6 3494.50   8
  -3  -1  -2 44022.0 2753.94   3
  -3   1  -2 43209.0 2875.77  10
  -3   1   2 43007.9 2501.19  12
  -3   1  -2 44882.4 2779.51   7
   4   1   2 12103.4 1874.42  15
  -4   1  -2 10516.0 665.288   5
   4  -1  -2 13381.7 1653.36  12
   4  -1  -2 9686.78 1390.07  13
   4   1   2 12882.9 1109.02   5
  -4  -1  -2 14304.2 4190.89  13
   4  -1   2 12472.9 1281.18  14
  -4   1  -2 11824.6 1666.60  10
   4   1   2 11842.0 845.223   7
   4   1   2 12952.6 1382.79   1
  -4  -1   2 8875.58 1509.10   8
  -4   1  -2 15977.0 3170.76  13
   4   1   2 10505.9 1754.37   8
   4   1  -2 12993.9 2121.12   7
  -4  -1  -2 11926.4 1678.08   3
   4   1   2 12549.1 1381.83  10
  -4   1   2 13135.9 2351.79   2
   4   1  -2 13680.6 2063.21  14
   4   1   2 12305.2 1780.82  14
  -5  -1  -2 270.000 265.744   3
   5   1  -2 301.023 445.852  14
  -5   1  -2 1203.78 823.437  13
  -5   1  -2 448.686 286.104  14
  -5   1   2-22.2768 403.835   2
  -5  -1   2 240.039 340.215   8
   5  -1  -2 54.0486 114.980  12
   5   1   2 335.140 480.458  15
   5   1   2 343.379 197.356   7
  -5  -1  -2 229.136 201.099   5
   5   1   2 579.280 510.744   8
  -5   1  -2 264.336 282.976  10
   5   1   2 416.241 246.321  10
   5  -1   2 691.540 355.019  14
  -5   1   2 818.958 530.049  13
   5  -1  -2-879.525 1039.07  13
   5   1  -2-126.077 292.679   7
  -5   1  -2 516.065 422.582   4
  -5   1  -2 203.541 116.925   5
  -5  -1  -2 390.515 967.376  13
   5   1   2 614.587 273.622   5
   5  -1   2 429.714 466.590  15
   5   1   2 286.525 371.491  14
  -6   1  -2 482.154 449.115   4
   6  -1   2 72.6128 55.3840  14
  -6  -1   2 354.271 430.627   8
  -6  -1   2 3540.08 1840.40  13
   6  -1  -2-1027.27 1313.45  13
  -6   1  -2-2754.45 1597.96  13
  -6   1  -2-81.0055 353.038  10
  -6  -1  -2-1611.29 2557.92  13
  -6   1   2 359.342 459.242   2
   6   1   2 140.039 373.155   8
  -6  -1  -2 7.39319 99.1413   5
  -6   1  -2 400.656 516.679   1
   6   1   2 374.068 451.420  15
   6  -1  -2 394.529 393.707  12
  -6   1   2 1055.85 641.434  13
   6   1   2 116.869 123.723   7
   6   1  -2 263.019 409.135  14
   6  -1   2 15.2211 185.913  15
   6   1  -2 207.478 452.692   7
   6   1   2 397.801 436.819  14
   6   1   2 309.475 281.692  10
  -7  -1  -2-1817.48 1689.03  13
   7   1  -2 3071.87 1206.69  14
  -7   1  -2-1630.83 2366.03  13
  -7   1   2 1558.32 730.020  13
  -7   1   2 3331.94 1001.65   9
  -7   1  -2 2590.82 800.753  10
  -7   1   2 3140.04 1191.02   2
   7   1   2 3139.37 1108.40  15
  -7  -1   2 2805.18 1753.19  13
  -7   1  -2 3462.11 1036.24   1
   7  -1  -2 3318.30 1041.98  12
  -7  -1   2 2593.85 1108.78   2
  -7  -1  -2 2130.40 667.439  10
   7   1   2 1947.20 699.594   8
   7  -1   2 2579.89 727.615  15
   7   1   2 2907.54 988.480  14
   7  -1   2 3368.01 960.071  14
   7   1   2 3695.73 641.852   7
  -7  -1  -2 3034.11 607.332   5
   7  -1  -2 2457.98 1060.88  14
  -7   1  -2 3295.49 1027.33   4
   7   1  -2 3053.97 1317.72   7
   8   1   2 9701.45 1970.48  14
  -8  -1   2 4072.78 1768.18  13
  -8   1   2 9749.15 2175.50   2
  -8  -1  -2 7833.61 1415.99  10
   8   1  -2 9078.75 2453.09   7
   8  -1   2 8974.70 1652.19  15
   8  -1   2 9800.69 1828.19  14
  -8   1   2 4991.60 1509.91  13
  -8  -1  -2 6221.91 3149.37  13
  -8   1  -2 10934.9 1972.34   1
  -8   1   2 8567.52 1693.25   9
   8  -1  -2 9145.75 2267.05  14
  -8  -1  -2 9266.21 1165.45   5
   8   1   2 9942.49 2062.33  15
  -8   1  -2 10450.3 2167.76   4
  -8   1  -2 9290.31 1719.36  10
   8   1  -2 9136.50 2134.77  14
  -8  -1   2 8293.33 2030.04   2
   8  -1  -2 9188.28 1986.33  12
  -9  -1  -2 422.398 481.973   1
   9  -1  -2 211.016 438.372  12
  -9   1  -2 585.687 322.170   1
  -9   1   2 374.097 556.495   2
  -9   1   2 203.623 310.493  10
  -9  -1   2-1910.83 1503.78  13
  -9   1  -2 743.941 517.484  10
  -9   1  -2 306.457 599.212   4
  -9   1   2-930.171 945.146  13
  -9  -1  -2 153.391 150.375  10
  -9  -1  -2 199.567 230.404   5
  -9  -1   2 1039.46 766.450   2
  -9   1   2 638.141 601.158   9
   9   1  -2 717.363 716.664  14
   9  -1   2 728.989 589.196  14
   9   1   2 207.017 127.342  14
   9   1  -2 1051.02 755.266   7
   9  -1  -2 29.9007 267.759  14
  -9  -1  -2 868.122 1887.18  13
   9   1   2 266.020 299.843  15
   9  -1   2 256.011 346.414  15
  10   1  -2 3077.15 1491.40   7
 -10   1   2 2331.17 1073.25   2
 -10   1  -2 3584.17 1239.99   1
 -10  -1   2 3217.63 853.316  10
 -10   1  -2 3566.69 1369.86   4
 -10  -1  -2 7684.87 4062.28  13
  10   1   2 3307.31 1176.66  14
 -10   1   2 2829.79 1024.47  10
 -10  -1  -2 3381.70 810.594   5
  10  -1   2 3547.20 1178.39  15
 -10   1   2 3468.81 1196.80   9
 -10  -1  -2 2658.80 883.196  10
 -10  -1   2 3948.33 2305.50  13
 -10  -1   2 3721.28 1417.77   2
  10  -1  -2 3446.24 1508.47  14
  10  -1   2 4722.80 1480.65  14
 -10  -1  -2 4298.37 1210.99   1
  10  -1  -2 3307.86 1271.73  12
 -10   1  -2 3323.95 1147.66  10
 -10   1   2 2997.93 1225.65   1
  10   1  -2 3280.38 1325.84  14
 -10   1   2 206.357 545.991  13
  10   1   2 3742.29 1443.68  15
 -11  -1   2-305.260 1501.32  13
  11  -1   2 1813.16 990.512  14
 -11   1  -2 1281.37 757.015   1
 -11  -1  -2 2268.46 980.842   1
 -11   1  -2 1473.17 755.574  10
  11   1   2 820.628 532.579  14
 -11   1  -2-2913.05 3389.64  13
 -11  -1   2 864.445 625.842   1
 -11   1   2 1422.52 848.522   2
  11  -1  -2 1131.11 614.797  12
  11  -1  -2 888.051 327.818  14
 -11  -1   2 838.272 458.582  10
 -11  -1  -2 1117.77 622.559  10
 -11  -1   2 1263.10 565.228   9
 -11   1   2 397.253 168.141  13
 -11  -1  -2 116.827 2209.52  13
 -11   1   2 1409.08 800.963   1
  11   1  -2 947.609 766.590  14
  11   1  -2 2047.08 1428.28   7
 -11   1   2 1315.98 518.063   9
 -11  -1   2 2875.48 1300.31   2
 -11  -1  -2 1361.81 530.383   5
 -11   1  -2 1712.70 928.939   4
 -11  -1   2 2926.32 2075.04   5
 -11   1   2 1975.07 825.911  10
 -12   1  -2-1283.36 2229.94  13
 -12  -1   2 3097.01 2245.51   5
 -12  -1   2 2694.02 1042.72   1
  12  -1  -2 1077.01 299.994  12
  12  -1   2 3969.03 1578.24  14
  12   1  -2 1349.48 837.647  14
 -12  -1   2 1369.39 536.304  10
 -12  -1  -2 3012.42 1179.84   1
 -12  -1  -2 1429.87 510.830   5
 -12  -1  -2 1892.22 1228.76   4
 -12  -1   2 1659.67 776.781   2
 -12   1   2 1292.87 690.006  10
 -12   1  -2 2702.75 1184.95   1
 -12  -1  -2 1459.32 700.652  10
  12   1  -2 2220.04 1480.46   7
 -12  -1   2-1020.90 2184.05  13
 -12   1   2 886.395 516.631   2
  12  -1  -2 1794.01 1008.98  14
 -12   1  -2 1092.81 874.512  10
 -12   1   2 1989.65 1584.35  13
 -12   1  -2 1671.81 1084.31   4
  12   1   2 1619.26 763.366  14
 -12   1   2 1557.73 1037.94   1
 -12  -1  -2 3705.92 1771.50  13
  13   1  -2-344.471 580.665  14
  13  -1   2 2604.24 2525.86  12
 -13  -1   2 816.247 674.647   2
 -13   1  -2-3873.97 2768.27  13
 -13   1   2-348.238 806.249   2
 -13   1   2 871.035 1239.39  13
  13   1   2 783.225 634.640  14
 -13   1  -2 293.946 424.151  10
  13   1  -2 1131.40 1327.01   7
 -13  -1   2 1191.27 1726.04   5
  13   1  -2 562.387 973.750  12
 -13   1   2 698.506 655.744   1
  13  -1   2 181.428 584.383  14
 -13   1   2 606.478 532.533  10
  13  -1  -2 281.209 464.340  14
 -13  -1   2-307.707 435.339  13
 -13  -1  -2-1194.67 1260.52  13
 -13  -1  -2 1046.35 895.565   4
 -13   1  -2 531.268 479.463   1
 -13  -1  -2 193.538 470.712   1
  13  -1  -2-455.995 707.128  12
 -13   1  -2 1076.59 673.082   4
 -13  -1   2 339.291 630.025   1
  14  -1   2 3265.95 2872.29  12
 -14   1   2 1886.85 1713.59  13
 -14   1   2-206.864 599.062   1
  14  -1  -2-170.422 546.530  12
 -14  -1   2-337.887 308.570  13
 -14  -1   2-164.901 416.420   1
 -14   1  -2 231.571 238.471  10
 -14  -1  -2-317.234 253.949   1
 -14   1   2 440.454 626.335  10
  14   1  -2 545.527 1088.62   7
  14  -1   2-30.8630 1482.32  14
 -14   1  -2 294.604 478.123   1
 -14   1  -2-603.371 853.919   4
 -14  -1   2 474.841 693.750   5
 -14  -1  -2 436.138 482.170   4
 -14  -1  -2 1154.63 1750.06  13
  14   1   2 586.277 657.982  14
  14  -1  -2-86.1322 770.555  14
  14   1  -2 288.027 672.181  14
 -14   1  -2 370.931 1795.90  13
  14   1  -2 934.698 1164.21  12
  15   1  -2 4213.67 2100.73   7
 -15   1  -2 3835.30 3245.43  13
  15  -1  -2 2235.90 1128.95  12
 -15   1  -2 4859.65 2114.12   4
 -15   1   2 3566.66 2075.99  13
  15   1  -2 3003.07 1548.49  14
  15  -1  -2 3607.59 1958.50  14
 -15  -1   2 3914.51 2368.59  13
  15   1   2 4056.35 1770.17  14
 -15   1   2 4152.97 1747.13   1
 -15  -1  -2 4356.01 2150.97   4
  15   1  -2 5998.45 2211.30  12
  15  -1   2 4418.20 1782.68  14
 -15   1  -2 4022.54 1727.15   1
  15  -1   2 7683.79 3362.87  12
 -15  -1  -2 6855.09 3837.84  13
 -15  -1   2 3584.80 1875.82   5
 -15  -1   2 4031.20 1716.19   1
 -16  -1   2 18908.9 3762.30   1
  16   1  -2 20106.4 4510.27  14
  16   1  -2 24630.3 4381.71  12
 -16   1   2 19418.3 4052.74   1
 -16   1  -2 29557.0 7585.64  13
  16  -1  -2 20474.5 4784.07  14
 -16   1  -2 22497.1 4855.76   4
  16  -1   2 27712.8 5875.41  12
 -16  -1  -2 19272.8 4440.94   4
  16   1   2 23744.0 4536.42  14
 -16   1  -2 22038.0 4236.54   1
  16   1  -2 19802.0 4424.21   7
  16  -1  -2 19976.6 3976.77  12
 -16   1   2 22987.8 5073.13   4
 -16  -1  -2 28346.7 7280.91  13
  16  -1   2 24101.3 4610.69  14
 -16  -1   2 21704.4 4598.49   5
 -16  -1   2 23407.8 5188.80  13
  17   1   2 612.291 769.236  14
  17  -1  -2-1030.03 1273.83  12
 -17   1  -2 441.331 959.102   1
 -17   1   2 755.188 1114.11   1
 -17  -1  -2 949.996 1026.23   4
 -17  -1  -2 3091.64 3051.02  13
 -17   1   2 3815.96 2500.01   4
  17  -1   2 604.017 872.502  14
  17  -1   2 2688.76 2435.01  12
  17   1  -2 382.620 973.384  14
 -17  -1   2-781.701 1272.68   5
  17  -1  -2-1220.35 1521.27  14
  17   1  -2 1349.04 1359.42  12
 -17  -1   2-1016.40 986.299   1
 -17   1  -2-105.737 828.656   4
 -18   1  -2 9049.17 4109.19  13
  18   1   2 3728.43 1875.04  14
 -18  -1  -2 4110.63 2360.36   4
  18   1  -2 2593.69 1820.59  14
 -18  -1  -2 7469.68 3817.91  13
  18  -1  -2 2583.30 1268.02  14
  18   1  -2 4222.78 1915.62  12
  18  -1   2 6901.80 3289.51  12
 -18   1   2 6969.24 3274.09   4
 -18   1  -2 1580.63 506.798   4
  18  -1  -2 1220.42 223.096  12
 -18   1   2 2042.54 1303.03   1
 -19   1  -2 6836.27 4106.89  13
 -19   1   2 3869.66 2238.12   4
 -19  -1  -2 10621.2 4435.94  13
  19  -1  -2 2451.26 1376.98   7
  19  -1  -2 2692.06 1297.09  12
 -19   1   2 3632.48 1708.18   1
  19   1   2 4120.40 2015.02  14
   0   1   3 78788.5 3429.97  12
   0  -1  -3 85705.6 4110.43   7
   0   1   3 78075.2 6390.70   8
   0   1   3 53219.9 5405.82   2
   0   1  -3 82580.9 4345.46  10
   0   1   3 71424.0 2617.86   4
   0   1  -3 76675.3 3947.86   7
   0  -1   3 81742.1 4388.96  13
   0  -1  -3 102901. 6459.30  13
   0  -1   3 73061.2 3085.79  11
   0  -1   3 75710.2 3578.66   6
   1  -1   3 53957.0 1903.58   3
  -1  -1   3 49306.6 2816.45  13
  -1   1   3 46253.3 5358.76   2
  -1  -1  -3 56902.2 2991.45   3
  -1   1   3 53813.2 2736.95  12
  -1  -1   3 57877.1 2937.06   6
   1   1   3 39966.4 4500.12   2
   1  -1  -3 63859.8 4051.88   7
   1   1   3 57149.7 2731.06   4
  -1  -1  -3 63700.4 2981.87   7
   1  -1   3 71055.1 3746.54   5
  -1   1  -3 54538.1 3281.47   7
  -1   1  -3 62920.8 3871.51  10
   1   1   3 54627.4 5460.78   8
   1   1   3 66254.7 4090.03   7
  -1  -1   3 53915.0 3917.45   8
   1   1  -3 62967.6 3826.93   7
  -1  -1  -3 67804.2 6552.76  13
  -1  -1   3 57045.5 2988.94  11
  -1   1  -3 64008.1 3876.34  13
   1  -1  -3 51711.8 2698.13  12
  -1  -1   3 45305.0 3416.07  14
   1  -1   3 55455.7 2602.14  11
  -2   1   3 9822.48 1173.92  12
   2  -1   3 11891.9 1137.47   5
   2   1   3 7974.65 2027.90   8
   2   1   3 11230.2 1444.45   7
   2   1  -3 10212.6 1182.83   6
  -2  -1  -3 12948.6 3595.84  13
   2  -1  -3 10922.6 1863.52   7
  -2  -1   3 9304.95 1655.36   8
  -2   1  -3 13698.2 2154.24  13
  -2  -1  -3 10034.5 1310.79   3
  -2   1   3 7142.89 2297.05   2
  -2  -1  -3 12520.1 1171.26   7
   2  -1   3 10959.0 1061.83   3
  -2   1  -3 10438.0 1426.06   7
   2   1   3 10939.5 2227.96   2
  -2  -1  -3 9954.16 1177.46   4
   2  -1  -3 8795.54 1099.52  12
  -2   1  -3 11395.3 1695.52  10
   2   1  -3 10462.1 1626.98   7
  -3   1  -3 23878.0 3248.28  13
   3   1  -3 19644.8 2492.95   7
   3   1   3 20048.9 2551.23   2
   3  -1  -3 18217.0 1680.82  12
   3  -1   3 18791.4 1136.36   5
  -3  -1   3 14025.0 2097.55   8
  -3   1   3 18880.7 1714.35  12
  -3   1  -3 20043.8 2284.04  10
  -3   1   3 17975.0 3509.71   2
  -3   1  -3 16925.3 1920.03   7
   3   1  -3 19114.9 1583.00   6
  -3  -1  -3 21135.0 2172.98   8
   3   1   3 16785.2 2364.81  15
  -3  -1  -3 18397.0 1327.81   7
   3   1   3 11352.1 2311.04   8
  -3  -1  -3 13672.0 4170.27  13
   3   1  -3 17061.5 2286.80  14
   3   1   3 22513.0 1756.01   7
  -3  -1  -3 18438.1 1930.18   3
  -3  -1  -3 18900.2 1828.12   4
   3  -1   3 20515.7 1738.21   3
   4   1   3 259.780 372.563  14
  -4   1  -3 179.752 227.894   7
   4   1  -3 31.7784 120.367   7
   4  -1  -3-576.935 553.529  13
   4  -1   3 266.248 242.319  14
  -4   1   3 473.153 1021.04   2
   4   1   3 1730.52 905.113   2
  -4  -1  -3 287.351 190.022   7
   4   1  -3 252.047 187.393  12
   4   1   3 130.894 265.937  15
  -4  -1  -3-726.076 1859.77  13
  -4   1  -3 1188.11 1502.20  13
  -4  -1   3-219.976 452.806   8
   4   1  -3 393.952 366.845  14
  -4   1  -3 369.062 326.421  10
   4   1   3 335.974 185.969   7
   4   1   3-278.100 922.455   8
  -4  -1  -3 282.856 156.872   4
   4   1   3 224.092 153.998   5
  -4  -1  -3 646.658 361.147   3
   4  -1  -3-111.795 115.148  12
   5   1  -3 10620.8 2066.42  14
  -5   1  -3 13054.4 1943.61  10
   5   1   3 10337.4 1938.46  15
   5   1  -3 12827.1 2405.24   7
   5   1   3 1677.67 547.562   8
  -5  -1  -3 5084.53 2786.58  13
  -5  -1   3 9722.98 1927.31   8
  -5  -1  -3 10468.3 1849.56   3
   5  -1   3 11879.8 1465.09  14
   5  -1  -3 3630.62 958.332  13
  -5   1  -3 9984.62 2955.77  13
   5   1   3 10315.3 1869.29  14
   5   1   3 12935.6 1099.61   5
   5   1  -3 9501.61 1271.69  12
  -5   1   3 12272.6 3012.32   2
   5   1   3 13435.7 1215.72   7
  -5  -1  -3 12396.4 1796.08   4
   5   1   3 13466.0 1109.51   2
   5  -1  -3 11763.8 1606.37  12
  -6   1  -3 2721.76 955.958   4
   6  -1  -3 4005.15 1507.87  13
   6   1   3 2789.28 1021.20  14
  -6  -1  -3 2544.77 948.343   3
   6  -1  -3 2500.00 808.221  12
  -6   1   3 1931.27 1013.54   2
   6   1  -3 2399.55 1009.81  14
   6   1   3 3054.20 1073.98  15
  -6   1  -3 890.850 1308.55  13
   6   1   3-424.978 975.583   8
  -6  -1  -3 187.395 1947.72  13
   6  -1   3 2717.79 789.455  14
  -6   1  -3 2798.36 1026.78  10
   6   1  -3 3460.88 1489.70   7
   6   1   3 2622.43 525.503   5
   6   1   3 2905.54 565.023   7
  -6  -1   3 2427.56 1088.07   8
   6  -1   3 2535.28 927.190  15
   6   1  -3 2001.85 717.667  12
  -6  -1  -3 2634.23 915.405   4
  -7   1   3 1271.80 632.939  13
  -7   1  -3 1112.10 652.713   4
   7  -1  -3 1083.21 457.579  12
  -7  -1  -3 1736.17 730.229   4
   7   1   3-422.894 1006.17   8
   7   1  -3 965.461 790.260   7
  -7  -1  -3 1379.44 1436.18  13
   7   1   3 1355.57 731.947  15
  -7  -1   3 722.324 378.017   2
   7  -1   3 1170.00 574.563  15
  -7  -1   3 1575.03 1261.03  13
   7  -1   3 1458.91 662.908  14
  -7   1  -3-189.747 2134.09  13
   7   1   3 1336.06 688.377  14
   7  -1  -3 5591.77 1964.41  13
   7   1  -3 1284.11 701.132  12
  -7   1  -3 1736.11 825.334  10
   7   1  -3 1556.03 1029.00  14
   7   1   3 1829.00 456.472   7
  -7   1   3 1052.31 582.983   2
  -8   1   3 19485.2 2479.30  13
  -8   1   3 25510.0 4078.97   2
   8  -1   3 27332.1 2896.85  14
   8   1   3 26397.4 1975.49   7
  -8  -1  -3 25676.0 3298.65   4
   8   1  -3 25678.6 3694.24  14
   8   1   3 17445.1 2643.16   8
   8   1   3 27243.6 3360.45  14
   8  -1  -3 23265.2 2835.42  12
  -8   1  -3 24982.3 2975.45  10
   8   1   3 25275.0 3435.81  15
   8   1  -3 30850.1 4528.45   7
  -8  -1  -3 40724.7 8697.00  13
  -8  -1   3 23491.3 3731.49   2
   8  -1   3 25603.0 2993.58  15
  -8  -1   3 11834.1 2950.81  13
  -8   1  -3 27650.3 3467.41   4
   8   1  -3 24687.0 3031.61  12
  -8   1  -3 7995.42 1808.18  13
   9  -1   3 1201.41 725.189  14
   9  -1  -3-8.31962 543.546  12
  -9   1   3 843.593 831.734   2
  -9   1   3 1044.85 763.561  13
   9   1   3 754.136 747.150  14
  -9   1   3 222.945 297.673   9
   9   1  -3 1040.77 823.034  14
   9   1   3 625.836 525.631  15
   9   1  -3 304.462 500.474  12
  -9  -1   3-1178.95 1348.12  13
  -9  -1   3 793.063 531.206   2
   9   1  -3 220.220 312.294   7
  -9  -1  -3 437.808 225.956   5
   9  -1   3 479.869 533.385  15
  -9  -1  -3 470.687 669.184   4
  -9   1  -3 104.848 282.925   4
   9   1   3-49.5189 555.963   8
  -9   1  -3 493.470 547.288  10
  -9  -1  -3 2160.84 2240.28  13
  10  -1  -3 44114.9 4379.35  12
  10   1   3 47727.9 4861.38  14
  10  -1   3 53845.1 4765.16  14
 -10  -1   3 47100.2 5521.06   2
 -10   1  -3 43874.7 4254.95  10
  10   1  -3 46221.1 5443.85  14
 -10   1   3 47605.6 4414.61   9
 -10   1   3 43110.7 5270.75   2
 -10  -1  -3 65201.6 11259.6  13
  10   1  -3 49738.1 4632.40  12
 -10   1  -3 49204.6 5280.88   4
 -10  -1  -3 41858.7 2336.28   5
  10   1   3 44728.2 4991.91  15
  10  -1   3 46236.4 4468.58  15
 -10  -1   3 52558.0 7431.55  13
 -10   1   3 31945.4 3994.29  13
  10   1   3 38278.7 2928.67   8
 -10   1  -3 38170.7 7896.91  13
  10   1  -3 47693.0 6059.44   7
 -10  -1  -3 44079.4 4968.52   4
  11   1  -3 691.280 792.317   7
 -11  -1   3 1195.74 1199.26   2
 -11  -1  -3 825.668 733.550   4
  11  -1  -3 457.615 153.005  12
  11   1  -3 1047.85 879.749  12
 -11  -1  -3 719.967 294.081   5
  11  -1   3 1001.47 509.942  15
  11   1   3 1041.96 728.302  15
  11   1  -3 1338.36 1055.01  14
 -11   1   3 503.161 584.538   2
 -11   1  -3-3101.96 3959.87  13
 -11   1   3 702.207 715.085  13
  11   1   3 963.906 558.260  14
 -11  -1   3-3023.93 2356.40  13
  11  -1   3 1604.84 951.474  14
 -11   1  -3 833.203 438.066   4
 -11  -1  -3 436.250 577.226  13
 -11   1   3 793.687 516.075  10
 -11   1   3 1055.45 695.158   9
 -11   1  -3 779.457 613.145  10
 -12   1   3 908.800 900.530   1
 -12   1   3 696.916 490.727  10
 -12  -1  -3 1562.22 1794.26  13
  12   1   3 423.237 264.307  15
  12   1  -3 319.855 683.388   7
 -12  -1   3 1767.15 1428.87   2
 -12   1   3 1424.95 712.392   9
 -12  -1  -3 1182.97 920.496   4
  12   1  -3 958.713 1071.23  14
 -12  -1   3-3117.22 2345.93  13
 -12   1  -3-2618.93 3552.49  13
  12  -1   3 1017.37 782.444  15
 -12  -1   3 883.347 399.231  10
  12  -1  -3 287.076 482.121  12
  12   1  -3 892.741 921.891  12
 -12   1  -3 1769.75 1034.28  10
 -12   1   3 678.778 959.316   2
  12  -1   3 816.709 657.289  14
 -12   1   3 298.505 488.974  13
 -12   1  -3 437.241 180.900   4
  12   1   3 182.892 432.283  14
 -13  -1   3 4580.69 1697.15   2
 -13   1  -3 4700.65 1884.29   4
 -13   1   3 4057.99 1504.92  10
  13   1  -3 5589.85 1778.43  12
  13   1  -3 4539.56 1980.17  14
 -13  -1   3 6767.15 3618.72   5
  13  -1   3 4402.74 1512.24  15
 -13  -1  -3 4982.68 1952.44   4
 -13   1  -3 5577.43 1701.94  10
 -13  -1   3 2874.62 1482.85  13
  13   1  -3 4137.63 1911.29   7
  13   1   3 4658.27 1660.34  14
 -13   1   3 2731.17 1433.64  13
 -13  -1  -3 7752.49 4332.04  13
 -13   1   3 4618.16 1308.55   9
 -13   1   3 4096.99 1537.72   1
  13  -1   3 7539.93 2149.12  14
 -13   1  -3 2139.06 1380.09  13
 -13   1   3 3771.69 1525.42   2
  13  -1  -3 3382.99 948.537  12
 -13  -1   3 3711.40 1514.00   1
  14   1  -3 592.905 1003.06  14
 -14   1   3-304.290 445.543   2
 -14   1  -3-233.555 209.903  10
 -14   1   3 1202.93 959.230   1
 -14  -1  -3 3105.48 3210.02  13
 -14  -1   3 1004.63 1092.34  13
 -14   1  -3-2344.50 2832.85  13
 -14   1  -3-1317.33 1234.45   4
  14   1  -3 753.484 676.947  12
  14  -1   3 724.060 896.748  14
  14   1   3 1372.03 1026.31  14
 -14  -1   3-27.9735 554.151   1
  14  -1  -3-688.729 1148.26  12
  14   1  -3 429.791 798.105   7
 -14  -1   3 2268.37 2333.20   5
 -14   1   3 417.833 298.833  10
 -14  -1   3 633.594 791.118   2
 -14  -1  -3 1407.26 1240.21   4
 -15   1  -3-637.548 1360.03   4
 -15  -1  -3 3882.66 3052.73  13
 -15  -1  -3 1395.23 1281.12   4
  15  -1   3 1883.93 1260.89  14
 -15   1   3-140.324 852.432   2
  15  -1  -3 468.744 160.026  12
  15   1  -3 2880.94 1868.06   7
  15   1   3 1184.72 1008.97  14
 -15  -1   3 49.4237 599.975   1
  15   1  -3 1088.74 777.758  14
 -15   1  -3 609.207 2114.60  13
 -15   1   3 1044.99 1046.83   1
 -15  -1   3 3690.46 2413.80   5
  15   1  -3 1211.64 890.655  12
  16   1   3 17.0937 433.398  14
 -16   1   3 1321.03 913.698   1
 -16   1  -3-306.631 758.278   4
  16  -1  -3 718.051 587.273   7
  16  -1  -3-1358.48 914.328  12
  16   1  -3 242.432 942.825   7
  16  -1   3 6557.18 3583.60  12
 -16  -1  -3 3191.62 2901.52  13
 -16  -1   3 1904.83 1775.78   5
 -16  -1   3 144.316 891.244   1
  16   1  -3 395.596 953.706  14
  16  -1   3-452.513 1007.92  14
  16   1  -3-188.640 489.176  12
 -16   1  -3 6044.96 3660.40  13
 -16  -1  -3 882.061 1258.74   4
 -17  -1  -3 8222.20 2990.04   4
  17  -1   3 16586.1 5005.82  12
 -17   1  -3 17467.2 6391.90  13
 -17  -1   3 5905.72 2063.94   1
  17   1   3 9027.46 2892.86  14
  17   1  -3 5901.52 2615.04  14
  17  -1  -3 5737.64 2202.06   7
 -17   1   3 10698.5 3664.04   4
  17  -1  -3 6205.21 2033.62  12
  17   1  -3 8014.58 3082.41   7
 -17  -1  -3 9975.90 4352.98  13
 -17   1   3 5893.34 2214.18   1
 -17   1  -3 5920.84 2615.92   4
 -17  -1   3 6656.39 2721.18   5
 -18  -1  -3 8444.50 3671.68  13
 -18   1  -3 6563.70 2615.01   4
 -18   1   3 10135.7 3654.67   4
 -18   1   3 6327.64 2604.43   1
 -18   1  -3 12718.8 5591.03  13
  18  -1   3 14435.7 4646.96  12
 -18  -1  -3 5396.42 2356.90   4
 -18  -1   3 8666.79 2773.16   1
  18   1  -3 7049.07 2990.19  14
  18   1   3 7970.00 2836.42  14
  18  -1  -3 7268.55 2388.14  12
  18  -1  -3 4801.58 1900.29   7
 -18  -1   3 6721.39 2665.92   5
  19  -1  -3 1379.89 1092.99   7
 -19   1   3 3506.72 2458.55   4
  19   1   3 696.192 795.696  14
   0   1   4-241.093 531.001   2
   0  -1  -4-361.837 1004.51  13
   0   1  -4 528.642 441.866   7
   0  -1  -4 29.4633 156.821   3
   0  -1   4 339.238 332.184  11
   0   1  -4 79.2204 124.247   3
   0   1   4-350.934 904.014   8
   0  -1  -4 541.375 513.109   7
   0  -1   4 530.602 541.863   8
   1   1   4 1912.59 1147.08   8
  -1  -1   4 4565.80 1237.78  13
  -1   1  -4 2993.99 660.130   3
   1  -1   4 3531.19 584.125   3
  -1  -1  -4 802.902 655.931  13
  -1   1  -4 4610.41 1136.81  13
  -1  -1  -4 3201.51 831.623   3
  -1   1  -4 3259.81 898.103   7
   1  -1   4 4171.89 1372.08   8
   1  -1  -4 331.072 672.472  13
   1   1  -4 2503.02 431.594   3
   1   1   4 3727.25 804.135   4
  -1  -1  -4 3983.56 875.024   7
  -1   1   4 4206.30 1717.38   8
  -1  -1   4 3987.11 1319.17   8
   1   1   4 1516.78 675.557   2
   1   1  -4 4063.45 1073.67   7
   1  -1  -4 3624.22 1144.45   7
  -1   1   4 1713.58 1147.82   2
   1  -1   4 3179.13 727.303  11
  -2  -1  -4 5622.00 949.715   7
  -2   1   4 3140.35 1555.70   2
   2   1   4 1157.29 417.432   2
  -2   1  -4 3941.71 972.988   7
   2  -1   4 4381.53 741.295  11
  -2  -1   4 4337.38 880.486   6
   2  -1  -4 5522.57 1494.87   7
  -2  -1  -4 765.994 444.710  13
   2  -1   4 6183.03 1082.03   5
  -2  -1  -4 4809.00 975.789   3
   2  -1  -4 4437.08 820.821  12
   2   1   4 4104.58 1678.03   8
  -2   1  -4 5658.56 1315.40  10
   2   1  -4 4887.08 1263.40   7
  -2  -1   4 4052.40 1146.67   8
  -2   1  -4 6769.90 1650.63  13
   2  -1   4 5197.58 784.404   3
  -2  -1   4 3199.18 837.765  13
  -3  -1  -4 2362.50 601.165   7
   3   1  -4 2251.68 898.198   7
  -3  -1   4 962.258 469.930   8
   3  -1   4 2641.01 602.160   5
   3   1   4 1681.18 857.849   8
   3  -1  -4 2614.57 640.690  12
   3   1   4 3489.59 993.646   7
  -3   1  -4 2719.77 955.128  13
  -3  -1  -4 2481.07 819.221   3
  -3   1  -4 3367.81 1011.36  10
   3   1   4 1999.67 1040.79   2
  -3  -1  -4 479.830 791.068  13
  -3   1   4 1499.04 666.969   2
  -3   1  -4 2072.55 765.963   7
   3  -1  -4 2338.71 1089.70   7
  -4   1  -4 52537.5 5827.84  13
   4   1   4 45937.6 3003.50   7
   4   1   4 38909.4 4021.80  15
   4   1   4 19557.7 3926.18   8
  -4   1   4 36616.4 5928.62   2
   4  -1  -4 39428.6 2656.78  12
  -4  -1  -4 33301.1 7027.58  13
   4   1  -4 40735.7 2413.35   6
  -4   1  -4 38585.8 3188.16   7
   4  -1  -4 46833.4 4731.54   7
  -4  -1  -4 41480.8 3123.08   4
  -4  -1  -4 41310.4 2455.84   7
  -4  -1  -4 40935.5 3299.19   3
  -4   1  -4 44689.1 3918.88  10
   4   1  -4 42120.3 4317.55   7
  -4  -1   4 32312.5 3848.69   8
   4  -1   4 40114.4 1672.30   5
   4   1   4 40999.4 4417.24   2
   5   1   4 54262.8 4252.82   2
   5   1   4 41106.5 3998.18  14
   5   1   4 47388.2 2872.07   7
  -5  -1  -4 41832.0 3728.17   3
  -5   1   4 38337.7 6281.30   2
  -5   1  -4 46579.6 4132.49  10
   5   1  -4 44588.3 4739.62   7
  -5  -1  -4 40296.0 2481.90   7
   5  -1  -4 46476.2 5005.42   7
  -5  -1  -4 48594.7 9310.91  13
   5   1   4 41939.5 2105.15   5
   5   1  -4 41405.8 2488.70   6
  -5   1  -4 46012.7 6255.63  13
   5   1   4 41599.6 4381.00  15
   5  -1   4 39496.7 3047.27  14
  -5   1  -4 41641.1 3439.21   7
  -5  -1  -4 42875.4 3473.43   4
   5   1  -4 36364.9 1694.42  12
   5  -1  -4 42675.3 3026.05  12
  -5  -1   4 34931.8 4242.99   8
   5   1  -4 42558.6 4351.54  14
   6   1   4 28172.1 2218.92   7
  -6  -1   4 21136.4 3334.71   8
  -6   1  -4 23879.9 4766.44  13
  -6   1   4 24599.2 4857.86   2
   6  -1   4 22545.4 2385.84  14
  -6  -1  -4 25048.1 3196.65   3
   6  -1  -4 23827.7 2388.63  12
   6   1  -4 22497.8 1665.01  12
   6   1   4 25544.5 1542.48   5
   6   1   4 9181.60 2479.24   8
   6   1   4 31373.1 2415.96   2
   6   1   4 23379.1 3286.16  15
   6   1   4 22582.2 2935.95  14
   6   1  -4 23375.6 3355.02  14
   6  -1  -4 25183.1 3924.37   7
  -6  -1  -4 26817.0 7212.11  13
  -6  -1  -4 23936.3 2843.93   4
  -6   1  -4 26416.0 3139.61  10
   6   1  -4 24625.7 3800.97   7
  -7   1  -4 4138.48 301.723  13
   7   1  -4 5474.24 1944.66   7
  -7  -1   4 4840.51 1633.85   8
   7   1  -4 4657.55 944.609  12
   7  -1   4 6086.79 1328.00  14
   7   1   4 3886.15 1685.76   8
   7   1   4 4683.94 593.870   2
   7  -1  -4 5701.89 1313.74  12
  -7  -1   4 2681.37 972.164   2
  -7  -1  -4 6718.83 1602.61   4
   7   1   4 5110.52 1465.79  14
   7  -1   4 6004.58 1629.13  15
   7   1   4 5417.82 1617.34  15
  -7   1   4 6305.20 2614.61   2
  -7   1  -4 6226.77 1604.27  10
  -7  -1  -4 8495.21 4478.31  13
   7   1  -4 5032.32 1797.10  14
  -7  -1   4 1736.52 1204.20  13
   8   1  -4 643.363 290.025   7
   8   1  -4 1141.00 557.258  12
   8   1   4 1663.10 1241.74   8
  -8  -1  -4 3227.21 3675.57  13
  -8  -1   4 286.887 720.742   2
   8   1  -4 1981.66 974.273  14
   8   1   4 607.323 73.5895  15
   8  -1  -4 1296.11 599.650  12
  -8   1  -4 1041.11 809.384  10
  -8   1  -4-2308.67 3538.45  13
   8   1   4 1049.76 639.096  14
   8  -1   4 1414.55 727.006  14
  -8  -1  -4 1239.66 754.938   4
  -8  -1   4-1004.01 1522.06  13
  -8   1   4 520.644 576.322   2
   8  -1   4 1329.45 782.621  15
   9   1  -4 71035.3 7527.63   7
  -9  -1  -4 64875.4 5552.74   4
  -9   1  -4 65749.1 5854.24   4
   9   1   4 91622.8 7069.90   8
  -9  -1   4 63530.8 6936.15   2
  -9   1   4 64735.9 7336.81   2
   9   1   4 60930.1 5900.29  15
  -9   1  -4 59711.0 5329.43  10
   9  -1   4 66193.0 5065.12  14
   9  -1  -4 60335.0 4738.68  12
  -9  -1   4 61139.7 6745.52  13
   9   1   4 64696.2 5623.09  14
   9  -1   4 57805.1 5127.82  15
  -9   1  -4 53640.6 8420.76  13
   9   1  -4 58540.6 4016.13  12
   9   1  -4 61975.5 6325.00  14
  10   1  -4-41.2537 308.871   7
 -10  -1  -4 2776.95 3100.80  13
  10  -1  -4 47.7972 83.1768  12
 -10   1  -4 52.4079 338.340  10
 -10  -1  -4 644.390 606.606   4
  10   1   4 960.391 888.552  15
  10  -1   4 338.689 394.374  15
  10   1  -4 477.706 596.446  14
 -10   1   4 156.831 678.426   2
  10   1  -4 195.993 367.356  12
 -10  -1   4 780.538 545.510   2
  10   1   4 170.505 213.514   8
  10  -1   4 92.5021 112.937  14
 -10  -1   4-1189.54 1527.24  13
 -10   1  -4 569.532 755.521   4
  10   1   4 751.572 746.904  14
  11   1  -4 699.095 888.880   7
 -11   1  -4-3835.25 4326.72  13
  11   1  -4 1210.33 647.458  12
 -11   1   4 2414.87 1553.48   2
  11  -1  -4 1304.09 859.686  12
 -11   1  -4-89.9541 860.240   4
 -11  -1   4 53.8545 1270.20  13
  11  -1   4 1426.87 731.519  14
  11   1   4 1491.59 989.661  14
 -11  -1  -4 4196.23 3549.96  13
  11  -1   4 1870.82 1007.50  15
 -11   1  -4 1284.85 893.348  10
 -11  -1   4 938.107 949.133   2
  11   1  -4 847.597 825.157  14
  11   1   4 2422.79 1328.57  15
 -11  -1  -4 1243.76 914.455   4
 -11   1   4 1785.16 877.732   9
  12   1  -4 1943.42 1476.46  14
 -12   1  -4-2638.91 3303.48  13
 -12  -1  -4 5865.99 4111.27  13
 -12   1   4 1775.77 1045.72   2
  12  -1  -4 1625.38 916.607  12
  12   1  -4 1306.26 678.076  12
 -12  -1   4 3959.22 2011.42   2
  12  -1   4 3498.73 1573.67  14
 -12   1  -4 2062.68 1034.31   4
 -12  -1  -4 2367.97 1025.55   4
 -12   1  -4 1724.56 956.005  10
  12   1   4 1770.70 1153.21  14
  12   1   4 2846.40 1323.59  15
  12   1  -4 1644.88 1254.25   7
  12  -1   4 1564.20 842.375  15
  12  -1  -4 1694.77 1340.75   7
 -12   1   4 1099.10 663.358   9
 -13   1   4 21127.2 4116.72   2
 -13   1  -4 20070.3 3446.45  10
  13   1  -4 23360.9 4792.40   7
 -13   1  -4 21000.4 3964.89   4
  13   1   4 22914.7 3841.98  14
  13   1  -4 22199.1 3150.33  12
  13   1  -4 19753.3 4290.24  14
 -13  -1  -4 43766.2 9477.02  13
  13  -1   4 26247.1 3958.87  14
 -13   1   4 20366.5 3235.63   9
  13   1   4 21137.3 3796.35  15
 -13   1   4 16407.5 3126.88  10
 -13   1  -4 18192.1 6443.13  13
 -13  -1   4 22312.0 4146.36   2
 -13  -1  -4 20481.9 3917.79   4
  13  -1   4 20485.7 3488.80  15
  13  -1  -4 17739.6 3006.78  12
  13  -1  -4 20144.9 4246.94   7
  14   1   4 18193.9 3503.09  14
  14   1  -4 16603.4 4101.57   7
  14  -1  -4 14683.6 3588.69   7
 -14   1   4 14451.0 3343.61   1
 -14  -1  -4 28180.4 7681.07  13
 -14   1  -4 15797.6 3158.40  10
  14  -1  -4 14085.3 2825.81  12
 -14  -1   4 23751.4 6490.63   5
 -14   1  -4 16579.5 3642.75   4
  14  -1   4 17270.4 3353.41  15
  14   1   4 16048.2 3389.87  15
 -14   1   4 11793.1 2694.88  10
 -14   1   4 13443.1 3226.45   2
  14   1  -4 16254.8 3982.61  14
 -14   1  -4 16197.1 5770.16  13
 -14  -1  -4 16571.9 3472.71   4
 -14  -1   4 15910.5 3431.58   2
  14  -1   4 20576.3 3686.75  14
  15   1   4 754.251 704.043  14
  15   1  -4 916.804 1243.54   7
 -15   1  -4 1453.34 2807.11  13
 -15   1   4 44.6941 803.927   2
 -15   1   4-1805.02 1476.73   1
 -15  -1   4 811.764 1065.72   2
 -15  -1  -4 914.705 2325.57  13
  15  -1  -4 673.270 1075.17   7
 -15  -1   4-258.950 355.450   1
 -15  -1   4 3565.41 2641.74   5
  15   1  -4-216.435 179.653  14
  15  -1  -4 39.9268 364.769  12
 -15  -1  -4-595.616 989.599   4
 -15   1  -4-987.428 881.956   4
  16  -1  -4 531.198 444.206   7
 -16  -1   4 1046.20 1140.56   1
 -16   1  -4 26.6078 1265.07   4
 -16  -1  -4 3827.29 3187.00  13
 -16  -1   4 2910.19 2396.69   5
  16   1   4 2505.32 1560.63  14
  16   1  -4 1085.88 1009.29  14
 -16  -1  -4 159.808 130.924   4
 -16   1   4 1047.28 1082.24   1
  16   1  -4 553.165 454.105   7
  16  -1  -4 660.290 323.628  12
  17   1  -4 1276.70 858.600  14
 -17  -1  -4 996.034 570.943   4
 -17  -1  -4 2887.94 3182.93  13
 -17   1  -4-1926.68 1932.64   4
  17  -1   4 5593.19 3826.65  12
 -17  -1   4 973.435 1537.29   5
 -17  -1   4 1241.51 1007.34   1
  17  -1  -4 430.332 197.151   7
 -17   1   4 857.983 1144.91   1
  17   1  -4 1946.35 1656.04   7
  17   1   4 1192.52 1488.83  14
 -18  -1   4 957.553 1185.40   1
  18   1  -4 1154.70 922.447   7
  18   1   4 626.583 546.054  14
  18  -1  -4-35.9296 875.604   7
 -18  -1   4 313.754 630.198   5
 -18   1   4 3505.87 2527.63   4
 -18   1   4 759.365 1265.22   1
   0   1  -5 435.741 289.703   3
   0   1   5 60.5593 988.297   8
   0  -1  -5 525.858 362.633   3
   0   1   5-81.8220 1442.83   2
   0   1  -5 793.107 500.478   7
   0  -1  -5 693.328 270.872  11
   0  -1  -5-1519.71 1849.16  13
   0  -1  -5 577.842 467.784   7
   0  -1   5 894.402 613.873   8
   1   1  -5 4223.25 1221.91   7
   1  -1   5 3419.38 780.514  11
  -1  -1  -5 437.917 1095.53  13
  -1   1  -5 3423.92 1055.94  13
  -1  -1  -5 3556.21 939.032   7
  -1  -1   5 3195.83 1107.44   8
   1  -1   5 3344.78 1319.32   8
  -1  -1   5 2206.45 436.298  12
   1   1   5-431.775 1958.19   2
  -1   1  -5 3290.20 1017.10   7
   1   1   5 2891.66 1386.33   8
   1   1  -5 2464.84 509.249   3
  -1  -1  -5 3197.75 856.612   3
  -1   1  -5 2509.57 672.310   3
   1  -1  -5 1229.17 686.613  13
  -1   1   5 2013.62 872.556   8
   1  -1  -5 3618.06 1066.45   7
   2  -1  -5 42642.4 4160.93   7
   2   1  -5 40648.3 4033.62   7
  -2   1  -5 48853.8 4497.22  13
  -2   1   5 28406.7 5996.77   2
   2  -1   5 41046.7 2539.61   3
   2  -1  -5 21781.9 1827.03  13
   2  -1   5 46163.3 4610.11   8
  -2  -1  -5 37014.3 2995.68   3
   2  -1   5 38196.7 2678.51  11
   2   1   5 33070.3 5653.03   8
  -2  -1   5 30552.3 4115.56   8
  -2  -1  -5 40670.1 3070.59   7
  -2  -1  -5 28730.7 5186.50  13
  -2   1  -5 37523.4 3338.16   7
  -2  -1   5 27095.0 2965.68  13
   3  -1  -5 19462.8 3129.37   7
  -3  -1   5 11281.7 1671.08  13
  -3   1  -5 21862.2 3395.01  13
  -3  -1  -5 12450.1 3674.10  13
   3  -1   5 20195.6 2029.19   5
  -3  -1  -5 17468.6 2156.06   3
   3  -1  -5 16234.0 1719.69  12
   3   1   5 7964.51 2121.74   2
  -3  -1   5 11603.8 2341.74   8
   3  -1   5 20301.6 3013.78   8
   3   1   5 12179.5 3491.08   8
   3   1  -5 17125.1 2734.35   7
  -3   1  -5 17804.6 2274.67   7
  -3   1   5 8257.31 716.033   6
  -3   1   5 15142.9 4359.45   2
  -3  -1  -5 17760.7 1906.43   7
   3  -1   5 16091.4 1658.93  11
  -4  -1  -5 5485.98 1259.34   3
  -4   1   5 4800.08 2420.69   2
  -4  -1   5 1604.08 617.949  13
   4   1  -5 3445.73 1265.97   7
  -4  -1  -5 5243.34 1008.01   7
   4   1   5 4056.76 1511.11   2
   4   1   5 3713.29 2062.12   8
  -4  -1   5 3091.93 1551.44   8
  -4   1  -5 5154.12 1290.80   7
  -4   1  -5 5491.73 1449.12  10
   4  -1  -5 5050.84 948.402  12
   4  -1  -5 5318.62 1750.59   7
  -4  -1  -5 3381.27 1822.28  13
  -4   1  -5 7511.09 1976.69  13
   4  -1   5 5362.16 835.756   5
   4  -1   5 6962.11 1917.05   8
   5  -1   5 158.900 308.956  14
   5  -1   5 65.7111 72.9514   5
  -5   1  -5 1564.03 1473.27  13
   5  -1  -5 350.796 591.824   7
  -5  -1  -5 461.486 335.977   7
   5   1  -5 183.403 201.584   7
   5   1   5 1351.29 1908.73   8
   5   1   5 413.128 800.593   2
  -5   1  -5 75.8927 38.7582   7
   5  -1   5 1364.31 1085.28   8
  -5   1  -5 21.0890 350.655  10
  -5  -1  -5-885.877 1450.21  13
   5   1   5-220.373 410.015  15
  -5  -1  -5 23.5175 223.148   3
  -5   1   5 531.313 613.817   2
   5  -1  -5 248.215 303.529  12
  -5  -1   5-104.376 354.765   8
   5   1   5 327.577 220.264   5
  -5  -1   5 234.247 201.178  13
   6  -1  -5 34421.5 2842.97  12
   6   1  -5 28659.9 1454.06  12
   6   1   5 50392.1 4533.43   2
   6  -1  -5 37670.0 5018.97   7
  -6   1   5 40035.5 6837.33   2
   6   1   5 31258.9 4263.24  15
  -6  -1  -5 50725.8 8806.82  13
  -6   1  -5 33656.3 3340.64   7
  -6  -1  -5 35505.1 3520.97   4
   6   1   5 33934.4 3931.70  14
  -6  -1  -5 37843.1 4151.25   3
  -6   1  -5 41272.1 6434.43  13
   6   1   5 33186.1 1913.71   5
   6   1   5 38441.3 6198.11   8
  -6  -1   5 27910.7 4407.48   8
  -6  -1   5 20187.4 2514.41  13
  -6   1  -5 39254.0 4247.18  10
   6   1  -5 33217.9 2273.55   6
  -6  -1  -5 33546.2 2591.89   7
   6  -1   5 30596.3 3115.66  14
   6   1  -5 35297.0 4855.89   7
   7   1   5 19135.5 2164.92   2
  -7   1  -5 15277.0 2686.48  10
  -7  -1   5 10634.2 2698.74   8
   7  -1  -5 13875.7 1891.76  12
   7   1   5 12322.8 2713.78  15
   7   1   5 17504.7 4146.00   8
  -7  -1  -5 13082.3 2241.09   4
   7  -1   5 11915.2 1964.60  14
   7   1  -5 12944.2 3121.42   7
  -7   1  -5 15235.1 3800.07  13
  -7   1   5 12577.5 3666.34   2
   7  -1   5 13311.5 2596.72  15
   7  -1  -5 12788.1 3096.48   7
   7   1   5 10797.2 978.781   5
  -7  -1  -5 21812.3 6199.92  13
   7   1  -5 12319.3 1191.14  12
  -7  -1   5 6823.91 1510.28  13
   7   1   5 13003.7 2466.20  14
   7   1  -5 12521.5 1381.33   6
  -7  -1   5 9826.81 2833.31   2
   8   1   5 1594.70 984.055  15
   8   1   5 1833.76 444.649   2
   8  -1  -5 1632.58 1183.45   7
   8   1  -5 869.037 764.650   7
  -8  -1  -5 2054.01 923.241   4
   8   1  -5 1542.40 507.544   6
   8   1   5 3710.26 1961.94   8
  -8   1  -5-1577.39 2777.68  13
   8  -1  -5 1973.20 769.539  12
  -8   1   5 2265.27 1759.83   2
   8  -1   5 2409.05 1333.16  15
   8   1  -5 2109.61 598.766  12
  -8  -1   5 582.412 633.552  13
  -8  -1   5 555.668 885.592   2
  -8   1  -5 1910.34 1038.68  10
   8  -1   5 1799.76 948.570  14
   8   1   5 1251.29 789.810  14
   9   1   5 357.737 392.227   8
  -9   1   5 24.1805 581.457   2
  -9  -1   5-1447.43 1055.70  13
   9  -1  -5 215.990 384.896  12
  -9   1  -5 454.024 738.760  10
   9  -1  -5-404.651 803.114   7
   9  -1   5 440.938 532.616  14
   9  -1   5 255.651 154.747  15
   9   1   5 215.510 464.906  14
  -9   1  -5-3883.05 3962.84  13
   9   1   5-336.066 706.242  15
  -9  -1  -5 4020.73 3338.52  13
  -9  -1   5-489.427 880.644   2
   9   1  -5 122.735 40.4696  12
  -9  -1  -5 5.29596 459.393   4
   9   1  -5-314.023 382.352   7
  10   1  -5 1432.77 990.994  14
  10   1   5 1187.20 955.112  14
 -10   1  -5-3471.66 3879.28  13
  10  -1   5 648.205 449.159  14
  10   1  -5 653.535 883.138   7
 -10  -1   5 507.107 836.062   2
  10  -1  -5 881.190 846.364   7
 -10   1  -5 476.021 629.486  10
  10   1  -5 704.812 440.066  12
 -10   1   5 1915.64 1805.38   2
 -10  -1  -5 5579.25 3758.79  13
 -10  -1  -5 1130.28 743.323   4
  10  -1   5 1069.51 659.422  15
  10   1   5 1437.59 966.247  15
  10  -1  -5 1156.41 668.264  12
 -11  -1  -5 14800.4 5471.74  13
  11  -1   5 6165.75 1919.82  15
 -11   1  -5-95.2932 3400.44  13
  11   1   5 4710.29 1801.76  15
  11  -1   5 7407.52 1783.80  14
  11   1  -5 5701.59 2342.16   7
  11   1  -5 4698.78 1825.95  14
  11  -1  -5 5188.11 1469.35  12
 -11   1  -5 7357.35 2120.16  10
 -11  -1   5 4993.60 2142.74   2
 -11  -1  -5 5030.09 1755.78   4
  11  -1  -5 4129.28 2002.49   7
 -11   1   5 6307.41 2554.42   2
  11   1   5 5578.66 1904.40  14
 -12  -1  -5 19590.1 3648.48   4
  12   1  -5 17268.0 3914.28  14
  12  -1  -5 17330.9 4025.18   7
  12   1   5 21778.8 3684.30  14
  12  -1   5 24285.6 3545.97  14
  12   1   5 20869.8 4056.67  15
  12   1  -5 20650.6 4456.47   7
 -12   1  -5 21829.9 3675.72  10
 -12   1   5 17924.1 3351.89   9
 -12   1   5 19338.0 4307.35   2
  12  -1   5 19845.9 3501.25  15
 -12  -1  -5 41741.0 9570.49  13
 -12  -1   5 21140.3 4395.67   2
  12  -1  -5 18449.1 2855.08  12
 -12   1  -5 19585.9 5507.43  13
  13   1  -5-609.117 971.475   7
  13  -1   5 358.367 494.122  14
  13   1   5 698.608 728.797  15
  13  -1   5 480.971 408.576  15
 -13   1   5 394.599 391.094   2
  13   1   5 865.539 772.611  14
 -13  -1   5 1304.37 1341.93   2
 -13  -1  -5 3173.94 3218.28  13
  13  -1  -5 345.350 802.244   7
 -13   1   5-92.2312 304.329   9
 -13   1  -5-30.1809 644.725  10
 -13  -1  -5-169.947 875.908   4
  13   1  -5 669.350 901.218  14
  13  -1  -5 550.818 552.397  12
  14  -1  -5-13.4989 244.626   7
  14   1  -5 285.989 773.683  14
 -14   1   5-1551.48 1412.38   2
  14   1   5 96.1028 452.597  15
 -14  -1  -5 6168.92 3981.78  13
 -14  -1   5 3933.46 3266.79   5
 -14  -1   5 871.110 1236.27   2
  14   1   5-409.902 927.968  14
  14  -1   5 72.1890 179.036  15
 -14   1   5-1463.21 1034.33  10
 -14   1  -5 334.797 589.555  10
 -14  -1  -5 456.405 546.903   4
 -14   1   5 617.265 635.849   9
 -14   1  -5 1977.81 2947.57  13
  14   1  -5 81.9617 1049.63   7
 -15  -1  -5 8300.10 4194.08  13
  15   1   5 2862.62 1513.22  15
 -15   1   5 2076.63 1213.96   1
 -15   1   5 2759.20 1269.66   2
 -15  -1  -5 2443.04 1205.77   4
 -15  -1   5 3339.46 1816.66   2
  15   1  -5 2245.77 1420.48   7
 -15   1  -5 14625.3 6178.33  13
  15  -1   5 2990.95 1383.96  15
  15  -1   5 16989.2 6201.17  12
 -15  -1   5 6406.73 3573.73   5
  15   1   5 2405.41 1236.03  14
  15  -1  -5 2245.61 1742.27   7
 -16   1  -5 16086.1 6752.62  13
 -16  -1  -5 9631.03 2942.58   4
 -16  -1  -5 17146.8 6040.48  13
 -16  -1   5 6589.96 2299.56   1
  16  -1  -5 10136.7 3146.60   7
 -16   1   5 6052.98 2228.83   2
  16   1   5 11777.6 3156.67  14
 -16   1   5 6374.10 2499.92   1
 -16  -1   5 16975.1 5624.26   5
  16   1  -5 10334.3 3220.96   7
 -17  -1   5 116.141 502.661   1
  17   1   5 2220.16 1443.67  14
  17  -1  -5 1237.97 1072.96   7
 -17  -1  -5-548.200 1153.76   4
  17   1  -5-208.269 1157.91   7
 -17   1  -5 7600.97 4610.17  13
 -17   1   5 2179.97 1643.22   1
  17  -1   5 10757.6 5158.91  12
 -17  -1  -5 2954.29 2916.16  13
 -17  -1   5 2817.56 2535.51   5
 -18  -1   5 241.274 694.689   1
 -18  -1   5 1427.81 1881.88   5
  18   1  -5 1672.92 1326.26   7
   0   1  -6 348.555 274.446   3
   0  -1  -6-9.40157 128.461   3
   0  -1  -6 145.497 214.212  13
   0   1  -6 436.638 431.221   7
   0  -1  -6 123.412 136.787  11
   0   1   6-258.918 1439.46   8
   0  -1  -6 212.188 487.422   7
   0  -1   6-351.556 851.854   8
  -1   1  -6 16139.3 2211.21  13
   1  -1  -6 14682.4 1962.91  13
   1  -1  -6 16148.8 2462.24   7
  -1  -1   6 12484.7 1113.07  12
  -1   1  -6 14852.3 1757.34   3
  -1   1   6 12825.6 4172.69   2
   1   1   6 10238.2 3670.87   2
  -1  -1  -6 13919.0 2725.48  13
   1   1  -6 12877.1 1304.47   3
   1  -1  -6 16134.5 2027.41   3
  -1   1  -6 16042.2 2407.60   7
   1   1   6 11824.2 3613.75   8
  -1  -1   6 13998.2 2780.49   8
  -1   1   6 13477.4 3538.11   8
  -1  -1  -6 16870.7 2244.90   7
   1  -1   6 18312.7 3169.92   8
  -1  -1  -6 15197.9 1960.73   3
   1   1  -6 16684.7 2642.61   7
  -2  -1  -6 814.921 466.491   3
  -2  -1  -6 933.595 526.631   7
  -2   1   6-147.396 560.917   2
   2  -1   6 753.606 423.739  11
   2   1   6 204.610 325.685   8
  -2   1  -6 888.418 444.679   7
   2   1  -6 573.863 236.940   3
   2   1  -6 1059.66 687.213   7
   2  -1  -6 611.057 333.727  13
   2   1   6 988.995 990.342   2
  -2   1   6 549.381 288.105   8
   2  -1   6 580.803 433.369   8
  -2  -1  -6-1150.77 1856.32  13
   2  -1  -6 1007.38 642.468   7
  -2   1  -6 2060.90 1111.58  13
  -3   1  -6 37369.7 4559.37  13
   3   1   6 26043.4 5274.31   8
   3  -1   6 28569.7 2316.25  11
  -3   1  -6 29794.7 3192.07   7
   3  -1  -6 33132.0 4089.21   7
   3   1  -6 30853.1 3920.50   7
  -3   1   6 30678.8 6468.04   2
  -3  -1  -6 31264.3 2824.95   7
  -3  -1  -6 30204.0 3005.92   3
   3  -1   6 33605.0 4240.43   8
  -3   1   6 19146.5 1365.43   6
  -3  -1   6 26327.7 4397.40   8
   3  -1   6 39465.1 3481.24   5
  -3  -1  -6 30229.8 5138.30  13
   3   1   6 31790.8 6065.01   2
  -4  -1  -6 6486.06 1446.27  13
   4  -1   6 7521.53 1191.29   5
   4  -1  -6 7828.49 1289.89  12
  -4  -1  -6 7242.50 1572.83   3
   4  -1   6 6477.81 1118.12  11
   4   1   6 8117.69 2636.74   2
  -4  -1  -6 7686.31 1377.55   7
  -4   1  -6 7995.03 1700.94   7
   4   1   6 5632.34 2301.17   8
  -4  -1   6 5150.21 2167.97   8
   4   1  -6 6984.53 1991.60   7
   4  -1   6 8360.21 2242.51   8
  -4   1  -6 8191.35 2287.02  13
  -4  -1   6-578.991 595.652  13
   4  -1  -6 7155.59 2145.05   7
  -4   1   6 5999.55 2591.41   2
   5  -1  -6 3713.17 1600.87   7
   5   1   6 3793.98 1653.98   8
  -5  -1  -6 1221.55 1025.87  13
   5  -1  -6 2909.64 728.347  12
  -5  -1  -6 2874.45 1051.12   3
  -5   1  -6 4376.35 1731.78  13
   5   1   6 3755.87 1459.45   2
  -5   1  -6 2999.94 1044.60   7
  -5  -1  -6 3078.76 857.499   7
   5  -1   6 2704.01 548.326   5
  -5   1   6 2767.11 1860.24   2
   5   1  -6 1970.28 997.763   7
  -5  -1   6 1701.77 560.680   8
   5   1   6 2473.61 1357.18  15
   5  -1   6 4239.00 1555.70   8
   6   1  -6 38138.2 5138.01   7
  -6   1  -6 36329.1 3605.07   7
  -6   1   6 39246.5 7299.98   2
   6   1   6 60952.5 6179.60   2
   6  -1   6 33882.9 3535.21  14
  -6  -1  -6 54652.3 8718.86  13
   6   1   6 48666.4 7310.43   8
  -6  -1   6 28915.5 4919.71   8
  -6  -1  -6 40879.4 4393.31   3
   6  -1  -6 36420.8 2854.28  12
   6  -1  -6 40610.3 5404.87   7
  -6   1  -6 47241.1 7030.08  13
   6   1   6 36017.2 4411.30  14
   6  -1   6 44155.2 5002.13   8
  -6  -1  -6 37114.7 3000.98   7
  -6  -1   6 30758.8 5495.25   2
   6   1   6 34136.9 4780.67  15
  -7   1   6 14931.7 4247.00   2
  -7  -1  -6 19568.0 5749.14  13
   7  -1  -6 11731.2 1675.21  12
  -7  -1   6 9099.01 2686.03   8
   7   1   6 18538.5 4533.27   8
  -7   1  -6 13818.0 2714.02  10
   7   1   6 20055.3 2890.91   2
   7  -1  -6 11912.4 3205.59   7
   7  -1   6 15888.2 2957.47   8
   7   1   6 11438.2 2789.25  15
   7   1  -6 13465.3 3300.08   7
  -7  -1  -6 10565.7 1577.59   7
   7   1   6 10817.5 2415.06  14
  -7   1  -6 11307.2 2013.39   7
   7  -1   6 9985.53 2067.30  14
  -7   1  -6 13699.2 3928.63  13
  -7  -1   6 8559.59 2761.67   2
   8   1   6 8007.67 2161.16  14
  -8  -1   6 8562.23 2752.11   2
   8  -1   6 8634.96 2301.58  15
   8   1  -6 9684.00 3015.83   7
   8  -1  -6 8479.05 1499.70  12
  -8   1  -6 9396.39 2311.62  10
  -8   1  -6 8347.73 2883.21  13
  -8   1   6 11214.8 3848.63   2
   8  -1   6 12571.2 2705.68   8
  -8  -1  -6 16202.6 5596.87  13
   8  -1   6 8091.12 1847.37  14
   8  -1  -6 9809.85 2863.86   7
   8   1   6 14380.7 4006.65   8
   8   1   6 9653.33 2576.76  15
  -9  -1  -6 3047.07 3388.38  13
   9  -1   6 814.157 663.647  14
  -9   1  -6 227.245 416.867  10
  -9  -1   6-497.307 1259.42   2
   9  -1   6 630.167 588.164  15
   9  -1  -6 202.423 738.133   7
   9  -1  -6 318.064 313.495  12
   9   1   6 59.2852 472.857  15
   9   1  -6 2007.98 1700.17   7
  -9   1   6 2118.80 1888.65   2
   9  -1   6 1085.75 982.023   8
   9   1   6 240.628 383.444   8
   9   1   6 727.546 742.397  14
  10   1   6 2436.05 1338.17  15
  10  -1   6 4238.56 1332.87  14
  10  -1   6 4253.40 1815.57   8
 -10  -1  -6 10118.9 5023.13  13
 -10   1  -6 1766.03 813.108  10
  10   1  -6 3079.97 1736.25   7
 -10   1   6 3293.37 2551.97   2
  10   1   6 3191.73 1476.00  14
 -10  -1  -6 3876.58 1512.52   4
  10  -1   6 3439.77 1434.40  15
  10  -1  -6 3148.63 1599.31   7
  10  -1  -6 3426.70 1132.68  12
 -10   1  -6-715.952 2203.45  13
 -10  -1   6 3313.50 1599.04   2
 -11   1  -6-661.015 737.427  13
 -11  -1  -6 8604.23 4279.01  13
  11   1   6 3509.99 1463.18  14
 -11   1   6 5031.65 2895.64   2
 -11   1  -6 1495.65 1066.10  10
  11  -1   6 3264.11 1659.44   8
  11   1   6 2955.95 1508.02  15
 -11  -1  -6 2185.93 1169.76   4
  11  -1   6 3025.16 1118.72  14
 -11  -1   6 2253.19 1731.02   2
  11  -1  -6 2423.34 1559.12   7
  11  -1   6 1875.48 1005.39  15
  11   1  -6 2581.74 1820.00   7
  12   1   6 14340.9 3178.06  14
 -12  -1   6 18248.6 4420.46   2
 -12  -1  -6 13563.8 2993.01   4
 -12  -1  -6 29753.6 7603.08  13
  12   1  -6 14117.3 3866.72   7
 -12   1  -6 13778.7 3084.73  10
  12  -1  -6 11997.8 3339.80   7
 -12   1  -6 21303.1 6375.49  13
  12  -1   6 13569.2 3065.92  15
  12   1   6 13343.0 3331.76  15
 -12   1   6 14686.0 4181.59   2
 -13  -1  -6 894.236 288.471   4
 -13  -1   6 2499.14 1699.20   2
 -13  -1  -6 6155.62 3940.28  13
  13  -1   6 1240.74 681.664  15
  13   1   6 1771.94 1436.91  15
 -13   1  -6 2059.26 1065.95  10
 -13   1   6 269.877 299.146   9
  13  -1  -6 1577.63 1338.13   7
  13   1  -6 2129.24 1906.38   7
  13   1   6 1549.24 917.690  14
 -13   1   6 2169.24 1382.46   2
  14   1   6 6045.83 2189.52  14
  14   1   6 5118.96 2193.58  15
 -14   1   6 4723.39 1836.71   9
  14   1  -6 6922.33 3091.02   7
 -14   1   6 3382.93 1908.35   2
 -14  -1  -6 12162.2 5103.71  13
  14  -1  -6 4391.13 2110.14   7
 -14  -1   6 5515.68 2537.68   2
  14  -1   6 5159.28 1998.12  15
 -14  -1  -6 3215.57 1373.39   4
 -15   1   6 11252.9 3538.57   2
 -15  -1  -6 11609.5 3012.44   4
 -15  -1   6 12146.7 3606.93   2
 -15   1  -6 25985.5 7954.56  13
  15   1   6 12415.7 3450.04  15
  15   1  -6 12461.4 3886.98   7
 -15  -1   6 21697.3 6804.07   5
  15   1   6 14137.9 3314.06  14
 -15  -1  -6 21197.6 6452.71  13
  15  -1  -6 10164.7 3221.33   7
 -16   1   6-1324.76 1363.88   1
 -16   1   6 85.0214 432.480   2
  16   1  -6 3597.13 2314.97   7
  16   1   6-649.103 1055.67  15
 -16  -1   6 2949.61 3072.51   5
  16  -1  -6 231.995 1142.74   7
 -16  -1  -6-565.079 1379.97   4
 -16  -1  -6 2578.64 2729.78  13
  17   1  -6 6135.79 2890.51   7
 -17  -1   6-706.517 1392.86   1
 -17  -1   6 4646.96 3191.84   5
   0   1  -7 115081. 7202.07   7
   0  -1  -7 109987. 5588.58   3
   0   1  -7 107698. 4432.59   3
   0   1   7 118227. 12155.7   8
   0  -1   7 119882. 9364.01   8
   0  -1  -7 114794. 6706.76   7
   0  -1  -7 109184. 6096.49  13
   1  -1  -7 152.702 244.851   3
  -1  -1  -7 592.260 359.110   7
   1  -1  -7 170.916 330.205   7
  -1   1  -7 670.261 645.680   7
   1   1  -7-8.29647 63.2323   3
   1   1   7 2555.05 2777.81   2
   1   1  -7 166.982 150.466   7
  -1   1   7-633.520 1225.09   2
  -1  -1  -7 161.754 262.754   3
   1  -1   7-295.875 690.069   8
  -1   1  -7-55.2299 199.234   3
  -1  -1  -7 2955.24 1560.88  13
   1   1   7-1501.09 1708.27   8
  -1  -1   7-865.137 1571.59   8
   1  -1  -7 1969.44 828.611  13
  -1   1   7-1245.15 1966.64   8
   2  -1  -7 3289.56 630.193  13
  -2  -1  -7 5042.33 1844.54  13
   2   1  -7 4918.34 1561.92   7
   2   1  -7 3628.71 714.892   3
  -2  -1   7 3355.79 1440.63   8
   2   1   7 3353.05 1302.42   8
  -2   1  -7 4499.04 1317.53   7
  -2   1  -7 5013.46 1376.84  13
  -2  -1  -7 4452.75 1147.03   3
  -2   1   7 3981.60 2502.10   2
   2  -1   7 4139.09 1389.75   8
   2  -1  -7 5405.24 1631.72   7
   2  -1  -7 4767.64 1092.22   3
  -2  -1  -7 4671.64 1234.33   7
   2   1   7 9129.76 3726.75   2
   3  -1  -7 8007.57 2157.35   7
  -3  -1  -7 7154.85 1496.24   7
   3  -1   7 8357.11 2301.59   8
   3   1   7 11737.4 4241.89   2
   3  -1   7 7877.87 1318.44  11
  -3  -1   7 7608.59 2427.95   8
   3  -1   7 10530.2 2010.25   5
   3   1   7 7375.18 2651.02   8
  -3   1  -7 10018.6 2438.52  13
  -3   1  -7 7920.05 1776.26   7
   3   1  -7 7591.30 1128.69   3
   3   1  -7 8110.34 2139.80   7
  -3   1   7 8475.73 3745.95   2
  -3  -1  -7 8904.31 2767.28  13
  -3  -1  -7 8446.06 1721.09   3
  -4  -1  -7 17589.5 4132.83  13
   4  -1  -7 18057.6 3271.07   7
   4  -1   7 16986.0 1848.86  11
  -4  -1   7 12922.6 3422.91   8
   4  -1   7 18323.2 3451.88   8
   4  -1   7 18010.2 2145.96   5
   4   1   7 21227.0 5008.74   8
  -4   1  -7 13596.2 2288.49   7
   4   1  -7 16235.2 3170.57   7
  -4  -1  -7 15984.0 2136.56   7
  -4   1   7 15298.7 4607.60   2
  -4   1  -7 20396.8 3620.48  13
   4   1   7 27937.2 5433.55   2
  -4  -1  -7 16531.5 2478.78   3
   5   1   7 3185.29 1137.77   8
  -5  -1  -7 2328.59 822.625   7
  -5   1  -7 3876.09 1633.19  13
   5   1   7 4362.42 1785.38   2
   5  -1   7 2158.28 953.202   8
  -5   1  -7 2444.28 1012.62   7
   5   1  -7 1949.70 1164.76   7
  -5  -1  -7 3240.65 1542.90  13
  -5   1   7 3083.00 1121.56   2
  -5  -1  -7 3115.33 1267.96   3
  -5  -1   7 752.055 751.510   8
   5  -1   7 2342.77 657.208  11
   5  -1  -7 3298.76 1537.03   7
   6   1   7-33.5324 503.825  15
  -6  -1   7-1006.71 1081.68   2
  -6   1   7 4.20048 870.123   2
  -6  -1  -7 38.6666 222.558   7
  -6  -1  -7 1848.21 1937.52  13
   6  -1   7 84.2955 272.801  14
   6  -1  -7 45.9138 337.571   7
  -6  -1  -7-59.6695 573.125   3
  -6   1  -7 490.681 1087.71  13
   6   1   7-482.486 946.060   2
   6  -1   7 21.8939 101.067  11
   6  -1   7-206.602 881.631   8
  -6  -1   7 265.354 614.310   8
   6   1   7-29.0528 1017.54   8
   6  -1  -7 590.173 444.400  12
   6   1  -7 157.111 395.596   7
  -6   1  -7-15.0134 162.783   7
  -7   1  -7 10628.4 3269.89  13
   7  -1  -7 7334.60 2543.63   7
  -7   1  -7 7284.45 1778.13   7
   7  -1   7 10078.9 2604.93   8
   7  -1   7 5237.85 1637.15  14
   7   1   7 5683.23 2193.73  15
   7   1   7 5627.78 2025.36  14
  -7   1   7 8268.32 3576.84   2
   7   1   7 12894.4 3734.24   8
   7   1  -7 7149.45 2528.60   7
  -7  -1  -7 6228.15 1345.39   7
  -7  -1  -7 9977.30 3902.40  13
  -7  -1   7 3689.03 2093.59   8
  -7  -1   7 5956.33 2532.96   2
  -8  -1  -7 6107.64 3195.88  13
   8   1  -7 3534.27 1878.49   7
  -8   1   7 3959.93 2366.66   2
  -8   1  -7 4668.05 2202.80  13
   8  -1   7 5469.23 1732.40   8
   8   1   7 3387.23 1520.52  15
  -8  -1   7 2536.32 1394.16   2
   8   1   7 5482.31 2681.88   8
   8  -1   7 3348.57 1514.68  15
   8   1   7 3458.60 1429.28  14
   8  -1   7 2814.17 1161.17  14
   8  -1  -7 4591.48 1980.02   7
  -9   1  -7 423.389 726.515  13
  -9  -1   7-225.695 1042.89   2
   9  -1   7-73.3293 716.827   8
   9  -1   7 569.426 374.755  15
   9  -1   7 680.484 803.054  14
   9   1   7 910.065 882.575  15
  -9  -1  -7 5316.21 3160.44  13
   9  -1  -7 653.425 1153.26   7
  -9   1   7 1852.23 1971.84   2
   9   1   7 257.469 1196.91   8
   9   1  -7 1359.51 1478.08   7
   9   1   7 256.213 398.498  14
  10   1  -7 7130.80 3075.55   7
 -10   1  -7 8970.16 3972.23  13
  10  -1  -7 5517.94 2422.98   7
  10  -1   7 10380.9 2704.40   8
  10   1   7 4672.04 1912.78  15
 -10   1   7 6402.13 3211.31   2
  10  -1   7 5017.21 1970.22  15
 -10  -1  -7 10943.0 4659.50  13
  10   1   7 4889.79 1784.97  14
 -10  -1   7 5971.83 2538.32   2
 -11  -1  -7 5872.50 3657.79  13
  11   1   7 2924.29 1646.51  15
 -11   1  -7 8949.32 4615.92  13
  11   1  -7 4138.28 2427.05   7
  11  -1  -7 3770.12 2003.53   7
  11   1   7 2561.38 1452.27  14
  11  -1   7 2285.66 1321.26  15
 -11   1   7 5206.97 3072.62   2
 -11  -1   7 4396.61 2171.95   2
  12  -1   7-281.712 1053.63  15
 -12  -1  -7 4103.61 3304.65  13
  12  -1  -7 56.9667 565.083   7
  12   1  -7 2958.25 2181.67   7
  12   1   7 802.467 956.286  14
 -12   1   7 2952.56 2144.97   2
  12   1   7 187.424 385.717  15
 -12  -1   7 1457.73 1614.79   2
 -12   1  -7 5515.10 4137.15  13
 -13  -1  -7 3887.07 2973.06  13
  13   1   7 457.712 653.753  15
  13   1  -7 3179.48 2542.68   7
 -13   1   7 1232.78 1716.66   2
  13  -1  -7 607.972 963.171   7
 -13  -1   7 641.340 1633.14   2
  13  -1   7 931.875 1140.47  15
  13   1   7 409.770 710.421  14
  14  -1   7 4182.07 2026.59  15
  14  -1  -7 3243.21 1912.19   7
 -14   1  -7 12459.0 5548.00  13
 -14  -1   7 5597.85 2827.43   2
  14   1   7 3103.11 1667.06  15
 -14   1   7 4681.02 2781.20   2
 -14  -1  -7 8448.10 4129.64  13
  14   1  -7 7829.97 3419.47   7
 -14   1   7 4854.20 2085.84   9
  14   1   7 3937.09 1749.34  14
  15   1  -7 6372.08 3262.79   7
 -15  -1  -7 4981.48 3437.56  13
  15  -1   7 16158.9 6771.82  12
 -15  -1   7 12193.3 5368.79   5
  15   1   7 1315.41 1263.81  15
  15  -1  -7 768.967 1352.57   7
 -15   1  -7 9831.41 5058.69  13
 -15  -1   7 3070.02 2284.31   2
 -15   1   7 1281.54 899.046   2
 -16  -1   7 1998.31 1778.10   2
 -16   1   7-852.304 783.425   2
  16   1   7 776.842 1197.71  15
 -16  -1   7 5123.42 3533.50   5
  16   1  -7 3493.79 2628.17   7
 -17   1   7-984.264 1439.13   2
   0  -1  -8 783.802 649.298  13
   0   1  -8 462.836 509.762   7
   0  -1  -8-226.946 493.097   7
   0   1   8-3143.40 3315.95   8
   0  -1  -8 62.5166 146.348   3
   0  -1   8-1281.98 1481.05   8
   0   1   8-854.993 2269.80   2
  -1  -1  -8 5619.73 1478.11   7
  -1   1   8 1528.48 1459.80   8
   1  -1  -8 5214.59 1616.54   7
   1  -1   8 2637.79 595.962   8
   1   1  -8 4725.97 1494.10   7
  -1   1  -8 5324.09 1561.96   7
  -1  -1  -8 6196.24 1794.35  13
   1   1   8 8805.22 3532.31   2
   1   1   8 4471.95 1703.82   8
  -1   1   8 4945.90 2051.17   2
  -1  -1  -8 5094.37 1291.06   3
  -1  -1   8 7407.66 2488.76   8
   1  -1  -8 4545.89 1219.11   3
   2   1  -8 209.563 704.552   7
   2   1   8-1866.08 2553.55   8
  -2  -1  -8 413.772 336.063   3
   2  -1  -8 308.831 206.386   3
   2  -1  -8 598.636 714.584   7
  -2   1  -8 875.465 616.039   7
  -2  -1  -8 525.945 482.633   7
  -2   1  -8 740.361 519.660  13
  -2  -1  -8 2500.40 1400.55  13
   2   1   8 1820.04 2196.71   2
  -2  -1   8 868.262 908.578   8
   2  -1   8-809.719 1412.48   8
  -2   1   8-1138.64 2307.44   2
  -3   1  -8 7821.96 1841.84   7
   3  -1  -8 7038.21 1586.91   3
  -3  -1   8 5772.01 2357.35   8
   3  -1   8 8923.38 2469.15   8
   3   1   8 7766.95 2534.10   8
  -3   1  -8 7372.04 1822.97  13
   3   1   8 15500.0 4863.76   2
   3  -1   8 9581.24 2105.81   5
  -3  -1  -8 6894.64 1585.69   3
   3   1  -8 6522.09 1893.94   7
  -3   1   8 5161.46 1543.73   2
  -3  -1  -8 6646.79 1560.12   7
   3  -1  -8 6868.88 2043.21   7
  -3  -1  -8 10166.5 2821.51  13
  -4  -1  -8 3394.28 2007.29  13
   4   1   8-678.787 2512.46   8
   4   1  -8 523.549 250.861   7
  -4  -1  -8 1175.67 642.940   7
  -4   1  -8 1558.71 816.298   7
  -4  -1   8-85.0135 601.517   8
   4  -1  -8 1180.19 937.943   7
  -4  -1  -8 757.513 475.739   3
  -4   1   8 463.561 1718.48   2
   4   1   8 1103.78 1445.82   2
  -4   1  -8 1616.26 871.216  13
   4  -1   8 428.517 735.343   8
   5   1   8 180.144 1655.06   8
  -5  -1  -8 1608.50 1588.06  13
  -5   1  -8 1191.59 624.174   7
  -5  -1  -8 1352.84 709.625   7
  -5  -1  -8 1218.68 734.020   3
   5  -1   8 1317.19 299.348   8
  -5   1   8-187.354 1576.06   2
   5   1   8 2913.85 1503.07   2
  -5  -1   8 133.952 738.449   8
   5  -1  -8 2110.10 1458.18   7
  -5   1  -8 1964.93 1379.12  13
   5   1  -8 1299.46 1068.68   7
  -5  -1   8 3258.90 2174.79   2
  -6   1   8 19048.0 5366.43   2
  -6  -1   8 14423.0 3933.55   8
  -6  -1  -8 17924.2 2418.93   7
  -6   1  -8 25126.5 4691.21  13
   6  -1  -8 18986.4 3974.16   7
   6  -1   8 20753.0 4039.43   8
  -6  -1  -8 20808.7 3440.06   3
   6   1  -8 16586.7 3727.92   7
   6  -1   8 15280.3 2887.50  14
  -6  -1   8 23727.6 5412.54   2
   6   1   8 30479.0 6499.51   8
  -6  -1  -8 24754.7 5208.81  13
  -6   1  -8 17304.7 2783.58   7
   6   1   8 17419.1 4178.52  15
   6   1   8 33846.2 5540.69   2
  -7  -1   8 2008.15 1564.86   2
  -7  -1  -8 3898.55 2271.19  13
   7  -1  -8 2055.32 1658.18   7
  -7  -1   8 931.735 789.704   8
   7   1   8 2471.13 1728.72  15
  -7   1  -8 1672.87 948.958   7
  -7   1  -8 2102.64 1538.05  13
   7  -1   8 1503.47 319.914   8
   7  -1   8 1209.17 786.268  14
   7   1   8 1241.26 1181.95  14
  -7   1   8 940.817 380.893   2
   7   1  -8 1082.85 891.750   7
   7   1   8 3151.16 1364.26   8
  -8   1  -8 20508.0 3064.90   7
  -8  -1   8 22038.8 5071.72   2
   8  -1   8 30707.6 4925.91   8
   8  -1  -8 21610.3 4321.29   7
  -8   1   8 24731.6 6220.01   2
   8   1   8 44994.7 8063.71   8
   8  -1   8 20638.7 4359.86  15
  -8   1  -8 33464.6 6246.89  13
   8   1  -8 21362.6 4576.05   7
   8   1   8 20373.4 3773.13  14
   8   1   8 21807.8 4552.95  15
  -8  -1  -8 35340.2 6816.62  13
   9   1  -8 5890.96 2420.58   7
  -9  -1  -8 11583.3 4378.47  13
  -9   1  -8 8617.42 3471.36  13
  -9   1   8 9826.16 4190.31   2
   9  -1  -8 6656.83 2423.90   7
   9   1   8 5504.86 2429.26  15
   9  -1   8 6272.00 2447.59  15
  -9  -1   8 5514.91 2600.35   2
   9   1   8 5802.39 1985.59  14
   9  -1   8 9226.45 2515.79   8
 -10   1  -8 7673.67 3293.71  13
 -10  -1  -8 13078.2 4848.83  13
  10  -1  -8 6682.76 2678.15   7
 -10   1   8 11564.3 4302.97   2
  10   1   8 5577.80 2263.34  15
 -10  -1   8 7938.37 3299.86   2
  10  -1   8 13235.6 3148.51   8
  10   1  -8 9335.84 3259.48   7
  10  -1   8 6671.49 2375.86  15
  10   1   8 7135.80 2242.70  14
 -11   1  -8 1416.49 1835.89  13
  11  -1  -8 368.285 867.184   7
  11   1  -8 1197.27 1697.85   7
  11  -1   8-266.610 631.971  15
 -11   1   8 3458.13 2783.24   2
 -11  -1  -8 3521.27 2955.61  13
  11   1   8 572.607 865.462  14
  11   1   8 137.160 849.738  15
 -11  -1   8-490.787 217.687   2
  12   1   8 19183.4 4387.76  15
 -12  -1  -8 25336.5 6763.87  13
  12  -1  -8 15594.9 4162.43   7
 -12   1   8 21018.6 5827.61   2
  12  -1   8 18687.8 4071.13  15
  12   1  -8 18680.1 4811.82   7
  12   1   8 20979.5 4027.90  14
 -12  -1   8 21032.9 5122.34   2
 -12   1  -8 28416.7 7584.10  13
 -13  -1  -8 6460.31 3595.54  13
  13   1  -8 1822.72 1778.51   7
  13   1   8 1494.62 1289.47  15
 -13   1   8 4333.91 3027.16   2
 -13   1  -8 7105.73 4404.22  13
 -13  -1   8 2148.17 1495.46   2
  13  -1  -8 40.3063 214.270   7
  13  -1   8 265.897 688.316  15
  14  -1  -8 782.486 1059.27   7
 -14   1   8 2114.31 1966.80   2
 -14   1   8 1354.62 1524.32   9
  14  -1   8-528.200 380.589  15
 -14  -1  -8 3641.99 3066.22  13
 -14   1  -8 4038.16 3704.55  13
  14   1   8 600.823 543.465  15
 -14  -1   8 1901.42 2048.07   2
  14   1  -8 3956.94 2697.54   7
  15   1   8 1418.29 1612.58  15
 -15   1   8 623.395 1221.46   2
 -15  -1   8 2619.83 1843.55   2
   0  -1  -9 26173.7 3797.64   7
   0  -1  -9 24933.9 3029.84   3
   0   1  -9 24758.7 3871.12   7
   0  -1   9 28624.4 5626.29   8
   0   1   9 25863.4 6008.45   8
  -1  -1   9 2241.36 1629.51   8
   1  -1   9 4343.92 1995.55   8
   1   1  -9 2395.77 1305.30   7
   1   1   9 265.007 1607.05   8
   1  -1  -9 2342.02 1114.99   7
  -1  -1  -9 2635.72 1096.65   7
  -1  -1  -9 2331.47 945.509   3
  -1   1  -9 3024.92 1237.50   7
  -1   1   9 2085.56 389.569   2
   1  -1  -9 2346.55 895.217   3
   1   1   9 4206.45 2286.30   2
  -2  -1  -9 13053.1 2703.95  13
  -2   1  -9 11697.7 2469.23   7
  -2  -1   9 11801.4 3598.57   8
   2   1  -9 10686.0 2681.49   7
   2  -1   9 14669.7 3300.73   5
   2  -1  -9 10596.3 1994.55   3
   2   1   9 18452.9 5217.45   2
   2  -1   9 14301.7 3705.41   8
  -2   1   9 16135.6 5085.14   2
  -2  -1  -9 11539.6 2290.56   7
   2  -1  -9 10000.9 2493.58   7
   2   1   9 12652.5 3826.45   8
  -2  -1  -9 11261.8 2106.88   3
  -3  -1   9-3297.78 2290.39   8
  -3  -1  -9-57.9357 302.739   7
  -3   1  -9-143.342 598.558   7
  -3  -1  -9 295.315 439.410   3
   3   1   9-2315.69 3249.87   8
   3  -1  -9-201.238 386.553   3
   3   1  -9 193.023 715.525   7
  -3  -1  -9 3195.79 1907.98  13
   3  -1  -9 52.5803 118.666   7
   3  -1   9-1107.85 1426.06   8
  -3   1   9-1446.19 2162.95   2
   3   1   9-861.310 2181.03   2
  -3   1  -9-61.9693 288.103  13
  -3  -1   9 3317.68 2688.14   2
  -4  -1  -9 1340.98 585.031   7
   4   1  -9 299.635 600.023   7
   4  -1  -9 1778.73 1197.91   7
  -4  -1   9-218.910 1580.60   8
  -4  -1  -9 1982.43 931.243   3
  -4   1  -9 1317.79 687.740   7
   4   1   9-1294.50 2826.28   8
   4   1   9 1435.70 795.283   2
  -4  -1  -9 3786.15 2060.40  13
   4  -1   9-482.187 1892.44   8
  -4   1  -9 2526.78 1183.88  13
  -4  -1   9 2238.58 2237.68   2
   4  -1  -9 1484.15 888.457   3
  -4   1   9 1833.24 886.958   2
   5  -1  -9 1125.97 1103.40   7
  -5  -1  -9 2304.33 1903.41  13
  -5  -1  -9 903.130 479.037   7
   5   1  -9-471.349 878.357   7
  -5   1  -9 739.041 879.481  13
  -5  -1   9-7.93002 1035.26   8
   5   1   9-1541.77 2779.64   8
  -5   1   9-1415.26 2143.67   2
   5   1   9 2721.22 1434.28   2
  -5  -1  -9 1635.26 1007.67   3
  -5  -1   9 2519.66 2149.91   2
   5  -1   9 933.523 550.924   8
  -5   1  -9 1248.52 799.774   7
   6  -1  -9 18342.0 3908.78   7
  -6  -1  -9 20256.3 4415.06  13
   6   1  -9 17731.4 4051.29   7
  -6   1   9 20518.5 6004.38   2
  -6   1  -9 17689.1 2968.74   7
   6  -1   9 24226.0 4984.12   8
  -6  -1   9 10872.6 3747.88   8
   6   1   9 29735.0 6771.73   8
  -6  -1  -9 20536.9 3466.63   3
  -6  -1   9 18841.0 5145.83   2
  -6   1  -9 21720.7 4418.78  13
   6   1   9 17219.3 4395.64  15
  -7  -1  -9 9087.79 3271.03  13
  -7  -1   9 5285.73 2653.93   8
  -7   1  -9 8417.17 1960.63   7
   7  -1   9 9134.90 2862.15   8
  -7   1   9 8119.80 3614.31   2
   7   1   9 7218.74 2455.26  14
   7   1  -9 7474.70 2771.49   7
  -7  -1   9 10476.6 3663.17   2
   7   1   9 7574.32 3036.29  15
   7  -1  -9 9613.62 3089.96   7
   7   1   9 14117.5 4718.42   8
  -7   1  -9 9393.96 2995.53  13
   8   1   9 475.255 615.852  14
  -8  -1  -9 2777.25 2518.31  13
  -8  -1   9 614.820 736.561   2
   8  -1  -9 2249.57 1697.79   7
   8   1  -9 343.413 463.798   7
  -8   1  -9 168.048 277.562   7
  -8   1   9 522.925 597.397   2
  -8   1  -9 1486.58 1605.76  13
   8   1   9 353.501 848.853  15
   8  -1   9 1705.60 1791.74  15
   8   1   9-866.997 2553.74   8
   8  -1   9-1133.36 1387.62   8
  -9  -1   9 612.721 694.087   2
  -9  -1  -9 1047.25 1472.15  13
   9   1  -9 112.536 407.761   7
   9  -1   9 1080.12 1177.78  15
   9  -1  -9 1404.10 1324.75   7
   9   1   9-347.598 1042.73  15
  -9   1   9 3795.50 3062.44   2
   9  -1   9-2096.93 2233.85   8
  -9   1  -9-303.763 1085.77  13
   9   1   9-308.563 683.056  14
  10  -1  -9 1935.58 1797.06   7
  10  -1   9 1259.36 1308.18  15
 -10   1  -9 950.850 1030.09  13
 -10  -1  -9 2674.58 2471.62  13
  10   1   9 1584.19 1246.68  15
 -10   1   9 6260.79 4011.55   2
  10   1  -9 1465.97 1533.24   7
 -10  -1   9 2370.87 1937.69   2
  10   1   9 674.690 780.768  14
  11   1  -9 7159.07 2869.02   7
  11  -1  -9 8089.52 3039.34   7
 -11  -1   9 6789.60 3212.34   2
 -11  -1  -9 11844.3 4600.10  13
 -11   1   9 12090.8 4639.06   2
  11  -1   9 4961.81 2283.72  15
  11   1   9 5440.69 2080.84  15
 -11   1  -9 9453.95 3175.28  13
 -12   1  -9 10213.3 4212.67  13
 -12  -1  -9 12099.9 4838.29  13
  12   1   9 6173.83 2241.66  15
  12   1  -9 10395.4 3684.65   7
  12  -1   9 6938.46 2708.38  15
 -12   1   9 12404.2 4857.92   2
 -12  -1   9 8685.48 3881.39   2
  12  -1  -9 8937.70 3208.54   7
 -13  -1  -9 895.765 2100.51  13
 -13   1  -9 2119.87 2744.54  13
 -13  -1   9 2345.14 2149.58   2
 -13   1   9 2346.09 2415.83   2
  13  -1   9-437.532 298.572  15
  13   1   9 841.692 543.294  15
  14  -1   9 1067.65 566.129  15
   0  -1 -10-533.059 782.101   7
   0  -1  10 2474.94 2638.49   2
   0  -1  10 336.052 884.784   8
   0   1  10-1307.00 2527.16   2
   0   1 -10 246.746 573.520   7
   1  -1  10 1223.30 1215.04   5
   1   1 -10 1003.70 1070.87   7
  -1  -1  10 1760.22 1525.65   8
   1  -1  10 814.226 890.671   8
  -1  -1 -10 672.563 561.277   7
   1  -1 -10-165.317 474.673   7
  -1   1 -10 971.404 782.928   7
  -1  -1  10 2647.86 2341.87   2
   1   1  10 1058.87 709.842   2
   1  -1  10 3336.61 2378.31   2
  -1   1  10-1183.02 1842.15   2
  -2   1 -10 5713.69 1773.86   7
   2  -1  10 10515.6 3662.88   8
   2  -1 -10 5991.11 1961.31   7
  -2  -1  10 3839.32 2216.01   8
  -2  -1 -10 5204.82 1670.82   7
  -2   1  10 8725.74 3484.85   2
   2   1  10 8745.84 3391.26   2
   2   1 -10 6178.18 2224.15   7
  -2  -1  10 10614.8 4088.09   2
   2   1  10 5187.94 1138.27   8
   3  -1 -10 548.372 490.446   7
   3   1  10-2678.94 3095.93   8
   3   1 -10 738.715 708.739   7
  -3  -1 -10 660.887 410.537   7
   3  -1  10 1856.67 1585.91   8
  -3  -1  10 1344.53 1649.20   2
   3   1  10-984.459 1813.59   2
  -3   1  10-1790.39 2480.67   2
  -3  -1  10-381.000 1299.17   8
  -3   1 -10 1274.87 440.988   7
  -4  -1 -10 12732.4 2445.39   7
  -4   1 -10 10302.3 2352.44   7
  -4  -1  10 17935.2 5151.88   2
   4  -1  10 17902.0 4827.10   8
   4   1 -10 11292.9 3045.79   7
  -4   1  10 15472.9 5107.81   2
  -4  -1  10 12184.1 3872.60   8
   4  -1 -10 11238.4 2945.76   7
   4   1  10 23924.6 5571.60   2
   4   1  10 16101.7 4848.45   8
  -5   1 -10 2904.15 1199.21  13
   5  -1 -10 3978.55 1876.24   7
  -5   1  10 1299.54 1348.17   2
  -5  -1 -10 7263.00 2629.71  13
   5   1  10 1619.27 1978.82   8
  -5  -1  10 2128.72 1443.35   8
   5   1 -10 1835.92 1304.59   7
  -5  -1  10 3113.89 1823.51   2
   5  -1  10 5062.19 2615.10   8
  -5   1 -10 3306.74 1175.65   7
  -6  -1 -10 20842.4 4632.25  13
   6   1 -10 11884.2 3331.55   7
   6  -1 -10 12288.6 3370.46   7
  -6  -1  10 9483.29 3641.06   8
   6   1  10 12388.2 3972.66  15
  -6  -1  10 18974.7 5355.07   2
   6   1  10 19181.0 5649.00   8
   6  -1  10 22562.7 5342.21   8
  -6   1  10 13624.1 4876.35   2
  -6   1 -10 15290.2 2911.02   7
  -6   1 -10 14387.4 3318.03  13
   7   1  10-239.793 740.886  14
  -7  -1 -10 4898.48 2674.38  13
   7   1 -10-909.766 1315.22   7
  -7  -1  10 1276.60 1458.84   2
  -7   1 -10 94.2977 237.484   7
  -7   1  10-989.073 1541.59   2
   7  -1 -10 1315.52 1240.33   7
   7  -1  10 1889.68 1706.39   8
  -7   1 -10 868.278 429.993  13
   7   1  10-1018.82 2857.78   8
   7   1  10 30.1536 675.788  15
  -8  -1 -10 2929.54 2318.33  13
  -8   1 -10 606.250 465.623  13
   8   1 -10-642.417 954.364   7
  -8   1  10 1785.46 2016.97   2
  -8  -1  10 1824.62 1540.16   2
   8   1  10 1130.45 1540.99  15
   8  -1  10 715.718 780.180  15
   8  -1  10 1042.22 1244.35   8
   8   1  10-281.580 558.055  14
   8  -1 -10 527.947 1153.82   7
  -9   1 -10 1297.43 1734.85  13
   9  -1  10 1082.33 1510.77  15
   9  -1 -10 2377.96 1893.35   7
  -9  -1 -10 5033.36 2976.72  13
  -9  -1  10 132.286 1399.85   2
  -9   1  10 4259.41 3400.81   2
   9   1  10 265.151 796.252  15
   9   1 -10-22.7258 676.533   7
   9  -1  10 2187.42 1744.50   8
 -10  -1 -10 2019.49 2403.20  13
  10   1 -10-338.611 1071.10   7
 -10   1  10 4707.92 4043.03   2
  10  -1 -10 372.423 1239.97   7
  10   1  10-86.3124 1031.65  15
 -10  -1  10-1721.57 848.634   2
 -10   1 -10 42.3029 841.554  13
  10  -1  10 778.195 1265.17  15
 -11   1  10 3250.92 3099.96   2
  11  -1 -10 1228.74 1333.69   7
 -11  -1 -10 2900.57 2314.67  13
 -11   1 -10-896.858 1426.02  13
 -11  -1  10 1799.83 2137.00   2
  11   1  10-1342.42 1775.68  15
  11  -1  10 346.761 723.090  15
  12  -1  10 3666.54 2231.15  15
 -12   1 -10 5398.42 2597.97  13
 -12  -1 -10 7859.49 3897.43  13
   0  -1  11 9443.52 3604.04   8
   0  -1 -11 8849.86 2423.03   7
   0  -1  11 16452.0 4930.72   2
   0   1 -11 9761.02 2648.36   7
   0   1  11 14953.8 4487.67   2
   1  -1 -11 3821.84 1601.02   7
  -1  -1  11 12441.8 4294.72   2
   1  -1  11 6856.11 3103.48   8
  -1  -1 -11 5667.13 1916.57   7
   1   1 -11 5893.73 2234.19   7
  -1   1 -11 6113.13 2020.27   7
  -1   1  11 7372.13 3080.32   2
  -1  -1  11 8877.88 3964.24   5
   1  -1  11 12882.7 4318.53   2
   1   1  11 7981.20 3091.16   2
  -1  -1  11 6214.16 3070.77   8
   2  -1 -11 3751.10 1555.18   7
   2   1 -11 4012.63 1658.54   7
  -2  -1  11 2434.85 1857.03   8
  -2   1  11 1498.42 1945.33   2
   2   1  11 5496.34 2627.42   2
  -2  -1 -11 3277.66 1316.77   7
   2  -1  11 10582.0 3975.07   2
  -2  -1  11 7042.24 3528.53   2
   2  -1  11 4165.38 2388.87   8
  -2   1 -11 4404.17 1636.19   7
   3   1 -11 3258.84 1916.64   7
  -3  -1  11 3802.59 2368.09   8
  -3  -1  11 6209.60 3225.64   2
   3   1  11 3415.65 666.901   2
   3  -1  11 3446.21 2448.22   8
  -3   1 -11 2648.84 1322.10   7
  -3   1  11 833.632 880.687   2
   3  -1 -11 1100.53 521.524   7
   3  -1  11 6265.85 2997.39   2
   4   1 -11-153.166 1228.94   7
   4  -1  11 1103.29 1889.43   2
  -4   1 -11 8.15596 399.630   7
  -4   1  11-2464.57 2739.24   2
   4  -1  11-76.1600 847.187   8
  -4  -1  11 64.2293 729.842   8
   4  -1 -11-1426.82 1292.11   7
  -4  -1  11 1065.61 1484.81   2
   5  -1  11 13855.8 4402.93   8
   5  -1 -11 7319.34 2552.49   7
   5   1 -11 6992.30 2643.53   7
  -5  -1  11 6799.33 3400.70   8
  -5  -1  11 11029.4 4155.57   2
  -5   1 -11 9776.00 2514.30   7
  -5   1  11 9963.38 3721.19   2
   6  -1  11 2861.25 1967.80   8
   6  -1 -11 807.959 850.036   7
   6   1  11 1977.06 1773.27  15
  -6   1  11 2836.80 966.937   2
  -6  -1  11 3118.07 2478.66   2
   6   1 -11-338.420 1346.44   7
  -7   1  11 3129.95 3122.78   2
   7   1  11 965.113 1935.92  15
   7   1 -11-567.257 1111.46   7
   7  -1  11 1905.64 2015.88   8
   7  -1 -11 851.549 1052.89   7
  -7  -1  11 2262.98 1738.95   2
   8   1 -11 392.350 1164.19   7
  -8  -1  11 1804.14 2053.31   2
   8   1  11 2225.36 1899.50  15
   8  -1 -11 1139.06 1566.58   7
   8  -1  11 1583.76 1153.50  15
  -8   1 -11 492.720 1118.18  13
   8  -1  11 3126.71 2279.59   8
  -9   1 -11-1008.63 1355.15  13
  -9  -1 -11 699.952 1527.14  13
   9  -1  11 321.837 1163.33  15
 -10   1 -11-573.549 1389.36  13
 -10  -1 -11 2023.09 1096.45  13
   0  -1 -12 56.2072 592.596   7
   0   1 -12-1033.29 1053.51   7
   0  -1  12-417.134 1210.58   8
   0  -1  12 1038.94 1730.85   2
   1   1 -12 3749.29 1768.24   7
  -1   1  12 3995.09 1990.55   2
  -1   1 -12 3360.97 1412.75   7
  -1  -1  12 7203.48 3255.63   2
  -1  -1  12 3081.19 2105.25   8
   1   1  12 96.1859 1678.05   2
   1  -1  12 7777.60 3412.80   2
   1  -1  12 3840.46 1931.27   8
  -1  -1 -12 3548.33 1408.39   7
   1  -1 -12 2596.26 1324.97   7
  -2   1  12 3700.41 809.774   2
   2  -1  12 10207.2 4000.35   2
  -2  -1  12 5065.69 2875.06   8
   2   1  12 6186.12 1889.17   2
   2   1 -12 4936.56 2087.76   7
  -2  -1  12 9626.64 3699.29   2
   2  -1 -12 5438.05 2075.04   7
   2  -1  12 5648.83 3107.10   8
  -2   1 -12 4305.79 1697.21   7
  -3  -1  12 3985.94 3314.39   5
  -3  -1  12 192.096 812.724   2
  -3   1 -12-872.773 736.075   7
   3  -1 -12-541.795 1323.75   7
   3   1 -12 658.333 819.294   7
  -3  -1  12-591.659 1956.68   8
  -3   1  12-3291.00 2967.01   2
   3  -1  12 562.572 1237.02   8
   3  -1  12-1184.13 1439.76   2
   4  -1 -12 146.316 284.758   7
  -4  -1  12 1422.32 2031.40   2
  -4  -1  12-1253.71 2010.82   8
   4  -1  12-1162.74 1975.13   8
  -4  -1  12 3382.76 3787.23   5
  -4   1  12-1150.14 1648.65   2
   4   1 -12 404.390 958.956   7
  -4   1 -12-163.364 188.856   7
   5  -1  12 7783.24 3244.00   8
   5   1 -12 4688.31 2396.31   7
   5  -1 -12 3162.71 1447.66   7
   6  -1 -12 2952.56 1565.83   7
   6  -1  12 3629.37 2419.90   8
   7  -1  12 1040.28 1240.07   8
   0   1 -13 2651.93 1356.44   7
   0   1  13 6090.02 3843.20   2
   1  -1 -13 111.448 90.9044   7
  -1   1 -13-326.147 631.490   7
   2  -1 -13 2138.36 1410.52   7
  -2   1 -13 1094.37 832.341   7
   0  -2   0 10520.5 962.717   1
   0  -2   0 14552.4 1395.99  12
   0   2   0 15436.5 1480.12  12
   0  -2   0 11987.2 1251.84  10
   0  -2   0 15785.0 1322.25  15
   0   2   0 13016.1 1341.11   5
   0   2   0 13187.1 1031.96   1
   0   2   0 13633.7 1337.46  10
   0  -2   0 13995.2 1306.20   7
   0  -2   0 13768.2 1329.09   5
   1  -2   0 386.774 238.997   1
  -1  -2   0 193.117 181.226   5
  -1  -2   0 126.533 65.5732  11
   1  -2   0 279.489 202.288  12
  -1  -2   0 193.619 160.223  15
  -1  -2   0 151.237 192.435  12
   1   2   0 33.2695 80.8920  12
  -1   2   0 438.482 344.284  12
   1   2   0 313.639 196.646   7
  -1  -2   0 202.241 115.017   1
  -1   2   0 147.654 94.0074   6
  -1   2   0 357.479 234.968   5
   1   2   0 331.147 217.586  10
  -1   2   0 204.605 144.126  10
   1   2   0 472.088 246.266  14
   1  -2   0 249.503 200.025  10
  -1   2   0 110.466 115.016   1
  -1  -2   0 304.862 221.990   7
   1   2   0 386.284 244.319   5
  -1  -2   0 275.379 203.046   3
   2   2   0 150061. 4372.81  11
  -2  -2   0 163518. 3833.09   7
   2   2   0 159366. 3806.49   7
   2  -2   0 164012. 5560.37  12
  -2  -2   0 151645. 4314.27  11
  -2  -2   0 173359. 4722.27   3
  -2   2   0 160698. 4813.05   6
   2   2   0 164019. 4838.38   3
   2  -2   0 169125. 5152.23   6
  -2  -2   0 167171. 5378.28  14
  -2   2   0 148406. 5284.87  10
   2   2   0 155375. 3544.88  10
   2  -2   0 151443. 4722.29   1
  -2   2   0 145921. 4870.17   1
  -2  -2   0 148312. 5435.83  15
  -2  -2   0 150320. 4777.45   5
   2   2   0 164688. 5097.04  12
   2   2   0 161139. 5204.33  14
   3   2   0 463.843 425.288  14
  -3   2   0 544.679 407.430  10
   3  -2   0 554.080 298.100   4
  -3  -2   0 561.700 344.501   3
  -3  -2   0 461.033 248.683   7
   3  -2   0 679.160 438.437  12
   3   2   0 616.655 262.973   7
  -3  -2   0 400.516 363.654   5
   3   2   0 544.130 182.042  10
  -3   2   0 535.897 414.878   1
  -4   2   0 465491. 10578.0   1
   4   2   0 442524. 7254.24   7
  -4   2   0 440380. 10375.4  10
  -4  -2   0 430151. 9302.12   5
   4  -2   0 460279. 11567.0  12
  -4  -2   0 429975. 7106.77   7
  -4   2   0 438786. 9008.16  14
   4   2   0 428496. 10230.6  14
  -4  -2   0 454328. 9473.32   3
  -5   2   0 1694.80 1067.37  13
  -5   2   0 741.621 513.475  14
   5   2   0 731.980 373.030   7
  -5   2   0 699.159 525.741   1
   5  -2   0 1099.87 956.389  12
  -5   2   0 332.582 412.296   4
  -5  -2   0 293.832 351.959   3
  -5  -2   0 380.139 253.538   1
  -5   2   0 672.122 524.053  10
  -5  -2   0 526.242 457.899   5
   5   2   0 651.510 546.482  14
  -6   2   0 156392. 8407.24  13
  -6   2   0 187520. 7532.29   4
   6  -2   0 188314. 8991.22  12
  -6   2   0 175954. 7746.74   1
   6  -2   0 165745. 7721.54  14
  -6   2   0 192811. 7640.63  10
  -6  -2   0 174634. 6852.23   5
  -6  -2   0 186031. 5066.82   1
   6   2   0 152301. 5917.06   7
   6   2   0 175125. 7720.56  14
  -7   2   0 1317.44 1093.67  13
  -7   2   0 166.340 622.502   4
   7   2   0 810.615 577.708   7
   7  -2   0 830.500 744.549  12
  -7   2   0 41.5479 322.810   1
  -7  -2   0 485.075 397.091   5
   7  -2   0 533.002 495.478  14
  -7  -2   0 417.150 403.933   1
  -7   2   0 288.683 237.399  15
  -7   2   0 549.005 566.207  10
   7   2   0 369.634 509.749  14
  -8  -2   0 195098. 12789.1  13
  -8   2   0 186597. 9159.03   4
  -8   2   0 196986. 9010.49   1
  -8  -2   0 184599. 6324.91   1
  -8   2   0 158593. 5692.63  15
   8  -2   0 183828. 9538.81  14
   8   2   0 178034. 8777.64  14
  -8  -2   0 171674. 7750.79   5
  -8   2   0 157251. 10625.6  13
   8  -2   0 191680. 10510.1  12
  -8   2   0 190273. 8324.18  10
   9   2   0 150.437 369.162   7
  -9   2   0 1112.27 1000.95   4
  -9  -2   0 926.820 546.570   2
  -9   2   0 1167.48 1416.96  13
  -9   2   0 663.232 605.449   1
   9   2   0 375.803 405.497  14
  -9   2   0 341.803 177.845  10
  -9  -2   0 1012.38 589.779   1
   9  -2   0 725.015 709.420  14
  -9  -2   0 520.112 378.733   5
   9  -2   0 481.906 832.604  12
  -9   2   0 57.3404 369.221  15
 -10   2   0 132546. 9001.18   4
 -10  -2   0 146748. 5845.06   2
  10  -2   0 158366. 9896.05  14
 -10   2   0 150235. 8724.29   1
 -10  -2   0 147607. 6589.33   1
  10   2   0 95283.7 7362.75   7
 -10   2   0 83551.1 9395.87  13
 -10   2   0 150389. 7973.88  10
 -10  -2   0 136193. 7620.81   5
  10  -2   0 145484. 10230.3  12
  10   2   0 143092. 8758.46  14
 -10  -2   0 98201.8 11464.4  13
  11  -2   0 539.691 809.116  12
 -11   2   0-220.513 660.398   4
 -11  -2   0 557.598 435.483   5
 -11   2   0-596.706 688.331  10
 -11   2   0-1177.78 1691.88  13
  11   2   0 701.141 780.254  14
 -11   2   0 370.505 401.936   1
 -11  -2   0 305.103 395.312   2
  11   2   0 416.635 562.781   7
  11  -2   0 1150.27 359.013  14
 -11  -2   0 587.197 480.914   1
 -12   2   0 73040.0 6630.56   1
 -12   2   0 72798.9 7615.35   4
 -12  -2   0 39906.0 7686.32  13
 -12   2   0 54428.2 7978.32  13
  12  -2   0 82755.3 7981.19  14
  12  -2   0 81953.2 8132.75  12
  12   2   0 77166.2 7074.94  14
 -12  -2   0 71364.0 6074.88   5
 -12  -2   0 72784.3 5259.38   1
 -12   2   0 72453.9 5902.45  10
  12   2   0 59203.3 6361.79   7
 -13  -2   0 917.889 1417.58  13
 -13   2   0 418.120 1087.64   4
 -13  -2   0 705.375 596.708   5
  13  -2   0 749.259 1010.04  12
 -13   2   0-22.0426 644.036  13
 -13   2   0 502.360 798.281   1
 -13   2   0 104.228 385.109  10
  13   2   0 493.823 670.563  14
  13  -2   0 300.884 368.814  14
  13   2   0 770.275 428.029   7
 -13  -2   0 642.974 732.984   1
 -14  -2   0 86965.3 11473.8  13
 -14   2   0 94768.7 11251.6  13
 -14   2   0 112761. 10269.9   4
  14  -2   0 111771. 10089.2  12
 -14  -2   0 105383. 7848.96   5
 -14   2   0 110178. 8904.49   1
 -14  -2   0 107059. 7149.38   1
 -14   2   0 98952.0 7408.10  10
  14  -2   0 120010. 10476.3  14
  14   2   0 113593. 9408.57  14
 -15   2   0 1058.09 963.695   1
 -15  -2   0 1303.94 937.163   1
 -15   2   0 1625.25 1699.76   4
 -15   2   0 2312.94 2195.76  13
 -15  -2   0 1387.09 1234.45   5
  15   2   0 2870.67 1823.71  14
 -15   2   0 1794.18 896.817  10
  15  -2   0 1024.20 1048.67  14
  15  -2   0 1457.10 1206.74  12
 -16  -2   0 47084.7 8516.70  13
  16  -2   0 56277.4 7666.69  14
  16  -2   0 54834.1 7461.42  12
  16   2   0 53349.6 7240.13  14
 -16   2   0 41391.5 7578.95  13
 -16   2   0 52484.3 7741.90   4
 -16   2   0 52791.1 6709.77   1
 -17   2   0 1536.16 1287.43   4
 -17  -2   0-1374.44 1661.60  13
  17  -2   0-1119.33 1573.23  12
  17   2   0 2246.66 1871.21  14
 -17   2   0 49.1275 479.534   1
 -17   2   0-1550.52 1347.95  13
  17  -2   0-511.463 1261.07  14
 -18  -2   0-187.473 625.727  13
 -18   2   0 135.154 716.403   4
 -18   2   0 1503.69 529.784   1
  18  -2   0-152.473 911.924  14
  18   2   0 2486.22 1730.31  14
 -18   2   0-3675.13 2676.01  13
  18  -2   0-2847.78 2439.47  12
 -19   2   0-841.485 1919.71   4
  19   2   0 2346.60 2161.94  12
  19  -2   0-2584.98 2132.32  12
 -19  -2   0 4602.41 2764.95  13
 -19   2   0 1054.90 1171.58   1
   0  -2   1 62.0489 53.1122  14
   0   2   1 278.866 298.958  15
   0   2   1 56.3760 207.682  12
   0   2  -1 104.230 80.6574  12
   0   2  -1 140.251 218.951   6
   0   2  -1 292.768 171.868  14
   0  -2  -1 107.025 214.463  12
   0  -2   1 135.264 149.555   5
   0   2  -1 246.611 253.417  10
   0  -2   1 396.486 308.533  10
   0  -2   1 228.679 175.298  12
   0   2   1 363.802 349.960   9
   0  -2  -1 206.788 191.803   9
   0  -2  -1 184.050 215.573  15
   0   2  -1 266.423 240.586   5
   0  -2   1 196.976 184.984   7
   0   2  -1 19.9388 109.332   7
  -1  -2   1 109025. 3070.30   3
  -1   2  -1 111330. 4273.80   6
  -1  -2   1 108620. 3494.74  12
  -1  -2  -1 117149. 4395.65  15
   1  -2   1 122121. 4479.92   7
   1  -2  -1 107822. 4357.58  12
   1   2  -1 111458. 3622.47  12
  -1  -2  -1 111947. 4300.04  12
   1  -2   1 119077. 4280.80  12
   1   2  -1 110588. 4000.52   7
   1  -2  -1 84699.6 3765.10   2
  -1  -2   1 109400. 3815.40  11
   1   2   1 119374. 4682.17  15
  -1  -2   1 114309. 4042.74   7
  -1   2  -1 111649. 4294.73  10
  -1  -2   1 102325. 3657.77  10
   1  -2   1 107537. 4349.76  10
   1  -2   1 106444. 3898.82   1
   1   2  -1 103300. 3573.05  10
   1   2  -1 108956. 4260.70   5
  -1  -2   1 105430. 4104.76   5
  -1  -2  -1 100614. 3662.82   9
   1   2   1 99969.1 3709.89   9
  -1   2  -1 107316. 3773.62   5
   1  -2   1 105148. 3667.96   5
   1   2   1 110723. 4073.13   5
  -1   2  -1 102071. 2267.59  14
  -1   2   1 106947. 4371.37   9
  -1  -2  -1 118497. 4318.33   3
   1  -2  -1 93541.1 4068.66   9
   1   2  -1 107258. 3579.88  14
  -1   2  -1 110640. 4300.64   7
  -1   2   1 123218. 3703.39  15
  -1  -2   1 112512. 3721.11  14
  -1   2  -1 117591. 4160.71  12
   2   2   1 464.709 364.094  14
  -2  -2   1 707.796 416.623  14
   2   2   1 751.000 417.745  15
   2  -2  -1 370.740 174.240   4
  -2  -2   1 319.238 256.211   7
   2   2  -1 600.617 293.096   3
   2   2  -1 302.917 189.763  12
   2   2  -1 560.215 352.527  14
   2  -2  -1 744.908 422.122  12
   2   2  -1 375.255 234.701  10
   2   2  -1 537.040 304.549   7
  -2  -2  -1 369.527 180.751   7
   2  -2   1 405.862 212.291  12
  -2   2  -1 675.199 515.209   1
  -2  -2  -1 294.983 181.155  11
  -2  -2   1 425.006 357.053  11
  -2   2   1 428.062 232.689   6
  -2  -2  -1 118.362 184.557   3
  -2  -2   1 702.756 467.018   5
  -2  -2   1 263.379 175.511   3
  -2  -2   1 723.899 351.745  10
  -2   2  -1 994.986 551.731  10
  -2  -2  -1 287.280 249.073   5
   2   2   1 1096.26 426.300   9
  -2  -2  -1 1106.09 431.692   9
  -2   2   1 532.798 226.183  15
  -2   2   1 881.746 622.154   9
   2   2   1 483.607 328.307   5
  -2   2  -1 655.920 348.753   5
  -3  -2   1 452816. 8256.09   7
   3   2  -1 454607. 8302.37  12
   3  -2   1 485283. 11148.9  12
   3  -2  -1 472554. 10331.7  12
   3   2  -1 429463. 9516.16  14
  -3  -2   1 451110. 7946.39   3
   3  -2  -1 466093. 7858.35   6
   3   2  -1 473205. 8343.34   3
   3   2   1 435136. 7235.67  11
   3   2   1 463346. 11104.9  15
  -3  -2   1 384610. 6092.53  10
   3   2  -1 458891. 8751.68   7
  -3  -2   1 451135. 10153.6   5
   3   2   1 466325. 10264.8  14
  -3  -2  -1 435209. 8213.88   5
  -3   2  -1 456234. 7737.59   5
  -3   2   1 436141. 9847.64   9
  -3   2  -1 472071. 10087.1  10
  -3   2  -1 441817. 5794.91  14
  -3   2  -1 458836. 9812.90   1
  -3  -2  -1 477646. 9224.05   3
  -4  -2   1 5092.50 1048.22   7
  -4   2  -1 6513.23 1313.49   1
   4   2  -1 5645.54 1101.05   7
   4  -2   1 6442.67 1561.69  12
   4  -2  -1 5648.29 1241.79  12
  -4  -2  -1 5904.71 1216.89   3
   4   2  -1 4503.54 1080.56  14
  -4  -2   1 4762.03 634.421  10
  -4   2  -1 7058.64 1334.40  10
  -4  -2   1 5480.15 1270.12   5
  -4   2  -1 5545.78 779.598  14
  -4   2   1 5168.31 1263.74   1
  -4   2   1 4707.22 921.796   4
  -4  -2  -1 6206.64 1029.20   5
  -4   2  -1 8980.17 1911.65  13
  -4   2   1 6065.56 1302.00   9
   4  -2  -1 5945.11 974.390   6
   4   2   1 5792.63 1310.22  14
   4   2   1 6163.24 1383.69  15
   5   2  -1 154279. 6156.01   7
   5   2   1 134824. 3049.60   7
  -5   2   1 163650. 6100.89   4
   5  -2   1 153184. 4090.75  15
  -5   2  -1 172180. 6833.32  10
   5  -2   1 182289. 8754.50  12
   5   2   1 158489. 7382.19  15
  -5   2  -1 140280. 4654.14  14
  -5   2  -1 171660. 8730.56  13
  -5  -2   1 140927. 4373.30   8
   5   2  -1 152501. 6732.41  14
  -5   2  -1 173572. 6935.23   1
  -5   2   1 159570. 6880.90  10
  -5  -2   1 159340. 7150.12   5
  -5  -2  -1 156966. 5364.85   5
  -5  -2  -1 178958. 6825.18   3
  -5   2   1 161722. 6458.68   9
   5  -2  -1 159587. 7178.15  12
   5  -2   1 156105. 6085.63  14
  -5   2   1 165466. 7255.04   1
   5   2   1 162244. 6966.25  14
  -6   2   1 41128.0 3550.76   4
  -6   2  -1 45615.3 3899.33   4
   6   2   1 44752.4 4249.91  15
  -6  -2  -1 44817.2 2429.08   1
   6  -2  -1 46573.6 4172.35  12
  -6   2  -1 43993.5 3789.17   1
   6   2  -1 42234.3 3865.82  14
  -6   2  -1 44543.1 3651.75  10
  -6   2   1 42244.3 3971.57   1
  -6   2  -1 43349.0 5033.83  13
   6  -2   1 44493.6 2445.81  15
  -6   2   1 43490.5 3464.83   9
  -6  -2   1 42264.0 3966.86   5
  -6   2  -1 38944.9 2830.92  14
  -6  -2  -1 43043.7 2989.87   5
  -6   2   1 48511.3 3974.27  10
  -6  -2  -1 47467.7 3994.81   3
  -6   2   1 34479.3 2018.10  15
   6   2   1 34121.2 2100.20   7
   6  -2   1 48597.0 4927.23  12
  -6  -2   1 35254.8 2245.90   8
   6  -2   1 47408.1 3783.09  14
   6   2   1 46715.8 3985.47  14
   6   2  -1 37524.6 3461.87   7
   7  -2  -1 60790.8 5079.56  12
  -7   2  -1 63344.6 4975.90   4
  -7   2   1 63038.7 5050.29   1
  -7  -2   1 52009.7 2943.63   8
   7   2  -1 58548.2 4851.28  14
  -7   2  -1 47541.6 6135.14  13
  -7   2   1 44121.5 2621.69  15
   7   2   1 57582.3 4734.90  14
  -7   2   1 60982.7 4667.79  10
  -7   2  -1 62765.1 4504.04  10
   7  -2   1 61441.5 4737.07  14
  -7  -2  -1 62732.7 3208.73   1
  -7   2   1 56121.5 4643.22   4
  -7  -2   1 56818.0 4906.70   5
  -7  -2  -1 59264.1 3724.22   5
   7   2  -1 46089.1 4296.22   7
  -7  -2  -1 74668.4 7952.46  13
   7  -2   1 53464.7 2986.84  15
   7  -2   1 62366.0 6122.87  12
  -7   2  -1 63593.8 4792.89   1
  -7   2   1 54067.2 4741.03  13
   7   2   1 39971.3 3014.26   7
  -8   2   1 29045.3 3987.29  13
  -8   2  -1 26457.0 4875.90  13
   8   2   1 34669.4 3906.55  14
  -8   2  -1 35583.3 3539.16  10
   8   2  -1 23433.0 3381.89   7
  -8  -2  -1 29596.8 1753.39   2
   8  -2   1 34992.0 4768.89  12
   8   2  -1 32286.7 3853.10  14
  -8   2   1 33475.1 3613.87  10
  -8  -2  -1 35485.0 2689.48   1
  -8   2  -1 35055.6 3739.54   1
  -8   2  -1 36144.8 4068.27   4
  -8   2   1 30189.0 3764.83   4
   8  -2   1 38254.5 4100.89  14
  -8  -2   1 29630.3 3797.20   5
  -8  -2  -1 34032.1 2997.79   5
   8   2   1 17580.4 2348.38   7
  -8  -2  -1 39571.3 6530.41  13
   8  -2  -1 33485.5 4127.23  12
  -8   2   1 26469.8 2294.77  15
  -8   2   1 32760.4 3877.61   1
  -9  -2  -1 176429. 7213.67   5
   9   2  -1 136201. 8918.17   7
  -9   2   1 145773. 9890.82  13
  -9  -2  -1 157115. 3539.62   2
  -9   2   1 165817. 9491.39   4
  -9  -2   1 181363. 7315.02   1
  -9   2  -1 180523. 9715.21   4
  -9  -2   1 152914. 7498.12   2
  -9   2  -1 99441.7 10622.3  13
  -9   2  -1 188152. 9201.41   1
  -9  -2  -1 184864. 6746.02   1
   9  -2   1 184231. 11717.4  12
   9  -2  -1 183625. 10059.9  12
   9   2   1 183737. 9484.97  14
   9  -2  -1 184739. 10725.2  14
  -9   2   1 185384. 8789.43  10
  -9   2  -1 179748. 8305.07  10
  -9  -2   1 163380. 9252.79   5
  -9  -2   1 175826. 12602.8  13
  -9  -2  -1 136197. 13040.9  13
   9   2  -1 181378. 9504.31  14
  -9   2   1 143275. 5977.55  15
   9  -2   1 195089. 9864.28  14
  -9   2   1 182271. 9622.23   1
   9   2   1 103219. 6530.01   7
  10   2   1 5234.34 1650.47   7
 -10   2   1 8197.85 2378.95   4
 -10   2   1 8705.11 2189.44   1
 -10   2  -1 8337.62 2250.52   4
  10  -2  -1 10241.5 2705.67  14
 -10   2  -1 8342.35 1853.17  10
  10  -2   1 8934.61 2757.38  12
 -10  -2  -1 7795.60 1587.60   5
  10   2   1 9233.00 2262.26  14
 -10   2  -1 8689.22 2087.86   1
 -10   2  -1 668.070 1082.62  13
 -10  -2  -1 1936.31 1328.71  13
 -10  -2   1 7108.79 845.766   9
 -10  -2   1 3245.77 443.066  10
 -10  -2  -1 7974.62 1528.11   1
 -10  -2   1 7844.71 2221.02   5
 -10  -2   1 8491.34 1688.06   1
  10  -2   1 9076.73 2275.98  14
  10   2  -1 5439.46 1807.19   7
 -10  -2   1 7888.97 1608.64   2
 -10   2   1 6989.40 2284.93  13
  10  -2  -1 9064.27 2556.09  12
  10   2  -1 9158.95 2342.69  14
 -10  -2   1 8177.19 3096.88  13
 -10   2   1 9383.07 2023.84  10
 -11   2  -1 27952.3 5971.08  13
  11   2  -1 55904.7 6299.30   7
 -11  -2  -1 37307.9 7793.20  13
  11  -2   1 84257.9 8498.66  12
 -11   2   1 75414.5 5977.80  10
 -11  -2   1 74411.2 5228.84   2
  11  -2  -1 78123.0 7189.06  12
 -11   2   1 47988.4 6444.13  13
 -11   2  -1 79829.9 6584.07   1
 -11  -2   1 39251.1 7332.43  13
 -11  -2  -1 78615.6 5120.33   1
 -11  -2   1 73860.1 6722.44   5
 -11  -2  -1 72769.4 5143.97   5
 -11   2   1 66936.1 7075.62   4
  11   2   1 77854.4 6750.03  14
  11  -2   1 87287.8 7396.52  14
  11  -2  -1 80348.9 7841.89  14
 -11   2  -1 75565.7 7243.35   4
 -11   2  -1 77343.3 5899.07  10
 -11   2   1 76863.3 6772.84   1
  11   2  -1 77803.3 6979.52  14
 -11  -2   1 72054.6 5238.18   1
  11   2   1 50105.6 5323.35   7
 -12   2   1 17752.1 3942.92  13
 -12  -2   1 28088.9 3235.65   2
  12  -2   1 31035.6 5389.60  12
 -12   2   1 28776.3 4862.87   4
 -12   2  -1 25811.6 4401.93   4
  12  -2  -1 27690.8 4290.76  12
 -12  -2  -1 27581.3 3309.63   5
  12   2   1 27595.9 4189.55  14
  12   2   1 21348.0 3662.38   7
 -12   2  -1 12804.4 4433.32  13
 -12   2  -1 25744.6 3544.35  10
 -12   2   1 27598.4 3772.91  10
 -12  -2   1 24977.8 4141.54   5
 -12  -2  -1 28744.1 3253.40   1
  12   2  -1 19136.7 3801.37   7
 -12   2  -1 30950.4 4383.04   1
 -12  -2  -1 11036.6 4091.13  13
 -12   2   1 28324.8 4252.70   1
  12   2  -1 28604.0 4445.77  14
  12  -2  -1 27659.3 4814.58  14
  12  -2   1 31694.9 4705.68  14
 -12  -2   1 10621.1 3994.49  13
 -12  -2   1 25189.4 3305.71   1
 -13   2   1 25210.1 5157.63  13
 -13   2   1 42562.2 6166.00   4
 -13   2   1 33704.0 4307.00  10
 -13   2  -1 38024.7 5686.02   4
 -13  -2   1 22110.0 5749.77  13
  13  -2  -1 37833.5 5359.10  12
 -13  -2  -1 29078.1 7224.63  13
 -13   2  -1 42364.5 5331.12   1
 -13  -2   1 36288.6 5105.72   5
 -13   2   1 41296.9 5333.86   1
 -13  -2  -1 39052.5 4063.21   1
 -13  -2  -1 36713.7 3940.04   5
  13   2  -1 31069.7 4977.01   7
 -13   2  -1 34572.2 7524.44  13
  13  -2   1 42333.1 6426.33  12
 -13  -2   1 34395.6 4047.39   1
  13  -2   1 42483.2 5745.12  14
  13  -2  -1 39095.7 5960.33  14
  13   2  -1 39586.8 5504.58  14
  13   2   1 39163.9 5214.88  14
 -13   2  -1 36901.5 4430.35  10
  14   2  -1 223.405 1016.41   7
  14  -2   1 1733.28 1269.68  14
 -14  -2   1 1288.30 1083.14   5
  14  -2  -1 1334.61 1173.19  12
 -14  -2  -1 1378.27 694.972   1
  14   2   1 1484.10 1041.83  14
  14  -2  -1 1272.13 805.788  14
  14  -2   1 1461.39 1400.05  12
 -14   2   1 438.766 404.930  10
 -14  -2   1 7092.80 3098.90  13
 -14  -2   1 1280.75 821.412   1
 -14   2   1-364.971 638.808  13
 -14   2  -1 1408.12 877.625  10
 -14  -2  -1 333.744 2086.37  13
 -14   2   1 1175.17 748.890   1
 -14   2  -1 1260.76 1116.52   1
  14   2  -1 2470.99 1594.82  14
 -14   2   1 2777.80 1974.94   4
 -14  -2  -1 1939.13 1040.06   5
 -14   2  -1 2685.44 2676.64  13
 -14   2  -1 394.674 407.448   4
 -15   2  -1 98633.2 9991.22   4
 -15   2   1 95477.1 9987.01   4
  15  -2  -1 95560.9 9131.09  12
 -15   2   1 84736.0 7142.96  10
 -15   2  -1 81401.7 6986.26  10
 -15   2   1 94479.1 8715.43   1
 -15   2  -1 104525. 9121.17   1
 -15  -2   1 92503.7 8588.06   5
  15   2  -1 99916.7 9453.05  14
  15   2   1 101124. 9184.62  14
 -15   2  -1 70727.1 10774.3  13
  15  -2  -1 99362.6 10039.8  14
  15  -2   1 105080. 9956.99  14
 -15  -2   1 71664.2 9974.69  13
 -15  -2  -1 82712.7 11803.7  13
 -15   2   1 64902.0 8694.17  13
  15  -2   1 106445. 10736.3  12
 -15  -2   1 91453.5 7121.41   1
  16  -2   1 405.668 521.307  14
 -16  -2  -1-3535.18 3432.43  13
  16   2   1 1158.49 1271.61  14
 -16  -2   1 696.741 1208.46  13
 -16   2  -1 1193.29 1997.91  13
  16  -2  -1-518.763 876.300  12
  16  -2   1 952.906 1288.09  12
 -16   2  -1-756.383 834.423   4
  16   2  -1 1629.27 1582.92  14
 -16   2  -1 1084.22 1133.64   1
 -16  -2   1 2264.81 1524.54   5
 -16   2   1-6.78288 293.280  13
 -16   2   1 1143.76 1091.70   1
 -16   2   1 2611.99 1891.02   4
 -17   2   1 16434.1 4414.42  13
 -17   2  -1 21669.4 6100.23  13
 -17  -2   1 24469.3 5826.89  13
 -17   2   1 30936.4 5338.97   1
 -17  -2  -1 27241.3 6791.03  13
  17  -2  -1 29431.9 5080.74  12
  17  -2   1 32532.7 6062.89  12
  17  -2   1 32808.7 5967.33  14
  17   2   1 31621.7 5631.03  14
  17   2  -1 31434.3 5886.77  14
 -17   2  -1 29424.5 5995.27   4
 -17   2   1 32144.8 6031.74   4
 -17   2  -1 35888.9 5749.80   1
 -18   2  -1-1444.70 1631.24  13
  18   2   1 1653.23 1769.92  14
  18   2  -1 1707.84 1663.49  12
 -18  -2  -1-605.468 1452.47  13
 -18   2  -1-2483.59 2318.76   4
  18  -2   1-97.1442 1300.55  12
 -18   2   1-914.324 1129.47   4
  18  -2  -1-2327.49 2248.35  12
 -18   2   1 793.872 1263.53   1
 -18  -2  -1 1209.47 1358.33   4
 -18   2  -1 840.336 993.345   1
 -18  -2   1 1688.41 1305.30  13
  18   2  -1 364.398 1011.75  14
 -19  -2  -1 7548.10 3646.24  13
 -19   2  -1 4827.09 2412.83   4
 -19   2  -1 10352.8 3330.51   1
 -19   2  -1 508.105 1123.45  13
  19   2  -1 11304.2 3485.07  12
  19  -2  -1 6059.73 2261.46  12
 -19   2   1 6113.96 2780.41   4
   0   2  -2 385463. 8723.53   7
   0   2  -2 388879. 8409.30  10
   0  -2   2 381653. 6775.72  12
   0   2  -2 388568. 6825.45  12
   0  -2   2 382428. 7833.74  11
   0   2   2 372679. 8646.57   2
   0   2  -2 374206. 8481.79   6
   0  -2   2 362702. 6149.90  14
   0   2  -2 385343. 6264.83  14
   0  -2  -2 363309. 8443.48  12
   0  -2   2 393825. 8355.87   5
   0   2   2 416525. 9378.92  15
   1   2  -2 1629.96 579.060   6
   1  -2  -2 1117.30 507.729  12
  -1  -2  -2 2907.70 901.137   2
  -1   2  -2 2044.55 696.953  12
  -1   2  -2 2221.74 780.002   7
  -1  -2   2 2597.20 843.077   5
  -1  -2   2 2138.97 861.998  10
  -1   2  -2 2429.23 689.991   5
  -1   2  -2 2716.24 940.755  10
  -1  -2   2 612.829 190.818   3
   1   2  -2 2138.99 712.309   7
   1   2  -2 2123.32 724.106  10
  -1  -2   2 1273.89 388.220  12
  -1  -2  -2 955.125 480.837   3
  -1  -2   2 2264.92 694.838  14
   1  -2   2 1472.92 539.760  12
   1   2  -2 2307.03 638.893  14
  -1   2   2 3017.55 1390.75   9
  -1   2   2 3838.06 1184.73   2
   1  -2   2 2256.01 642.335   5
   1   2  -2 1367.19 391.612  12
   1   2   2 1722.97 775.308  15
  -1  -2   2 896.228 459.584  11
   2   2  -2 417054. 6253.85  12
   2  -2  -2 420433. 9372.32  12
  -2  -2   2 431252. 8896.71  11
  -2  -2  -2 410023. 5342.68  11
  -2  -2  -2 443282. 9216.01   3
  -2   2  -2 428680. 9586.19   7
   2   2   2 435709. 10727.2  15
   2  -2   2 441619. 9915.90  12
   2   2  -2 385967. 7919.49  10
   2   2  -2 425453. 9505.66   7
  -2   2  -2 457120. 10072.7  10
  -2   2   2 434438. 11308.5   9
   2   2  -2 393779. 8685.34  14
  -2  -2   2 382520. 9247.86  14
  -2  -2   2 422113. 10398.3   5
  -2   2  -2 426886. 7471.18   5
   2  -2   2 413938. 7206.20   5
   2   2  -2 413476. 5703.54   3
  -2  -2  -2 382211. 7660.48   2
  -2   2   2 410237. 10776.8   2
  -2  -2   2 366172. 8519.44  10
  -3  -2  -2 15627.0 1410.15   2
  -3   2  -2 14590.1 1849.57   7
   3   2  -2 15681.6 1279.65  12
   3  -2   2 18356.7 2394.42  12
   3  -2  -2 15914.6 1870.53  12
   3   2  -2 15433.5 1400.78   3
   3   2  -2 15745.1 1934.59  14
   3   2  -2 16020.8 2034.94   7
  -3   2  -2 15886.9 1361.97   5
  -3  -2  -2 16766.6 1867.55   3
  -3   2   2 17305.7 2408.65   9
   3   2   2 14703.9 1100.36  11
  -3   2   2 15637.8 1199.13   6
  -3  -2   2 12958.7 1579.23  10
  -3   2   2 16695.0 2353.08   2
  -3   2  -2 16312.3 2032.07  10
   3   2   2 14824.6 2097.47  15
  -3   2   2 13186.5 1044.46   4
  -3  -2   2 15131.6 2262.42   5
  -4   2  -2 185504. 8981.68  13
   4   2  -2 174215. 7072.88   7
  -4  -2   2 138785. 5293.25   8
   4   2  -2 141242. 5276.72   3
   4   2   2 171932. 4548.13  11
  -4  -2  -2 153556. 5076.52   8
  -4  -2  -2 176284. 6565.54   3
  -4  -2   2 128224. 5102.48  10
  -4   2  -2 170036. 4401.24   5
  -4   2  -2 181329. 7010.75  10
   4   2   2 170612. 7120.41  14
  -4  -2   2 156795. 7684.23   5
  -4   2   2 144035. 4716.23   4
   4   2   2 168860. 4281.79   1
   4   2   2 169699. 7647.03  15
  -4  -2  -2 164088. 5091.98   5
  -4   2   2 145391. 7496.34   2
   4   2  -2 162250. 6779.36  14
  -4   2   2 174712. 7625.61   9
   4   2   2 175936. 4847.13   9
   4  -2   2 160751. 4325.19  14
  -4  -2  -2 160730. 4109.76   2
   4  -2  -2 163367. 5240.41  13
   4  -2  -2 175005. 6797.26  12
  -4   2  -2 140261. 3135.32  14
   4  -2   2 179317. 8627.85  12
  -5   2  -2 2996.17 1449.24  13
  -5  -2   2 619.012 396.845   8
   5  -2  -2 1659.63 810.755  13
   5  -2  -2 1085.94 717.783  12
  -5   2   2 1474.70 948.381   2
  -5  -2   2 864.685 702.385   5
   5  -2   2 555.186 561.973  12
   5   2   2 725.997 588.893  15
   5   2  -2 1187.83 761.407  14
  -5  -2  -2 886.290 304.195   2
   5  -2  -2 980.559 406.147   6
   5   2   2 837.412 350.166  10
  -5  -2  -2 877.820 566.539   3
  -5   2  -2 1752.95 888.460  10
  -5   2   2 1062.59 674.238   9
   5   2   2 1031.72 595.902  14
   5   2   2 737.251 251.783   1
  -5   2  -2 953.395 320.449   5
  -5   2   2 715.098 210.081   4
  -5   2  -2 1016.74 730.840   1
  -5  -2   2 140.132 253.647  10
   5  -2   2 1515.86 571.224  14
  -5  -2  -2 511.345 117.856   8
   5   2  -2 1100.73 583.147   7
   5   2   2 761.840 254.318   9
  -5   2  -2 828.567 325.820  14
  -5  -2  -2 984.045 410.115   5
   6   2   2 24538.3 1713.99  10
   6   2  -2 21455.4 3002.58   7
   6  -2   2 26604.6 2537.33  14
   6  -2   2 24880.4 3794.11  12
  -6  -2   2 18806.8 2058.95   8
  -6  -2  -2 25197.6 2113.50   5
   6   2   2 19211.4 1223.18   9
  -6   2  -2 22305.2 1867.39  14
   6  -2  -2 27118.2 3118.42  12
   6   2   2 25092.1 3040.01  14
   6  -2  -2 24714.1 2068.90   6
   6   2  -2 25241.6 3161.16  14
  -6   2   2 21195.6 2573.83   4
  -6  -2   2 21045.1 3442.29   5
  -6   2  -2 27672.6 2990.95  10
   6   2   2 24702.6 3255.61  15
  -6   2  -2 25089.5 4512.59  13
  -6   2  -2 26652.4 1814.06   5
  -6   2  -2 28809.8 3251.39   1
  -6  -2   2 14413.1 1809.85  10
   6  -2   2 24510.4 2219.34  15
  -6   2   2 26587.1 3114.01   9
  -6  -2  -2 28821.9 3186.06   3
  -6   2   2 24424.9 3298.93   2
   6   2   2 26806.3 2041.03   1
  -6  -2  -2 36518.6 6028.88  13
   7  -2   2 32605.2 3142.10  14
  -7   2  -2 21458.3 4452.96  13
   7   2  -2 28914.5 3547.09  14
   7   2  -2 23288.5 3397.26   7
  -7   2   2 30026.5 3276.17   9
   7   2   2 28692.7 1827.84  10
  -7   2  -2 31144.2 3243.52  10
   7  -2   2 30055.6 2573.28  15
   7  -2   2 28827.1 4425.35  12
  -7   2   2 29488.7 3684.58   2
   7   2   2 14207.7 1311.40   7
  -7  -2  -2 30064.3 3597.23   3
  -7   2  -2 33216.6 3459.94   1
  -7  -2  -2 26898.9 2206.57   5
  -7  -2   2 23469.4 3677.95   5
  -7  -2  -2 35349.9 6264.49  13
   7  -2  -2 32417.5 3529.30  12
  -7  -2   2 24346.2 2477.55   8
   7   2   2 23888.0 1184.04   7
   7   2   2 31752.0 3598.31  14
   7   2   2 30818.1 3714.23  15
  -7  -2   2 11044.2 1614.39  10
  -8   2  -2 111635. 7335.40   4
   8   2   2 95882.2 2987.45   7
  -8   2   2 103893. 6289.04   9
   8  -2   2 101640. 5070.51  15
   8  -2   2 117566. 6719.06  14
  -8   2   2 105011. 7235.43   1
  -8   2   2 98668.8 6801.10   2
  -8   2   2 86642.3 6491.22   4
   8   2  -2 103904. 7110.78  14
  -8   2  -2 110101. 6419.75  10
   8   2   2 101200. 7133.60  15
   8   2   2 101829. 3474.14  10
  -8   2   2 96782.0 6423.94  10
  -8  -2   2 79860.5 7389.04   5
   8   2   2 106968. 6877.84  14
  -8   2  -2 109630. 6791.07   1
  -8  -2   2 89902.4 4998.81   8
   8   2  -2 80840.9 6750.24   7
  -8  -2  -2 100574. 4584.55   5
  -8   2  -2 54177.7 7779.90  13
  -8  -2  -2 93146.5 10830.4  13
   8  -2  -2 108024. 6927.59  12
   8  -2   2 101633. 8950.07  12
  -9   2  -2-1645.55 2122.88  13
   9   2  -2 102.352 623.221   7
  -9   2   2 1904.78 1135.49  13
  -9   2   2 1316.80 1073.85   4
  -9   2  -2 1348.73 1063.46   4
  -9   2   2 1158.96 849.375   2
  -9   2  -2 990.899 541.198   1
   9  -2  -2 624.872 425.928  12
  -9   2   2 551.204 520.282   1
   9  -2   2 908.924 357.123  12
  -9   2  -2 1592.91 724.549  10
   9  -2   2 1480.18 692.424  15
   9   2   2 1089.17 359.452  10
   9   2   2 1483.75 912.140  14
  -9  -2   2 4676.86 2532.72  13
  -9   2   2 860.257 575.802  10
  -9  -2   2 1471.83 1068.29   5
   9   2   2 1485.07 864.291  15
   9   2  -2 1136.92 853.788  14
  -9  -2  -2 1346.50 578.166   5
   9  -2   2 1084.30 619.226  14
  -9  -2  -2-378.978 1822.67  13
  -9   2   2 1208.00 780.757   9
   9   2   2 899.509 498.864   7
  10  -2   2 123180. 10779.7  12
  10   2  -2 89113.8 8080.71   7
 -10   2   2 106796. 7873.98   1
 -10   2  -2 115107. 8308.12   4
  10   2   2 108855. 7712.55  14
 -10   2   2 100905. 6988.89  10
 -10  -2   2 93986.5 6774.30   2
  10   2  -2 111047. 8173.32  14
 -10  -2   2 92445.5 8725.68   5
 -10  -2  -2 59127.3 9658.79  13
  10   2   2 57057.4 4761.72   7
 -10   2  -2 104624. 6812.86  10
  10  -2   2 101321. 5674.73  15
 -10  -2   2 87789.2 3639.44  10
  10  -2  -2 105504. 7544.29  12
 -10   2  -2 119216. 7737.72   1
 -10  -2  -2 98479.7 4968.87   5
 -10   2   2 111803. 6684.89   9
 -10   2   2 104158. 8292.07   4
  10  -2   2 123775. 8035.46  14
 -10   2   2 76684.1 6510.12  13
 -10   2   2 102247. 7236.47   2
 -10  -2   2 83414.1 9479.71  13
 -11   2   2 15855.1 3587.49   4
  11   2  -2 9432.01 2623.38   7
 -11   2  -2 14100.3 3011.60   4
 -11  -2   2 2622.22 1391.14  13
  11  -2  -2 12565.1 2808.03  12
  11  -2   2 15760.3 3855.26  12
  11   2   2 9762.91 2407.48   7
 -11  -2  -2 4000.95 1903.83  13
 -11  -2   2 13375.1 2565.53   2
 -11   2  -2 355.097 1375.75  13
 -11   2  -2 14259.0 2616.63  10
 -11  -2  -2 12728.3 1840.89   5
 -11   2   2 12622.3 2518.87  10
 -11  -2   2 12333.1 3158.03   5
 -11   2  -2 15693.2 2924.47   1
  11  -2   2 16399.9 2995.47  14
 -11   2   2 7578.30 2338.55  13
 -11   2   2 12739.0 2775.01   1
  11   2  -2 14836.8 3120.73  14
  11   2   2 14644.6 2924.69  14
  12   2  -2 9647.72 2792.87   7
 -12  -2   2 14876.6 2754.62   2
 -12   2   2 12269.2 2974.07   1
 -12   2  -2 13582.0 3137.54   4
 -12  -2   2 12997.8 2497.21   1
 -12   2   2 7032.87 2138.92  13
  12  -2   2 16568.8 3268.96  14
 -12   2  -2 12927.5 2603.79  10
 -12  -2   2 3976.80 1754.43  13
  12   2  -2 14340.2 3303.91  14
 -12  -2  -2 10643.8 4214.77  13
 -12   2   2 13182.5 2651.41  10
 -12  -2   2 11921.7 3362.13   5
 -12   2  -2 13544.1 2875.11   1
  12  -2  -2 12027.6 2646.12  12
 -12  -2  -2 12683.3 1901.61   5
 -12   2   2 17284.5 3919.23   4
  12   2   2 13110.7 2907.53  14
  12  -2   2 17313.7 4615.34  12
 -12   2  -2 8758.15 4193.23  13
 -13  -2   2 2139.54 2491.45  13
  13   2  -2-965.743 1365.72   7
 -13   2  -2 242.548 607.010   1
  13   2  -2-30.2906 692.451  14
  13  -2  -2-569.408 1154.00  12
  13  -2   2 1436.51 1948.21  12
 -13  -2  -2 2025.01 3153.46  13
 -13  -2   2-889.947 1256.84   5
  13   2   2 915.070 877.626  14
 -13  -2   2 1224.12 918.716   2
 -13   2   2 430.937 668.446   1
 -13   2  -2-372.737 352.031  10
 -13   2   2 543.049 722.530  10
 -13   2  -2-1401.44 1448.30   4
 -13   2   2-1643.37 1349.07  13
 -13   2   2 1998.73 2052.32   4
  13  -2   2 354.707 350.671  14
 -13  -2   2-333.678 795.995   1
 -14  -2   2 29261.5 6179.37  13
 -14  -2  -2 28851.7 6870.43  13
 -14   2  -2 40067.8 5998.30   4
 -14  -2   2 34712.3 4425.70   1
  14  -2  -2 36984.4 5100.41  12
 -14   2   2 35518.6 5298.55   1
 -14   2  -2 37631.6 8905.97  13
  14   2  -2 38994.7 5763.65  14
 -14   2   2 37371.1 4765.35  10
 -14  -2   2 37484.8 5896.64   5
 -14   2  -2 34627.4 4460.11  10
 -14   2  -2 38020.6 5247.77   1
 -14   2   2 22646.5 4380.50  13
 -14   2   2 47006.5 6823.63   4
  14  -2   2 47100.6 7337.37  12
  14  -2   2 44293.6 6029.77  14
  14   2   2 39796.7 5491.79  14
  14   2  -2 33691.6 5540.61   7
 -15   2   2 7672.94 3053.08   4
  15   2  -2 1028.65 696.006   7
 -15   2  -2 650.095 1018.16   4
  15  -2   2 5380.20 2472.51  12
  15  -2  -2 2069.40 1500.80  12
 -15   2   2 4196.22 2062.94   1
  15   2  -2 4278.54 2088.26  14
 -15   2   2 539.343 454.433  13
 -15  -2   2 2867.15 1387.91   5
  15   2   2 3869.93 1842.81  14
 -15   2  -2 2007.83 937.640  10
 -15   2  -2 5311.06 1935.63   1
 -15   2   2 2296.85 1155.95  10
 -15  -2   2 2997.34 779.735  13
 -15   2  -2 7373.48 4092.79  13
  15  -2   2 5959.20 2317.51  14
 -15  -2   2 3826.72 1513.10   1
 -15  -2  -2-2700.04 3709.89  13
 -16   2   2 92779.2 10131.0   4
  16  -2   2 93921.8 11052.3  12
 -16  -2  -2 83213.6 12439.1  13
  16  -2  -2 81432.4 8125.15  12
 -16   2   2 78559.7 8442.44   1
  16   2  -2 109321. 9333.77  12
 -16   2  -2 80640.6 12559.5  13
  16   2   2 83991.5 8706.65  14
 -16  -2   2 85181.7 9181.76   5
 -16   2  -2 89378.6 8775.22   1
 -16  -2  -2 77622.4 8561.65   4
 -16  -2   2 81958.2 10365.0  13
 -16   2  -2 87267.8 9680.99   4
  16   2  -2 85211.1 9127.16  14
 -17   2   2 2937.35 2327.52   4
 -17   2  -2-2239.33 2090.07   4
  17  -2  -2 2098.89 1634.61  12
  17   2  -2 2075.89 1737.60  14
  17  -2   2 53.7231 132.329  12
  17   2  -2 2571.04 1829.84  12
 -17   2  -2 160.809 1253.30  13
 -17   2  -2 1303.84 1333.24   1
 -17   2   2-537.298 698.664   1
 -17  -2  -2 1848.18 1396.64  13
 -17  -2   2 952.887 848.243   5
  17   2   2 1464.51 1383.60  14
 -17  -2  -2 1418.41 1250.37   4
 -18  -2  -2 45601.9 8779.82  13
 -18   2   2 48963.7 7831.04   4
  18  -2   2 54372.2 8392.37  12
 -18   2   2 42376.6 6548.53   1
  18  -2  -2 44218.1 6500.72  12
 -18   2  -2 43571.2 7369.82   4
  18   2  -2 42880.0 7130.05  14
 -18   2  -2 44331.4 9516.49  13
  18   2   2 48271.8 7176.45  14
 -18  -2  -2 42372.5 6775.76   4
 -19   2   2 8.54465 316.774   4
  19  -2  -2 1775.88 1674.93  12
   0  -2  -3 776.090 398.777  12
   0   2  -3 1412.89 657.945   7
   0  -2   3 930.071 390.459  12
   0   2   3 1950.37 960.598   2
   0  -2   3 508.044 280.272  11
   0   2  -3 1690.20 781.708  10
   0  -2   3 1352.36 578.888  14
   0  -2   3 1392.61 677.583   5
   1   2  -3 229451. 7671.24   7
  -1  -2  -3 245756. 6509.79   7
   1   2   3 241427. 8618.84  15
  -1  -2   3 220734. 4152.41  12
   1  -2   3 236772. 6465.94  12
  -1  -2  -3 211302. 4370.86   4
   1  -2  -3 228773. 6960.42  12
   1   2  -3 237835. 4768.37  12
   1   2  -3 237640. 7035.97   6
  -1  -2  -3 237068. 7309.18   3
   1   2  -3 232695. 7395.76  10
  -1   2   3 226784. 9541.19   2
  -1  -2   3 226228. 8005.14   5
   1  -2   3 238862. 6586.72   5
   1   2   3 236505. 8083.07   2
  -1   2  -3 230520. 7542.93   7
  -1  -2   3 233074. 6837.60  11
   1  -2   3 199039. 5377.50  14
   1   2  -3 225171. 6596.03  14
  -1   2  -3 248087. 7958.62  10
  -1  -2   3 196208. 7015.88  14
   2  -2  -3 13258.7 1665.45  12
   2   2  -3 12319.5 858.646  12
   2  -2   3 16449.4 2156.54  12
  -2  -2  -3 15694.3 1351.33   7
   2  -2   3 10762.2 1008.74  14
  -2  -2   3 14150.5 1793.08  11
  -2  -2  -3 14642.1 1809.05   3
   2   2  -3 8555.18 632.602   3
   2   2   3 14917.3 2262.46  15
   2   2  -3 12649.8 1744.01  10
  -2  -2  -3 15373.9 2251.04   2
  -2   2  -3 17277.2 2229.20  10
  -2   2  -3 16399.5 1644.00   5
  -2  -2   3 13361.5 2242.64   5
   2   2  -3 14423.5 1709.06   6
   2  -2   3 15827.5 1532.19   5
  -2  -2  -3 14143.7 1382.55   4
  -2   2   3 13138.8 2575.71   2
  -2   2  -3 15272.8 1991.64   7
   2   2  -3 14234.9 2011.77   7
   2   2   3 16416.2 1946.77   2
   2   2  -3 12489.6 1728.43  14
  -2  -2  -3 11739.9 672.127  11
  -3   2   3 219370. 10547.0   2
   3   2  -3 224390. 3818.73  12
  -3  -2  -3 241410. 7536.00   2
   3  -2   3 225852. 9230.35  12
  -3  -2  -3 239066. 4146.76   7
   3   2  -3 210287. 4851.12   3
  -3  -2  -3 236991. 6603.06   4
  -3  -2  -3 251115. 7707.56   3
   3   2  -3 244047. 7107.43   6
  -3  -2   3 203010. 7318.97   8
  -3   2  -3 254427. 8562.06  10
  -3   2   3 211512. 4069.96   6
  -3  -2   3 209538. 9843.57   5
  -3   2  -3 244258. 5673.56   5
   3  -2   3 248807. 5481.85   5
   3   2   3 238951. 9205.55  15
  -3   2  -3 239310. 8045.10   7
   3   2  -3 234663. 8123.33  14
   3  -2  -3 245567. 7565.85  12
   3   2   3 238162. 6322.11   2
   3   2  -3 258099. 9109.42   7
  -3   2  -3 261472. 9966.52  13
  -4  -2   3 34572.8 3097.10   8
   4   2  -3 34996.6 1782.45  12
   4  -2  -3 42882.8 3310.90  12
  -4  -2  -3 36986.3 2718.92   2
   4  -2   3 37271.7 4266.69  12
  -4   2  -3 46449.5 4726.83  13
   4  -2   3 35890.9 1777.78  14
   4   2  -3 28090.6 2318.47   3
  -4   2  -3 36079.7 3253.74   7
   4   2  -3 40150.5 3666.32  14
   4   2  -3 42371.5 3863.07   7
  -4   2  -3 42042.3 3553.84  10
   4  -2  -3 33188.3 2066.44  13
   4   2   3 37562.1 3837.81  15
  -4  -2   3 32771.3 4238.39   5
  -4   2  -3 38007.9 2044.75   5
  -4  -2  -3 39733.7 3233.91   3
   4   2   3 36019.2 1612.07  11
  -4  -2  -3 34326.1 2723.96   8
  -4   2   3 36785.4 4473.54   2
  -5   2  -3 52097.5 5742.99  13
   5  -2  -3 37262.9 2588.25  13
   5   2  -3 40641.1 4126.98   7
  -5  -2  -3 41380.7 3640.58   3
   5  -2  -3 45028.1 3642.38  12
  -5   2   3 41752.7 5049.83   2
   5  -2   3 32794.6 4519.74  12
   5   2   3 41550.3 2207.65  11
   5   2  -3 41632.9 3979.25  14
  -5   2  -3 43114.6 3847.04  10
  -5  -2   3 30169.1 4455.66   5
  -5   2  -3 41556.3 2018.23   5
  -5  -2  -3 54697.6 7434.00  13
  -5  -2  -3 37732.1 2545.63   8
   5  -2   3 43005.2 2427.68  14
   5   2   3 40010.4 4159.27  15
  -5  -2   3 30406.6 3000.46   8
   5   2   3 41505.1 4034.83  14
  -6   2  -3 45854.8 6073.86  13
  -6   2   3 42740.4 5052.28   2
   6   2  -3 35934.3 4224.08   7
  -6  -2  -3 44135.2 4000.99   3
   6  -2  -3 40848.0 3608.29  12
  -6  -2   3 25602.8 4565.55   5
   6   2   3 44123.4 4540.62  15
  -6   2  -3 44842.2 4015.40  10
   6   2   3 42691.0 4163.20  14
  -6   2   3 45309.7 4567.63   9
  -6  -2  -3 48027.3 7439.75  13
   6  -2   3 29037.7 4566.97  12
  -6  -2   3 33300.5 3192.95   8
   6  -2   3 45622.7 2977.85  14
  -6   2  -3 40726.1 1860.09   5
   6   2  -3 42236.6 4251.82  14
   6  -2  -3 31191.5 2733.35  13
   7   2   3 86186.3 6121.40  14
  -7   2  -3 72432.6 8316.15  13
   7   2  -3 65667.6 6183.64   7
  -7  -2  -3 70071.2 10017.6  13
   7   2   3 79375.0 6307.07  15
   7  -2  -3 79192.1 5433.41  12
   7  -2   3 67468.8 7375.83  12
   7  -2  -3 71737.1 2966.93   6
   7  -2   3 78103.0 4795.50  15
  -7   2   3 79480.2 6965.64   2
  -7   2  -3 78633.4 5533.10  10
  -7  -2   3 50615.6 6633.20   5
  -7   2  -3 76065.7 2471.05   5
  -7   2   3 84129.3 6317.46   9
  -7  -2   3 60784.0 4594.95   8
   7   2  -3 77804.5 6099.79  14
  -7  -2  -3 86576.8 6219.95   3
   7  -2   3 85808.9 4709.09  14
  -8   2  -3-839.017 914.807  13
   8   2   3 398.254 179.427   7
  -8   2   3 232.328 553.177   2
   8  -2   3-483.023 1607.19  12
   8  -2   3 436.523 518.873  14
   8   2   3 224.722 149.123   9
   8  -2   3 361.659 429.784  15
   8  -2  -3 240.270 310.972   6
   8   2   3 423.738 729.837  15
  -8   2  -3 554.134 578.293  10
  -8  -2   3 417.999 447.826   8
  -8   2   3 364.081 719.451   9
  -8   2  -3 261.063 174.246   5
  -8  -2  -3 467.682 376.824   5
   8   2  -3 1051.91 1000.56  14
  -8  -2   3-188.208 710.584   5
   8  -2  -3 804.387 618.196  12
   8   2  -3 246.010 395.991   7
  -8  -2  -3-1824.69 2566.66  13
   8   2   3 307.753 474.400  14
   9   2  -3 192673. 11637.5   7
   9   2   3 237954. 10949.2  14
   9  -2   3 229679. 15501.0  12
   9  -2   3 233442. 8929.31  15
  -9   2  -3 219537. 9887.21  10
  -9  -2   3 204588. 13974.2   5
  -9   2   3 235066. 12262.8   2
   9   2   3 227739. 11534.0  15
  -9   2  -3 203509. 4135.24   5
   9   2  -3 235016. 11687.6  14
  -9  -2  -3 219425. 6470.01   5
  -9  -2   3 234474. 12966.5  13
   9  -2   3 265984. 10317.2  14
   9  -2  -3 227642. 10154.4  12
  -9   2   3 242695. 10732.9   9
 -10  -2   3 2750.52 1682.56  13
  10   2  -3-424.374 600.111   7
 -10   2   3 1123.14 1065.92   2
  10  -2  -3 583.681 555.968  12
  10  -2   3 1358.96 1922.10  12
  10   2   3 1455.81 956.337  15
  10   2  -3 1072.54 1086.96  14
 -10   2   3 1663.58 1063.36   9
 -10   2  -3 685.464 968.026  10
 -10  -2  -3-1186.21 2166.56  13
 -10  -2   3 1063.72 1250.55   5
 -10  -2   3-671.033 913.837   2
  10  -2   3 606.713 691.977  14
 -10  -2  -3 795.452 483.901   5
  10   2   3 644.308 866.450  14
  10  -2   3 854.732 773.727  15
  11   2  -3 68713.0 7638.56   7
 -11   2   3 78339.2 7454.45   1
 -11  -2   3 89678.8 9559.68   5
 -11  -2   3 75264.0 6688.22   2
  11  -2   3 100084. 10998.2  12
 -11  -2  -3 74485.2 4009.17   5
  11   2   3 81933.1 7446.92  15
  11   2   3 88567.8 7317.40  14
 -11  -2   3 44092.2 6878.94  13
 -11   2   3 82858.3 7361.37   2
  11  -2  -3 83442.1 6749.75  12
  11   2  -3 82512.1 7576.91  14
 -11  -2  -3 65597.8 10878.2  13
 -11   2   3 83002.2 6392.61   9
 -11   2   3 71915.0 6393.91  10
  11  -2   3 83032.6 5824.87  15
 -11   2  -3 81494.1 6485.68  10
  11  -2   3 100361. 7404.20  14
 -11   2  -3 86548.0 7833.35   4
 -12  -2  -3 6745.93 2192.90   4
  12   2  -3 2784.78 1335.60   7
  12  -2  -3 5808.32 1822.04  12
  12   2   3 7674.83 2238.85  15
  12  -2   3 5406.30 1499.87  15
 -12   2   3 5818.28 1713.20   9
  12   2  -3 6992.65 2307.33  14
 -12   2   3 5600.62 1831.74  10
 -12  -2  -3 8769.99 4328.78  13
 -12  -2   3 5981.39 2713.51   5
 -12  -2   3 6891.78 2131.60   2
 -12   2   3 4565.00 1835.81   2
 -12   2   3 5543.56 1906.68   1
 -12   2  -3 5130.83 1762.24   4
  12  -2   3 7104.00 1898.35  14
 -12   2  -3 6612.22 1912.88  10
  12   2   3 7276.64 2240.15  14
 -12   2  -3 11605.7 5550.31  13
  12  -2   3 12931.4 4207.67  12
 -13  -2   3 15032.8 2870.63   1
 -13   2   3 24225.0 4833.01   4
  13   2  -3 11736.5 3212.24   7
  13  -2   3 24355.8 5487.68  12
 -13  -2   3 17475.3 3371.40   2
 -13  -2   3 14411.3 4188.34  13
 -13   2  -3 16999.7 3211.66  10
 -13   2   3 15921.5 3128.28  10
 -13  -2  -3 15278.5 3460.85   4
 -13  -2   3 14620.0 4108.80   5
 -13   2  -3 21243.9 7003.25  13
 -13  -2  -3 15440.7 4876.76  13
  13   2   3 19130.2 3736.36  14
 -13   2   3 15830.4 2789.68   9
  13  -2  -3 14162.6 3051.00  12
 -13   2  -3 15509.7 3510.14   4
  13   2  -3 16493.6 3740.51  14
  13  -2   3 20581.3 3665.27  14
 -13   2   3 13233.8 3278.33   1
 -14   2   3 30437.4 5560.98   4
 -14   2  -3 23414.6 7033.33  13
 -14  -2  -3 14638.0 4248.36  13
 -14  -2   3 16761.8 3196.51   1
  14   2   3 21777.6 4057.52  14
  14  -2   3 25384.5 4340.52  14
  14  -2  -3 19806.9 3697.95  12
  14  -2   3 26588.4 5948.79  12
 -14   2  -3 20888.0 3597.61  10
 -14  -2   3 21009.2 4929.75   5
 -14   2   3 20169.4 4045.54   1
 -14   2   3 17882.5 3327.74  10
  14   2  -3 26315.4 4042.59  12
  14   2  -3 21093.8 4380.00  14
 -14  -2   3 15143.9 3706.49  13
 -14  -2  -3 22407.1 4290.15   4
 -14   2  -3 19049.7 4149.78   4
  14   2  -3 17028.6 4041.15   7
 -15  -2  -3 45641.8 8877.90  13
 -15  -2  -3 43732.7 6158.36   4
 -15   2   3 40118.9 5997.30   1
  15  -2  -3 41176.4 5530.04  12
  15   2  -3 53963.4 5853.95  12
  15   2  -3 43380.3 6738.30   7
  15   2  -3 43565.4 6555.89  14
 -15   2   3 39032.5 5180.37  10
 -15   2  -3 41654.3 5142.19  10
 -15  -2   3 48983.1 7750.99   5
  15  -2   3 56029.7 8807.80  12
 -15   2  -3 43351.1 6522.46   4
 -15  -2   3 38830.8 5020.88   1
 -15   2   3 55733.8 7655.68   4
  15   2   3 45884.3 6254.45  14
 -15   2  -3 45793.2 9598.14  13
 -16  -2   3-251.042 140.242   1
 -16   2   3 3889.42 2681.96   4
  16   2  -3 4553.82 2460.08   7
  16   2   3 395.070 783.511  14
 -16  -2   3-98.8159 1177.42   5
  16  -2   3 1347.37 2015.39  12
  16   2  -3 160.466 1042.93  14
 -16  -2  -3 1811.71 1592.84   4
 -16  -2  -3-5542.05 3535.26  13
 -16   2  -3-1584.36 1781.73   4
 -16   2  -3 2729.85 2449.21  13
 -16   2   3 81.5033 258.099   1
  16  -2  -3 298.671 867.775  12
 -17  -2  -3 45296.8 6724.48   4
 -17   2  -3 48549.6 7508.50   4
  17  -2   3 65827.8 9536.03  12
 -17   2   3 43237.5 6665.04   1
 -17   2  -3 45066.1 9456.09  13
 -17   2   3 61024.9 8473.27   4
 -17  -2   3 50421.3 7570.65   5
 -17  -2  -3 55320.1 10142.3  13
  17  -2  -3 46050.9 6274.25  12
  17   2  -3 44684.2 7052.02  14
  17   2   3 55814.7 7308.94  14
  18   2   3 2896.55 1745.05  14
 -18  -2  -3 672.110 2068.03  13
 -18   2   3 1528.89 1500.10   1
  18  -2  -3 1145.71 1376.38  12
 -18  -2   3 1302.28 1360.51   5
 -18   2  -3 642.013 1170.52  13
  19  -2  -3 23565.3 4703.71  12
   0  -2   4 56768.9 2664.23  12
   0   2   4 46198.9 5071.61   2
   0  -2   4 52897.5 3364.03  11
   0   2  -4 53275.6 3995.71   7
   0  -2   4 56477.4 4147.49   5
   0  -2  -4 59579.7 4052.24   7
   0   2  -4 53498.4 4237.19  10
  -1  -2  -4 34816.1 2718.47   7
  -1   2   4 24680.5 3855.11   2
   1   2  -4 32475.9 3237.96   7
  -1   2  -4 31878.8 3082.91   7
   1  -2  -4 30726.6 2664.72  12
  -1  -2   4 26233.9 1363.08  12
  -1  -2   4 30787.9 2690.37  11
   1  -2   4 32190.5 2596.43  11
   1  -2   4 24031.2 1163.81   3
   1  -2  -4 31684.3 3309.84   7
   1  -2   4 26858.6 2557.59  14
  -1  -2  -4 32026.4 2868.71   3
  -1   2  -4 33678.5 3368.10  10
  -1  -2   4 29639.2 3449.11   5
   1  -2   4 32761.8 2846.70   5
   1   2   4 28983.0 3777.32   2
   1  -2   4 33346.8 2705.01  12
  -2  -2  -4 103349. 4021.23   7
  -2   2   4 73628.5 7037.59   2
  -2   2  -4 90086.5 5211.96   7
   2  -2  -4 93555.5 4653.34  12
   2  -2   4 97968.6 3090.59   3
   2   2   4 100767. 6237.71   2
   2  -2   4 89626.0 5383.11  12
  -2  -2  -4 91709.1 3649.28   4
  -2  -2   4 97825.4 5013.04  11
  -2   2  -4 96267.5 5619.10  10
  -2  -2   4 85402.8 6518.30   5
   2   2   4 91585.8 6186.88  15
   2  -2   4 97153.2 4308.64   5
  -2  -2   4 97085.7 5747.43   8
   2   2  -4 96348.4 5817.70   7
  -2  -2  -4 100226. 5012.13   3
   3   2   4 13497.1 2068.95   2
   3   2  -4 12706.4 2312.48   7
  -3  -2  -4 12264.1 1549.75   4
  -3   2  -4 12268.7 1959.93   7
  -3  -2  -4 17519.7 4685.74  13
   3  -2  -4 11421.0 1641.44  12
   3  -2   4 11006.9 2223.23  12
  -3  -2  -4 12820.5 1272.61   7
  -3  -2  -4 12222.2 1867.91   3
   3   2   4 11676.2 2337.31  15
   3   2  -4 11491.6 1650.53   6
  -3   2   4 8616.17 2543.53   2
  -3   2  -4 14067.2 2252.18  10
  -3   2  -4 12902.1 2478.06  13
   3  -2   4 11796.8 1390.91   5
   3  -2   4 13361.5 1406.91   3
  -3  -2   4 7444.40 2226.73   5
   3   2  -4 10139.4 1953.07  14
  -3  -2   4 10748.5 2108.02   8
   3   2  -4 5782.45 759.917   3
  -4   2  -4 165697. 9455.14  13
  -4  -2  -4 157654. 12910.8  13
  -4  -2  -4 152810. 3876.60   7
  -4  -2  -4 146527. 5784.86   4
   4   2   4 155701. 5784.29   2
  -4   2  -4 146951. 6852.14   7
   4  -2  -4 148576. 6182.33  12
   4   2  -4 157203. 5904.23   6
  -4   2   4 134298. 10222.8   2
  -4   2  -4 156256. 7543.94  10
  -4  -2   4 93703.1 8747.09   5
   4   2   4 144102. 8110.78  15
   4  -2   4 151669. 4226.72   5
  -4  -2   4 121819. 6668.62   8
   4   2  -4 152284. 8148.94   7
   4  -2   4 108801. 8099.61  12
   4   2  -4 84535.4 4157.04   3
   4   2  -4 144925. 7386.90  14
  -4  -2  -4 146243. 6550.79   3
   4  -2   4 135937. 3968.40  14
  -5   2  -4 28514.4 4520.17  13
   5  -2  -4 14969.7 1452.28  13
  -5  -2  -4 40494.1 7104.38  13
  -5   2   4 20246.7 4032.46   2
  -5  -2  -4 22030.6 2569.33   4
   5   2  -4 12522.2 986.874  12
   5   2  -4 22447.2 3408.90   7
   5  -2  -4 22874.0 2613.04  12
   5   2  -4 22985.9 2341.56   6
   5  -2   4 24025.7 1861.25  14
  -5  -2   4 16783.4 2561.15   8
   5  -2   4 13536.2 3058.85  12
   5   2   4 22026.8 3345.42  15
  -5  -2   4 11309.4 2981.92   5
  -5   2  -4 24780.8 3163.89  10
  -5   2  -4 21542.4 2758.27   7
   5   2  -4 23269.9 3188.65  14
   5   2  -4 16080.8 1021.00  12
   5   2   4 22343.9 3202.11  14
  -5  -2  -4 23120.9 2834.82   3
   5   2   4 16882.9 1008.57  11
  -5  -2  -4 20185.2 1340.38   7
  -6   2  -4 154002. 11423.2  13
   6   2  -4 122676. 8218.99   7
  -6   2   4 133790. 10679.9   2
  -6  -2  -4 99303.6 12318.2  13
  -6  -2  -4 149732. 7392.30   3
  -6  -2  -4 129724. 6544.14   4
   6  -2  -4 137420. 6661.46  12
   6  -2   4 77329.1 8017.51  12
   6   2   4 131951. 8242.87  15
  -6  -2   4 106683. 6755.32   8
  -6   2  -4 143754. 7587.62  10
   6  -2  -4 71891.8 4073.71  13
   6  -2   4 138424. 5072.05  14
  -6  -2   4 71797.6 8449.56   5
   6   2   4 135761. 7754.57  14
   6   2  -4 119892. 4020.77  12
   6   2  -4 131941. 7893.95  14
   6   2   4 121437. 3699.71  11
   7  -2  -4-520.714 778.073  13
  -7  -2  -4 2443.81 2971.64  13
   7   2   4 1731.30 459.313   7
  -7  -2  -4 2018.92 902.596   4
   7   2   4 2583.03 1330.03  15
   7   2  -4 1905.55 1107.75   7
   7  -2   4 121.571 1980.14  12
   7  -2  -4 2626.03 1095.01  12
  -7   2  -4 3218.56 1282.94  10
  -7  -2  -4 2406.90 1300.94   3
  -7   2   4 2481.57 1525.97   2
   7  -2   4 2179.64 661.663  14
  -7   2  -4 3423.67 1889.58  13
   7   2   4 1700.09 869.347  14
  -7  -2   4 115.646 910.758   5
   7  -2   4 2398.32 1117.23  15
  -7  -2   4 1334.18 825.317   8
   7   2  -4 3076.07 1433.28  14
   8   2  -4 163624. 10659.2   7
  -8  -2  -4 107076. 13663.3  13
   8  -2  -4 186652. 8406.84  12
   8  -2   4 156302. 13044.5  12
   8   2   4 188031. 10586.6  15
   8  -2   4 193963. 8702.41  15
  -8   2  -4 140225. 13458.6  13
  -8  -2   4 153422. 13383.1   5
  -8  -2  -4 180395. 8834.19   4
  -8   2   4 196423. 10676.5   9
  -8   2   4 188742. 12396.1   2
  -8   2  -4 208614. 9638.65  10
  -8  -2   4 158105. 8741.69   8
   8   2  -4 179679. 10077.5  14
   8  -2   4 199733. 7667.19  14
   8   2   4 198745. 9958.05  14
  -8  -2  -4 198932. 10436.9   3
  -9   2  -4-1370.13 2149.07  13
  -9  -2  -4-1020.55 2359.57  13
  -9  -2  -4 1555.27 1049.44   4
   9   2  -4 2075.75 1612.17   7
   9  -2   4 1435.53 877.238  14
   9   2   4 692.251 956.758  15
   9   2  -4 1571.38 923.983  12
   9  -2   4 1199.61 1606.90  12
  -9   2   4 635.678 974.294   2
  -9  -2   4 1017.35 915.941   8
   9   2  -4 1400.47 1163.69  14
  -9   2  -4 673.682 685.987  10
   9  -2   4 969.678 712.908  15
  -9   2   4 400.294 892.627   9
  -9  -2   4 71.9881 1096.46   5
   9  -2  -4 1126.30 869.151  12
   9   2   4 571.884 763.554  14
 -10   2   4 163728. 11499.8   2
  10   2  -4 151516. 11356.8   7
 -10  -2  -4 140459. 16245.7  13
  10  -2  -4 160965. 8581.18  12
  10   2  -4 168291. 7515.94  12
  10   2  -4 157137. 10229.5  14
 -10  -2   4 116401. 9912.92  13
 -10   2   4 169609. 9925.67   9
  10  -2   4 193114. 15622.4  12
 -10   2  -4 161636. 9093.89  10
  10   2   4 176286. 10074.4  14
 -10  -2   4 181778. 15321.6   5
  10   2   4 157673. 10360.7  15
 -10  -2  -4 154007. 9222.81   4
  10  -2   4 156752. 8309.65  15
 -10  -2   4 139261. 9965.24   2
 -10   2  -4 76103.0 11335.2  13
  10  -2   4 187452. 9005.85  14
 -11   2  -4 2926.44 2083.71  13
 -11  -2   4 2275.53 2027.76   5
 -11  -2  -4 2569.16 2890.10  13
  11   2  -4 2443.66 1746.98   7
  11  -2  -4 773.403 633.655  12
 -11  -2   4-2694.44 2182.60  13
  11  -2   4 2064.19 2788.28  12
  11   2  -4 894.446 882.001  12
  11   2  -4 410.368 894.067  14
 -11  -2  -4 376.067 779.679   4
 -11  -2   4-614.649 789.312   2
 -11   2  -4 267.621 599.628  10
 -11   2   4 883.461 946.979   9
 -11   2   4 702.889 994.084   2
  11  -2   4 984.920 921.102  15
  11   2   4 740.562 1012.40  15
  11   2   4 255.972 438.477  14
  11  -2   4 576.111 665.422  14
 -12  -2  -4 64064.5 10908.0  13
 -12  -2   4 39841.1 6309.19  13
 -12  -2  -4 60909.2 6372.40   4
 -12  -2   4 62206.6 6740.31   2
  12  -2  -4 59289.8 5728.17  12
  12   2  -4 64260.7 5147.53  12
  12  -2   4 86832.8 11008.0  12
  12  -2   4 72274.1 6450.89  14
 -12  -2   4 72910.5 9825.57   5
  12   2   4 68228.2 6808.80  14
 -12   2  -4 52340.2 10721.9  13
  12   2  -4 58974.7 7707.55   7
 -12   2   4 49307.8 5682.81  10
 -12   2   4 61020.4 6002.90   9
  12   2   4 63776.9 7018.40  15
  12  -2   4 61053.5 5630.31  15
  12   2  -4 63238.5 7131.63  14
 -12   2   4 61862.4 7020.17   2
 -12   2  -4 61481.6 6014.63  10
 -13  -2  -4 8336.93 2457.04   4
 -13  -2  -4 552.164 2202.79  13
 -13  -2   4 9089.37 3654.08   5
  13   2  -4 8366.28 2843.23  14
  13   2   4 8753.94 2612.32  15
 -13   2  -4 8469.82 2328.26  10
  13  -2  -4 8273.07 2207.52  12
 -13  -2   4 9473.15 2782.72   2
 -13   2   4 8472.74 2187.02   9
 -13   2   4 6368.96 1986.28  10
  13   2   4 10342.5 2829.01  14
 -13   2   4 7865.10 2451.13   2
 -13   2   4 7421.57 2535.04   1
  13  -2   4 15484.8 5075.08  12
  13   2  -4 10237.7 3397.40   7
  13  -2   4 8876.20 2095.87  15
 -14   2  -4 39825.0 9840.54  13
  14   2  -4 58623.2 7960.30   7
 -14  -2  -4 52787.4 6430.65   4
 -14   2   4 47528.1 6534.91   1
 -14  -2   4 55060.4 6415.90   2
  14   2  -4 50421.3 6874.04  14
  14  -2   4 78054.6 10788.1  12
 -14   2   4 66296.7 7909.86   4
  14   2   4 61682.0 6904.43  14
 -14   2   4 47647.2 6248.15   2
 -14   2   4 43965.9 5566.93  10
 -14  -2   4 64099.1 9296.65   5
 -14   2   4 54494.6 5703.28   9
 -14   2  -4 51445.8 5902.41  10
  14  -2  -4 53297.1 5840.35  12
 -14  -2  -4 63006.1 10868.4  13
  15  -2  -4 1394.14 1119.85  12
  15   2  -4 8683.41 3535.73   7
  15   2   4 50.8590 589.079  14
 -15   2   4 6460.21 3026.67   4
 -15  -2  -4 1759.33 1643.16   4
 -15   2  -4 499.363 800.796  10
 -15  -2  -4-1312.61 1993.16  13
 -15   2   4 63.2214 687.728  10
 -15  -2   4 62.3070 468.781   1
 -15  -2   4 195.047 508.292   5
  15   2  -4 1082.24 1151.45  14
 -15   2   4-1078.07 1144.40   1
  15  -2   4 5012.71 3437.07  12
 -15   2  -4-693.639 1814.77  13
 -16   2  -4 35856.1 8759.74  13
  16   2  -4 39440.0 6871.20   7
 -16  -2  -4 30865.0 5314.72   4
  16  -2  -4 30836.5 4756.20  12
  16  -2   4 47462.1 8403.30  12
  16   2   4 36269.8 5717.88  14
 -16  -2   4 26864.5 4468.74   1
 -16  -2   4 32567.8 6649.44   5
 -16   2   4 28019.4 5249.06   1
  16   2  -4 26861.8 5477.79  14
 -16  -2  -4 43708.6 9129.60  13
 -17   2  -4 8989.21 4254.68  13
 -17   2   4 6911.37 2869.87   1
 -17  -2  -4 10724.6 3273.51   4
  17  -2  -4 8334.83 2942.95   7
  17   2   4 10290.4 3120.31  14
 -17  -2  -4 11871.3 5082.98  13
 -17  -2   4 4386.49 2161.88   5
  17  -2   4 15005.9 4894.78  12
  17   2  -4 8664.69 3207.77  14
  18   2   4 10749.6 3264.32  14
  18  -2  -4 5081.26 2231.24   7
 -18  -2   4 3866.65 1931.98   5
   0  -2  -5 920.102 690.335   7
   0  -2   5 1181.92 1040.88   8
   0   2  -5 500.562 437.150   7
   0  -2   5 1265.24 477.522  12
   0  -2   5 453.535 335.280  11
   0   2   5-1647.58 2189.07   2
   0  -2  -5 2422.22 2171.41  13
   0  -2   5 582.463 613.074   5
   0  -2  -5 156.717 286.471   3
   1  -2  -5 60809.5 4727.01   7
  -1  -2  -5 56310.0 3738.07   7
  -1  -2  -5 57823.8 6622.31  13
  -1   2   5 44472.3 2434.24   4
   1   2   5 38089.7 5004.61   2
  -1  -2   5 52592.8 3759.27  11
  -1  -2   5 41958.3 1633.77  12
   1  -2   5 52917.9 3765.07  12
   1  -2   5 50380.2 3442.45  11
   1  -2  -5 61784.2 5391.26  13
  -1   2  -5 56311.4 4710.50  10
  -1   2  -5 49064.7 4161.21   7
  -1  -2   5 47930.4 5059.48   5
   1  -2   5 56569.4 4287.56   5
  -1   2   5 22324.2 4269.93   2
   1   2  -5 53643.0 4557.73   7
  -1  -2  -5 55028.1 3887.16   3
  -1  -2   5 53686.9 4841.27   8
  -2  -2  -5 76392.2 3947.00   7
  -2  -2  -5 70080.4 8348.88  13
   2   2  -5 76926.9 5691.28   7
   2   2   5 66714.0 6407.66   2
   2  -2   5 69339.8 5219.58  12
   2  -2  -5 68925.4 4252.69  12
   2  -2   5 76771.7 4285.01  11
  -2   2  -5 80524.5 5689.62  10
  -2   2  -5 70918.6 5035.71   7
  -2  -2   5 62173.7 6544.98   5
   2  -2   5 78181.7 4517.35   5
  -2  -2   5 61278.7 5414.10   8
   2  -2  -5 87247.4 6120.47   7
  -2  -2  -5 74137.0 4753.96   3
  -2   2   5 41847.8 6256.66   2
   2  -2   5 76790.7 2866.20   3
  -3   2  -5 224549. 10066.0  13
  -3  -2  -5 178905. 13946.0  13
   3   2  -5 223404. 10271.1   7
   3  -2  -5 208674. 7320.87  12
   3  -2  -5 234641. 10531.8   7
  -3  -2  -5 215390. 8106.67   3
  -3  -2  -5 233149. 6501.82   7
  -3   2  -5 205809. 8528.66   7
  -3   2  -5 216372. 9366.31  10
   3   2   5 216734. 10732.9  15
   3   2   5 220251. 10378.0   2
  -3  -2   5 147920. 11052.8   5
   3  -2   5 225922. 6629.79   5
  -3   2   5 155795. 12591.3   2
  -3  -2   5 201383. 9459.12   8
   3  -2   5 161476. 9523.97  12
   4  -2  -5 535.861 207.984  13
   4  -2   5 955.648 455.385   5
   4   2  -5 785.375 809.413   7
   4  -2   5-1936.65 2173.89  12
  -4   2  -5 1225.45 746.713   7
   4   2   5 928.680 408.971   2
   4   2   5 742.914 622.675  15
   4  -2  -5 630.909 432.412  12
   4  -2  -5 706.145 722.138   7
  -4  -2   5-1958.16 2595.98   5
  -4   2  -5 1165.82 931.631  10
  -4  -2  -5-235.225 819.763  13
  -4  -2  -5 802.819 610.263   3
  -4   2  -5 2493.10 1624.56  13
  -4  -2  -5 888.438 402.566   7
  -4  -2  -5 978.369 643.634   4
  -4  -2   5 331.995 333.862   8
  -4   2   5-210.251 1207.17   2
   5   2  -5 208524. 10879.7   7
  -5  -2  -5 99494.0 13171.0  13
  -5   2   5 188010. 13974.7   2
  -5  -2  -5 232848. 5662.60   7
  -5   2  -5 246069. 13349.5  13
  -5  -2  -5 211051. 7753.36   4
  -5   2  -5 212091. 8840.37   7
   5  -2  -5 208441. 7686.32  12
   5   2  -5 213762. 7117.30   6
   5   2   5 229489. 7921.56   2
  -5   2  -5 225868. 9998.37  10
  -5  -2   5 75547.9 9848.07   5
  -5  -2   5 177410. 9342.91   8
   5  -2   5 220801. 4888.70   5
   5  -2   5 198668. 6058.69  14
  -5  -2  -5 224760. 8953.44   3
   5  -2  -5 214670. 11290.3   7
   5   2   5 212956. 10909.7  15
   6   2   5 2091.67 990.645  14
  -6   2  -5 3809.90 1807.48  13
  -6  -2  -5 3099.45 3252.61  13
   6   2  -5 1554.44 1103.23   7
   6  -2  -5 2071.08 879.483  12
   6   2  -5 2438.12 1279.59  14
  -6   2  -5 1878.66 845.087   7
   6  -2   5 2364.79 759.717  14
   6   2  -5 2412.15 759.527   6
  -6   2   5 1261.12 906.482   2
  -6  -2  -5 2146.08 1055.44   3
  -6  -2  -5 1860.91 491.007   7
  -6  -2   5-1463.50 2588.37   5
  -6   2  -5 3173.79 1376.83  10
  -6  -2   5 1101.68 612.474   8
  -6  -2  -5 2480.54 1021.20   4
   6   2   5 2501.34 769.931   2
   6   2   5 1884.69 1198.61  15
   6  -2  -5 1863.38 1066.88   7
  -7   2  -5 105174. 10361.6  13
  -7  -2  -5 92653.8 6029.11   4
   7   2  -5 87037.7 7750.75   7
  -7  -2  -5 61653.6 10502.6  13
   7  -2  -5 95266.5 5715.09  12
   7   2  -5 71553.6 2304.29  12
   7   2   5 98672.0 7167.63  14
  -7  -2  -5 103392. 6959.84   3
   7   2   5 96028.3 7694.06  15
  -7   2   5 99429.2 10241.9   2
   7   2  -5 98276.5 4935.51   6
  -7   2  -5 106212. 7153.71  10
  -7  -2   5 52110.7 9058.21   5
   7  -2   5 99271.5 4921.84  14
   7   2  -5 90897.9 7204.88  14
  -7  -2   5 78186.3 6599.64   8
  -8   2   5 16014.2 4250.21   2
  -8  -2  -5 19335.2 5665.61  13
  -8  -2   5 13292.6 2843.11   8
   8  -2  -5 15219.2 2401.47  12
   8  -2   5 15385.8 2767.76  15
  -8  -2  -5 14719.9 2568.22   4
   8  -2   5 9981.63 3167.96  12
   8   2   5 14046.3 3078.61  15
   8   2  -5 14171.1 1913.56   6
  -8   2  -5 15673.0 4356.71  13
  -8  -2   5 9284.09 4180.36   5
   8   2  -5 13205.5 1294.17  12
   8   2  -5 14963.3 3083.36  14
  -8  -2  -5 15711.8 3042.15   3
   8   2   5 16288.5 3042.81  14
  -8   2  -5 17440.5 3177.16  10
   8   2  -5 13950.2 3337.81   7
   8  -2   5 15743.7 2157.72  14
   9  -2   5 47519.8 4840.59  15
  -9   2  -5 42812.4 7701.41  13
   9   2  -5 44962.2 6397.36   7
  -9   2   5 50213.9 7112.90   2
  -9  -2  -5 46253.7 4777.68   4
  -9  -2  -5 48842.0 9713.06  13
  -9  -2   5 38045.1 4888.08   8
   9  -2  -5 45819.6 4313.88  12
   9  -2   5 48443.4 8220.37  12
   9   2   5 51099.4 5996.90  15
  -9   2  -5 52239.6 5356.93  10
  -9  -2   5 47189.0 9034.51   5
   9  -2   5 53493.7 4347.13  14
   9   2   5 49700.0 5343.55  14
   9   2  -5 45231.0 5485.22  14
  -9  -2   5 41884.1 4964.98  13
 -10   2  -5 2141.43 1440.40  13
 -10   2   5 3315.11 2075.44   2
  10  -2   5 3630.18 1411.64  15
  10  -2  -5 5106.95 1571.30  12
  10  -2   5 8369.24 4286.79  12
 -10  -2   5 2357.44 1046.83   2
 -10   2  -5 4264.50 1683.81  10
  10   2   5 4078.59 1845.23  15
 -10   2   5 4543.80 1856.02   9
 -10  -2   5 6922.66 3741.25   5
 -10  -2  -5 4302.28 1566.98   4
  10   2  -5 4390.45 1842.08  14
 -10  -2  -5 7832.66 4068.05  13
  10  -2   5 5133.77 1524.36  14
  10   2  -5 5157.31 2462.95   7
  10   2   5 4616.06 1741.67  14
 -11   2   5 51106.4 7077.15   2
 -11   2  -5 43865.9 9108.26  13
  11   2  -5 47933.3 6944.98   7
 -11  -2  -5 47442.5 5217.71   4
  11   2  -5 48558.4 6255.54  14
 -11  -2  -5 52501.1 9726.10  13
  11  -2   5 46609.9 5042.66  15
 -11   2   5 50458.0 6018.09   9
  11  -2  -5 49044.4 4773.82  12
 -11   2  -5 52565.2 5754.73  10
 -11  -2   5 61369.7 10074.1   5
  11   2   5 48319.9 6215.33  15
  11   2   5 55582.7 6011.34  14
  11  -2   5 78565.3 10835.0  12
 -11  -2   5 42561.5 5813.60   2
 -12   2  -5 9684.90 5188.39  13
 -12  -2  -5 624.888 2996.57  13
 -12  -2  -5 4234.40 1695.92   4
  12   2  -5 6967.44 3068.69   7
  12  -2  -5 5813.41 1772.48  12
 -12   2   5 2850.74 1591.79   2
  12  -2   5 6100.33 1849.99  15
 -12   2  -5 5674.18 1903.76  10
  12   2   5 6173.63 2191.18  14
 -12  -2   5 9751.75 4286.74   5
 -12  -2   5 3893.50 1858.78   2
  12   2  -5 5051.96 2364.23  14
 -12   2   5 3833.35 1780.01   9
  12  -2  -5 4033.03 1785.59   7
  12  -2   5 14961.5 5823.87  12
  12   2   5 4637.55 2048.34  15
 -13   2  -5 82771.0 12968.6  13
  13   2  -5 75558.1 9101.47   7
 -13  -2   5 74147.9 8013.91   2
 -13   2   5 71003.5 6983.83   9
  13  -2   5 72595.9 6727.00  15
  13  -2  -5 69175.4 6127.56  12
  13   2   5 74044.9 8048.24  15
 -13   2  -5 73576.3 7205.22  10
 -13  -2  -5 66812.0 7034.67   4
 -13  -2   5 89594.6 11933.1   5
  13   2   5 81210.5 7804.54  14
 -13  -2  -5 94355.4 13325.9  13
  13   2  -5 68555.2 7897.47  14
  13  -2  -5 62383.4 7478.25   7
 -13   2   5 71134.1 8348.05   2
 -14   2   5 419.113 722.542   1
 -14   2  -5-804.539 2564.47  13
 -14  -2  -5 900.400 1296.53   4
 -14   2   5-509.304 432.576   2
  14   2  -5 1325.76 1407.92  14
  14  -2  -5 1019.21 990.963   7
 -14   2   5 1043.60 901.119   9
 -14   2  -5 2333.92 1431.84  10
 -14  -2   5 1761.70 1814.55   2
 -14  -2  -5-1878.69 2826.63  13
 -14   2   5 456.321 323.964  10
  14   2   5 1347.72 1347.26  14
  14   2   5 604.839 1143.21  15
 -14  -2   5 2806.19 2470.55   5
  14  -2   5 9794.34 5294.33  12
  14  -2  -5 528.839 781.136  12
  14   2  -5 7695.80 3541.52   7
 -15   2  -5 67017.7 11815.5  13
  15   2  -5 65657.1 8917.40   7
 -15   2   5 49087.8 7015.38   1
 -15  -2  -5 59477.9 7213.64   4
  15   2   5 63150.6 7813.03  15
  15  -2   5 100287. 12594.5  12
 -15  -2   5 56697.4 7116.21   2
 -15   2  -5 61073.8 6893.87  10
 -15  -2  -5 85960.9 13341.8  13
  15  -2  -5 53941.6 7261.98   7
 -15   2   5 43680.4 5919.17  10
 -15  -2   5 75697.9 10716.6   5
  15   2  -5 57431.4 7772.81  14
 -15   2   5 53685.6 7034.42   2
  15   2   5 67936.8 7755.16  14
 -16  -2  -5 14755.9 5541.86  13
  16  -2  -5 4940.11 2254.90   7
 -16  -2  -5 8130.83 2840.53   4
 -16  -2   5 6557.40 2383.03   1
  16  -2   5 20752.8 6436.41  12
  16   2  -5 13142.7 4234.92   7
  16   2   5 7835.27 2746.84  14
 -16   2  -5 2351.77 881.560  13
 -16  -2   5 8177.86 3362.42   5
 -16   2   5 7415.93 2704.16   1
  16   2  -5 8813.80 3151.18  14
 -16   2   5 4324.76 1951.60   2
  17   2  -5 23504.7 5495.69   7
 -17  -2  -5 16713.0 4123.71   4
  17  -2  -5 12635.5 3717.68   7
  17   2   5 20802.7 4405.46  14
 -17  -2   5 17416.7 5226.92   5
 -17   2   5 15465.9 4111.36   1
 -18  -2   5-84.6624 1468.60   5
  18   2   5 264.236 935.776  14
   0   2   6 49831.7 7250.96   2
   0  -2  -6 171280. 7635.37   7
   0   2  -6 157983. 8252.32   7
   0  -2  -6 68602.5 6993.75  13
   0  -2   6 166823. 6949.50  11
   0  -2  -6 166923. 7307.29   3
   0  -2  -6 130128. 3746.72  11
   0  -2   6 169746. 9326.51   8
   0  -2   6 173138. 9746.28   5
   0  -2   6 155730. 4955.02  12
   1  -2  -6-538.817 1074.44  13
  -1  -2  -6-1155.62 1506.68  13
   1  -2   6 1527.16 706.021  12
  -1   2   6 551.158 270.025   4
   1  -2  -6 1122.22 780.083   7
  -1  -2  -6 1844.06 813.383   7
   1   2  -6 1418.93 845.229   7
   1  -2   6 1730.13 847.178   5
   1  -2   6 1686.77 781.082  11
  -1   2  -6 1827.11 901.264   7
   1   2   6-880.977 2485.86   2
  -1   2   6-2320.57 3105.54   2
  -1  -2  -6 1072.18 383.486   3
  -1  -2   6 622.811 673.347   5
  -1  -2   6 769.275 228.263  12
   1  -2  -6 1174.77 612.766   3
   1  -2   6 2935.14 1494.50   8
  -1  -2   6 987.930 831.576   8
  -2  -2  -6 177805. 6788.81   7
   2   2  -6 176689. 9353.31   7
  -2   2  -6 169787. 8355.95   7
   2   2   6 115744. 10466.7   2
  -2   2   6 75082.2 9803.36   2
   2  -2   6 183000. 7711.47   5
  -2  -2   6 168151. 9474.01   8
  -2   2   6 136537. 4895.11   4
   2  -2   6 168733. 6714.81  11
   2  -2  -6 192764. 9422.64   7
  -2  -2  -6 174344. 7503.58   3
   2  -2   6 150868. 8304.17  12
   2  -2   6 194806. 9737.08   8
  -2  -2   6 153233. 11472.4   5
  -2  -2  -6 81874.5 9274.76  13
  -3   2   6-960.484 2477.86   2
   3  -2  -6-244.782 510.961  13
  -3  -2  -6-805.236 1653.19  13
   3  -2  -6 2904.37 998.950  12
  -3  -2  -6 3229.01 875.677   7
   3   2  -6 2868.59 1326.37   7
  -3   2  -6 3281.81 1229.32   7
   3  -2   6 939.918 1034.57  12
   3  -2   6 3350.10 922.147   5
   3  -2   6 1993.95 661.762  11
  -3   2  -6 2840.59 1288.21  10
   3  -2   6 5199.64 1868.33   8
   3   2   6 1805.84 1256.18   2
  -3  -2   6-734.083 1978.28   5
  -3  -2  -6 3275.24 1043.76   3
   3  -2  -6 3661.51 1504.26   7
  -3  -2   6 2171.18 551.003   8
   4  -2  -6 164029. 9844.43   7
  -4   2  -6 170877. 10029.7  13
   4   2   6 155550. 10210.0  15
  -4  -2  -6 93347.6 11438.5  13
   4   2  -6 161472. 9886.22   7
  -4  -2  -6 157319. 5791.41   7
  -4   2   6 114006. 12373.2   2
   4  -2  -6 153024. 6621.62  12
   4  -2   6 83026.2 8066.07  12
  -4   2  -6 175571. 9468.24  10
   4   2   6 160197. 9713.89   2
  -4  -2  -6 154575. 7534.86   3
   4  -2   6 161389. 6553.98  11
  -4  -2   6 77155.6 9518.30   5
  -4   2  -6 154901. 7909.71   7
   4  -2   6 163508. 5620.37   5
  -4  -2   6 129536. 8823.52   8
   5  -2   6 2432.25 839.026  14
  -5   2  -6 5278.23 2104.72  13
  -5  -2  -6 1531.29 1605.01  13
   5  -2  -6 3211.92 1496.99   7
   5   2   6 4179.42 1833.44  15
   5  -2  -6 2336.93 685.626  12
  -5   2  -6 3159.38 1199.90   7
  -5  -2  -6 3242.62 782.787   7
   5   2  -6 2835.99 1350.03   7
   5   2   6 3538.69 1250.98   2
  -5   2   6 2401.40 1624.48   2
  -5   2  -6 2877.46 1479.11  10
  -5  -2  -6 3825.41 1340.60   3
   5  -2   6 2873.60 616.423   5
  -5  -2   6 658.699 607.467   8
  -6   2  -6 107762. 9745.97  13
  -6   2  -6 90715.2 6262.34   7
   6   2  -6 88788.4 7896.19   7
  -6  -2  -6 76865.3 11266.9  13
  -6   2   6 84898.0 10573.3   2
   6  -2   6 88870.1 4838.94  14
  -6  -2  -6 96599.7 6476.74   3
   6  -2  -6 91557.0 5285.29  12
  -6  -2   6 69752.4 6965.45   8
  -6   2  -6 104257. 7452.91  10
   6   2   6 98409.0 5653.91   2
   6   2   6 96839.1 7574.43  14
   6   2   6 98395.8 8145.37  15
   6  -2  -6 91502.7 7975.54   7
  -6  -2  -6 91313.9 4019.60   7
  -7   2  -6 30840.1 5697.83  13
   7   2  -6 23609.6 4254.59   7
  -7   2   6 25216.9 5861.27   2
  -7  -2  -6 27005.3 3305.93   4
  -7   2  -6 26330.6 3354.19   7
   7   2  -6 25962.9 2603.73   6
   7  -2  -6 28376.5 2998.70  12
  -7   2  -6 32533.7 4198.93  10
   7   2   6 25098.4 4232.75  15
   7   2   6 26660.5 4011.85  14
  -7  -2  -6 25588.0 6837.13  13
   7  -2  -6 26232.6 4432.53   7
  -7  -2   6 22533.1 3955.48   8
   7   2   6 29157.4 2495.95   2
   7  -2   6 28744.1 2828.95  14
  -7  -2  -6 31583.9 4009.60   3
  -7  -2   6 12963.9 4956.27   5
  -8   2  -6 27636.8 5845.59  13
   8   2  -6 21985.6 4381.28   7
  -8  -2  -6 28489.5 6985.88  13
  -8  -2   6 20512.0 6549.26   5
   8  -2  -6 22826.4 2861.52  12
   8   2  -6 21615.7 2373.18   6
  -8   2  -6 29148.1 4060.31  10
   8   2   6 23005.2 4131.29  15
  -8   2   6 23424.1 5605.04   2
  -8  -2  -6 26945.7 3952.02   3
   8  -2   6 23434.7 3827.98  15
  -8  -2   6 17683.7 3577.81   8
  -8  -2  -6 22606.9 3190.11   4
   8  -2   6 24269.6 2809.17  14
   8   2   6 24126.9 3886.00  14
   8  -2  -6 19782.2 4016.61   7
   9   2   6 2216.31 1140.95  15
  -9   2  -6 2582.90 1224.66  13
   9   2  -6 2720.45 1682.17   7
  -9  -2  -6 2810.90 1126.93   4
   9  -2  -6 2158.14 905.942  12
   9  -2   6 3648.41 1477.78  15
  -9   2   6 2626.80 2097.38   2
   9  -2  -6 2445.10 1355.17   7
  -9   2  -6 2780.44 1424.49  10
  -9  -2   6 7435.10 4225.34   5
  -9  -2   6 1657.53 1319.55   8
  -9  -2  -6 221.684 1288.39  13
   9   2   6 2235.94 1250.01  14
  -9  -2   6-65.0240 1210.22   2
  10   2  -6 14955.5 3878.77   7
 -10   2   6 18330.0 4857.75   2
 -10   2  -6 15090.4 4759.27  13
 -10  -2  -6 12667.7 4380.72  13
  10  -2   6 30662.0 7701.75  12
  10  -2  -6 11834.1 3278.03   7
 -10  -2  -6 13510.5 2696.49   4
 -10   2  -6 14938.6 3199.11  10
  10   2   6 13872.6 3396.39  15
 -10  -2   6 11893.8 3581.11   2
  10   2   6 14588.4 3135.52  14
 -10  -2   6 21479.1 6871.46   5
  10  -2   6 13087.1 2832.90  15
  10  -2  -6 14800.4 2491.02  12
 -11   2   6 25096.1 5502.51   2
 -11   2  -6 20964.3 6001.57  13
 -11  -2  -6 28656.9 7055.99  13
 -11  -2  -6 20280.5 3562.49   4
  11   2  -6 20093.3 4702.93   7
  11  -2   6 19998.1 3532.90  15
 -11  -2   6 16647.3 3655.30   2
 -11  -2   6 32461.1 8083.15   5
 -11   2   6 20323.0 4017.86   9
  11   2   6 22571.0 4330.93  15
  11  -2  -6 18633.1 4137.78   7
  11   2   6 23197.2 4012.47  14
  11  -2  -6 21770.6 3181.92  12
 -11   2  -6 23504.2 4077.36  10
 -12   2  -6 45924.1 9355.08  13
 -12   2   6 45981.6 7270.71   2
  12   2  -6 43642.1 6973.57   7
 -12  -2  -6 56275.4 10276.2  13
 -12   2   6 44301.0 5995.95   9
  12   2   6 49195.5 6104.44  14
  12   2   6 43972.8 6355.12  15
 -12  -2   6 42646.9 6662.10   2
  12  -2   6 39579.4 5177.87  15
 -12   2  -6 47186.1 5919.66  10
 -12  -2   6 63122.5 10881.0   5
 -12  -2  -6 41889.1 5255.56   4
  12  -2  -6 37157.5 5969.74   7
 -13   2  -6 2562.12 2255.09  13
 -13  -2  -6 3833.63 3301.66  13
  13   2  -6 1852.82 1737.84   7
 -13  -2   6 1297.04 1227.05   2
 -13   2   6 862.614 1112.87   2
 -13   2  -6 317.921 911.805  10
  13   2   6 931.612 798.019  15
 -13  -2   6 6759.81 3798.87   5
 -13   2   6-289.345 190.994   9
  13  -2   6 23.9936 533.670  15
 -13  -2  -6-147.978 698.018   4
  13   2   6 1708.63 1325.54  14
  13  -2  -6 1152.96 1310.58   7
 -14   2  -6 57835.5 11172.5  13
  14   2  -6 54134.3 8141.03   7
 -14  -2  -6 88869.7 13253.5  13
 -14  -2  -6 53348.6 6582.78   4
 -14  -2   6 58386.7 7596.52   2
  14   2   6 55725.6 7453.05  15
 -14   2   6 56725.9 6676.90   9
 -14   2  -6 57396.8 6751.16  10
 -14  -2   6 72417.3 11402.5   5
  14   2   6 63044.7 7299.93  14
  14  -2  -6 46675.9 7057.75   7
 -14   2   6 53622.8 7763.74   2
 -15   2   6 3002.52 1809.16   1
 -15   2  -6-30.0563 1323.48  13
 -15  -2  -6 6999.13 3739.53  13
  15  -2  -6 2104.57 1696.86   7
  15   2  -6 5306.36 2921.91   7
 -15  -2  -6 2292.02 1318.74   4
  15   2   6 1945.56 1216.50  15
 -15   2   6 1253.25 721.319   2
  15   2   6 3485.01 1730.15  14
 -15  -2   6 5117.66 2553.07   2
 -15   2   6 1480.51 1160.17  10
 -15  -2   6 7259.71 3728.13   5
  16  -2  -6 27383.2 5582.33   7
 -16   2  -6 36141.7 9252.20  13
  16   2  -6 36236.3 6749.15   7
 -16  -2  -6 47927.8 9888.09  13
 -16   2   6 27072.6 5446.80   1
  16   2   6 41162.7 6299.07  14
 -16  -2   6 45069.9 8817.61   5
 -16  -2  -6 32601.6 5398.02   4
  16   2   6 36017.4 6338.55  15
 -16   2   6 30186.5 5584.50   2
  17   2  -6 2374.57 2029.95   7
  17   2   6 2207.30 1711.76  14
 -17   2   6-853.896 1188.45   2
   0  -2  -7 1344.31 853.411   7
   0   2  -7 1884.01 1156.67   7
   0  -2   7 1258.11 1134.62   8
   0  -2   7 1416.07 1150.99   5
   0  -2  -7 1009.91 596.913   3
   0  -2   7 1587.07 609.349  12
   0  -2  -7-2442.90 1711.26  13
   1  -2  -7 142308. 7980.82   7
   1  -2  -7 80720.1 5857.23  13
  -1  -2  -7 140773. 6966.69   7
  -1  -2  -7 72458.7 7503.67  13
   1   2  -7 137715. 8557.18   7
  -1   2  -7 139283. 8098.77   7
   1  -2   7 140158. 6516.86  12
   1  -2   7 148035. 6820.13  11
  -1  -2  -7 133498. 6963.17   3
   1  -2  -7 144577. 7294.45   3
   1  -2   7 156568. 9662.15   8
  -1  -2   7 146256. 11002.1   5
   1  -2   7 159133. 9025.95   5
   1   2   7 45341.0 6973.13   2
  -1  -2   7 147169. 9675.70   8
  -2  -2  -7 1781.33 1050.83  13
   2  -2  -7 4779.01 1689.97   7
  -2   2  -7 4815.21 1561.32   7
   2  -2   7 2932.26 1102.14  12
   2  -2   7 4267.92 1193.08  11
   2  -2   7 5000.24 1465.74   5
   2   2   7-1025.59 2833.56   2
  -2  -2  -7 5316.74 1333.02   7
   2  -2   7 4171.45 1808.32   8
  -2  -2   7 3495.25 1377.26   8
  -2  -2  -7 3776.02 1259.23   3
   2   2  -7 5921.18 1786.90   7
  -2  -2   7 4114.68 1826.33   5
   2  -2  -7 1897.63 662.188  13
   3  -2  -7 66816.7 6161.38   7
  -3  -2  -7 65744.7 4377.02   7
  -3   2  -7 62418.6 5372.19   7
  -3   2   7 33413.9 7058.62   2
  -3  -2  -7 60745.2 4777.21   3
   3  -2   7 68168.9 4491.38  11
  -3  -2  -7 43702.8 6713.63  13
   3   2  -7 65875.7 6384.54   7
   3   2   7 62756.0 7732.64   2
  -3  -2   7 51997.5 7962.10   5
   3  -2   7 67326.6 4651.58   5
  -3  -2   7 50934.8 6061.19   8
   3  -2   7 74933.2 6621.76   8
   3  -2   7 50622.0 5816.79  12
  -4   2  -7 50466.3 5389.84  13
  -4  -2  -7 33516.0 6163.74  13
  -4  -2  -7 49993.8 3590.85   7
   4   2   7 56617.5 6660.89   2
  -4   2  -7 51161.1 4790.06   7
  -4   2   7 34956.6 7423.49   2
   4  -2  -7 55064.5 5946.54   7
   4  -2   7 30749.5 4964.80  12
   4   2   7 48671.0 6289.35  15
   4  -2   7 51051.9 3778.18  11
  -4  -2   7 34055.1 6634.68   5
   4  -2   7 53522.9 3543.86   5
  -4  -2  -7 51294.6 4489.03   3
  -4  -2   7 38205.4 5171.44   8
   4  -2   7 64570.3 6284.73   8
   4   2  -7 47710.5 5633.04   7
  -5   2  -7 83236.8 7634.42  13
  -5  -2  -7 61480.8 9134.33  13
   5   2  -7 70020.2 7234.40   7
  -5  -2  -7 71685.0 4213.04   7
   5  -2   7 86317.5 7270.29   8
  -5   2   7 65709.2 10238.7   2
   5  -2   7 72302.8 4631.22  11
  -5   2  -7 71658.9 5798.12   7
   5   2   7 83692.9 7174.36   2
  -5  -2   7 40478.1 8155.55   5
   5   2   7 74001.1 7767.68  15
  -5  -2   7 58832.3 6764.87   8
   5  -2  -7 74011.2 7238.02   7
   5  -2  -7 70535.2 4663.18  12
  -5  -2  -7 73745.3 5690.51   3
  -6   2  -7 1043.54 804.785   7
  -6  -2  -7-1793.92 2600.39  13
   6  -2  -7 520.206 359.435  12
   6   2  -7 123.553 284.838   7
  -6  -2  -7 945.612 503.764   7
   6   2   7 1358.82 766.335   2
  -6   2  -7 2044.32 1167.40  10
  -6  -2   7 537.373 1290.03   5
  -6   2   7 2370.01 2444.92   2
   6   2   7 853.282 1041.62  15
  -6  -2  -7 955.108 833.412   3
  -6  -2   7 794.391 958.762   8
  -6   2  -7 1202.24 1429.49  13
   6  -2  -7 1928.45 1288.95   7
   6  -2   7 3106.62 1682.53   8
   6  -2   7 372.466 268.879  14
  -7   2  -7 82780.2 9168.56  13
  -7  -2  -7 73605.7 10497.4  13
   7   2  -7 72571.1 7852.78   7
  -7   2   7 75419.1 10774.1   2
  -7   2  -7 67635.9 5782.70   7
   7  -2  -7 66045.3 4681.89  12
  -7  -2  -7 77656.8 6527.78   3
  -7   2  -7 78707.5 7187.34  10
  -7  -2   7 57849.4 10515.2   5
   7   2   7 69517.5 7578.67  15
   7   2   7 73962.0 7195.96  14
   7  -2  -7 71459.0 7544.40   7
  -7  -2   7 61648.1 7100.26   8
   7  -2   7 80808.0 7154.35   8
  -8   2  -7 15743.4 4169.60  13
  -8   2  -7 17101.7 3334.38  10
  -8  -2  -7 12123.3 4230.15  13
   8   2  -7 11934.5 3279.21   7
  -8  -2  -7 14608.9 2966.97   3
  -8   2   7 15168.7 4985.17   2
  -8  -2   7 24202.3 7181.76   5
   8  -2   7 19291.7 3516.90   8
   8   2   7 12749.5 3177.61  15
   8  -2  -7 12023.0 2012.78  12
  -8  -2   7 10647.7 3179.23   8
   8   2   7 14384.8 3093.09  14
   8  -2  -7 14764.4 3538.51   7
   9  -2  -7 49925.1 6699.54   7
  -9   2  -7 67233.4 9536.88  13
  -9  -2  -7 66566.3 10513.4  13
   9   2  -7 55064.9 7322.26   7
  -9   2   7 58457.8 9227.88   2
   9   2   7 51127.5 6608.73  15
   9  -2   7 92882.7 12544.9  12
  -9  -2   7 50483.4 7240.07   2
  -9   2  -7 57772.9 6490.10  10
  -9  -2   7 76988.3 12256.4   5
   9  -2   7 51374.5 6172.29  15
  -9  -2   7 47794.6 6396.72   8
   9   2   7 53411.6 6197.63  14
   9  -2   7 68453.3 6706.70   8
  10   2   7 4940.96 2072.37  15
 -10   2  -7 4312.66 2369.30  13
  10   2  -7 4904.52 2282.54   7
 -10  -2   7 5041.19 1907.99   2
  10  -2  -7 4307.37 2052.23   7
 -10  -2  -7 8026.04 3885.01  13
 -10   2   7 4834.67 3070.40   2
 -10   2  -7 5645.44 2202.82  10
 -10  -2   7 15133.5 6470.61   5
  10  -2   7 8282.34 2412.83   8
  10  -2   7 5805.23 2051.66  15
  10   2   7 3325.84 1395.76  14
  11  -2  -7 43841.3 6646.02   7
 -11   2  -7 57401.6 9557.70  13
 -11   2   7 55874.6 8892.61   2
 -11  -2  -7 79158.8 12247.0  13
  11   2  -7 45984.1 7217.08   7
 -11  -2   7 53403.5 7466.75   2
 -11   2  -7 58155.5 6779.25  10
  11  -2   7 65978.2 6724.82   8
 -11  -2   7 74805.8 12355.2   5
  11   2   7 53284.1 7181.78  15
  11  -2   7 52764.6 6227.00  15
  11   2   7 56450.7 6569.69  14
 -12   2  -7 536.856 768.413  13
 -12  -2  -7 4903.61 3578.84  13
 -12  -2  -7 967.626 774.249   4
  12  -2  -7 2464.27 1803.90   7
  12   2  -7 2904.79 2008.19   7
  12  -2   7 634.214 118.327  15
  12   2   7 2641.46 1934.43  15
 -12   2   7 1203.92 1420.96   2
 -12  -2   7 1439.84 1457.45   2
  12   2   7 2280.31 1562.62  14
 -12   2  -7 2209.80 1379.03  10
 -12   2   7 1413.09 1500.02   9
 -12  -2   7 5711.32 4586.43   5
 -13   2   7 34506.2 5627.83   9
 -13   2   7 35564.4 6793.97   2
 -13   2  -7 38325.7 8503.83  13
 -13  -2  -7 56075.7 10529.8  13
  13   2  -7 37325.7 6810.30   7
 -13  -2  -7 36695.5 5226.01   4
 -13  -2   7 37374.5 6511.94   2
 -13   2  -7 42682.3 6016.02  10
 -13  -2   7 57779.7 10625.9   5
  13   2   7 39437.6 6365.11  15
  13  -2   7 36275.7 5383.69  15
  13   2   7 42927.5 5965.67  14
  13  -2  -7 28090.1 5680.75   7
  14   2   7 18886.2 4471.12  15
 -14   2  -7 18119.0 5536.83  13
 -14  -2  -7 27382.4 7138.57  13
  14  -2  -7 16551.4 4146.73   7
  14   2  -7 17117.2 4577.04   7
 -14   2  -7 18295.8 4062.99  10
 -14  -2   7 26134.7 7163.30   5
 -14  -2   7 16015.7 4189.29   2
 -14  -2  -7 16382.1 3635.41   4
 -14   2   7 15927.8 3893.22   9
  14   2   7 21081.2 4248.40  14
 -14   2   7 13830.9 4026.95   2
 -15  -2  -7 33019.3 7924.02  13
  15   2  -7 18775.4 4937.40   7
 -15   2  -7 17659.4 5967.87  13
 -15  -2   7 26232.2 7128.05   5
 -15   2   7 16207.5 4541.63   2
 -15  -2   7 22962.5 5266.63   2
  15   2   7 21848.5 5035.41  15
 -15  -2  -7 21390.3 4321.99   4
  15   2   7 24745.9 4835.59  14
  15  -2  -7 19702.6 4850.81   7
  16   2  -7 5819.97 2982.05   7
 -16   2   7 355.099 856.770   2
  16   2   7 4742.20 2239.45  14
   0  -2  -8 97475.4 6592.82  13
   0  -2  -8 118395. 7241.75   7
   0   2  -8 116322. 8097.69   7
   0  -2  -8 117479. 6763.64   3
   0  -2   8 121641. 9561.27   8
  -1  -2  -8 6315.53 1833.46  13
  -1  -2  -8 4905.84 1487.20   7
   1  -2  -8 5251.33 1678.07   7
  -1   2  -8 5661.91 1767.99   7
  -1  -2   8 4437.66 2222.29   5
  -1  -2  -8 4940.56 1447.76   3
   1  -2   8 5772.34 1948.15   5
  -1  -2   8 1634.48 721.316   8
   1  -2  -8 4353.40 1345.68   3
   1   2  -8 5092.71 1816.66   7
   1  -2   8 5584.27 2068.46   8
   2  -2  -8 41525.2 4824.32   7
  -2  -2  -8 34293.5 5064.54  13
   2   2  -8 41811.2 5161.56   7
   2   2   8 36818.0 6782.60   2
   2  -2  -8 42948.3 4273.21   3
  -2   2  -8 42091.0 4687.63   7
   2  -2   8 45484.3 3972.79  11
  -2  -2  -8 42920.0 4131.98   3
  -2  -2   8 42505.0 7109.53   5
   2  -2   8 47405.9 4732.01   5
  -2  -2   8 38011.8 5533.83   8
  -2  -2  -8 43925.9 4066.29   7
   2  -2   8 47783.2 5844.36   8
   3   2  -8 246.475 314.864   7
  -3  -2  -8 541.036 399.287   7
   3  -2  -8 823.219 898.657   7
  -3   2  -8 465.456 512.534   7
   3  -2   8 116.759 409.915  12
   3  -2   8 960.693 764.303  11
   3  -2   8 1000.42 886.414   8
   3   2   8-2206.25 2755.53   2
  -3  -2   8-698.092 1380.75   5
  -3   2   8-3683.98 4234.90   2
  -3  -2  -8 438.163 319.297   3
  -3  -2  -8-925.355 1922.38  13
   3  -2   8 260.283 432.557   5
  -3  -2   8-2051.90 1531.05   8
   4  -2  -8 13700.9 3024.55   7
   4   2  -8 13743.5 3136.87   7
  -4  -2  -8 12964.2 2041.93   7
  -4   2   8 11549.2 4279.09   2
   4   2   8 19933.5 4275.79   2
  -4  -2  -8 10040.6 2744.57  13
  -4   2  -8 14388.8 2678.35   7
   4   2   8 14205.3 3796.67  15
   4  -2   8 11756.8 2902.34  12
   4  -2   8 18832.8 3673.51   8
   4  -2   8 15289.1 2154.42  11
  -4  -2  -8 15730.3 2641.41   3
  -4  -2   8 11066.4 4408.20   5
  -4  -2   8 13646.4 3472.89   8
  -5   2  -8 6598.42 2190.16  13
  -5  -2  -8 2074.21 1338.88  13
   5  -2  -8 6455.07 2351.84   7
   5   2  -8 6102.13 2189.84   7
  -5  -2  -8 5852.93 1309.62   7
   5  -2   8 5005.07 2335.83  12
  -5   2  -8 6459.76 1859.25   7
   5   2   8 5276.17 2482.32  15
   5  -2   8 5780.83 1279.61  11
   5   2   8 7094.31 2209.08   2
  -5   2   8 9809.79 4428.71   2
  -5  -2   8 8031.28 4317.44   5
  -5  -2  -8 6323.21 1808.62   3
   5  -2   8 7877.27 2421.40   8
  -5  -2   8 4864.03 1845.38   8
   6  -2  -8 79640.0 8020.70   7
  -6  -2  -8 87460.6 10751.3  13
   6   2  -8 76724.7 8352.79   7
  -6   2   8 89305.6 12572.7   2
  -6   2  -8 81849.1 6546.85   7
   6  -2   8 92766.7 10721.8  12
  -6  -2   8 68607.3 7981.42   8
   6   2   8 85138.8 9025.81  15
  -6  -2   8 77003.3 12242.3   5
  -6   2  -8 88787.3 8586.70  13
   6  -2   8 100054. 8414.73   8
  -6  -2  -8 85569.4 6669.25   3
   7   2   8 13.8029 589.288  14
  -7   2  -8 2180.64 1545.94  13
  -7  -2  -8 2575.07 1682.23  13
   7  -2  -8 2443.71 1433.05   7
   7  -2   8 4877.40 3422.37  12
  -7   2  -8 1237.72 921.258   7
   7   2   8 2880.44 1867.39  15
  -7  -2  -8 1447.97 1143.56   3
  -7   2   8 6211.93 3985.49   2
   7  -2   8 1408.58 1192.22   8
  -7  -2   8 91.7429 575.045   8
   7   2  -8-373.516 747.470   7
   8  -2  -8 122781. 10626.7   7
  -8  -2  -8 167096. 15961.3  13
   8   2  -8 126451. 11255.1   7
  -8   2   8 139730. 15139.1   2
  -8   2  -8 122713. 8151.26   7
   8  -2   8 198279. 17373.9  12
  -8  -2  -8 149316. 9869.01   3
   8   2   8 125784. 11017.8  15
   8   2   8 128755. 9827.04  14
  -8  -2   8 180615. 18349.8   5
  -8  -2   8 111220. 10271.4   8
   8  -2   8 163842. 10791.6   8
  -8  -2   8 115556. 11521.6   2
  -8   2  -8 138962. 12477.1  13
  -9   2  -8 492.584 1234.36  13
  -9  -2  -8 3828.23 2861.60  13
   9  -2  -8 2066.77 1694.89   7
   9   2  -8 413.932 548.245   7
   9   2   8-501.503 682.590  14
   9  -2   8 1915.94 1634.08  15
  -9   2   8 3917.16 3216.39   2
  -9  -2   8 1425.67 1466.64   8
  -9  -2   8-150.316 375.302   2
   9   2   8 938.629 959.419  15
   9  -2   8 2120.68 1475.70   8
 -10   2  -8 104309. 12225.6  13
 -10  -2  -8 120876. 14296.3  13
  10   2  -8 90212.6 10037.7   7
 -10   2   8 104967. 12985.4   2
 -10  -2   8 80223.1 9769.98   2
  10  -2  -8 83403.4 9154.10   7
  10  -2   8 183967. 17897.7  12
 -10  -2   8 151072. 17095.0   5
  10   2   8 96365.5 9860.33  15
  10  -2   8 125463. 9775.03   8
  10   2   8 101669. 9033.59  14
  10  -2   8 85664.0 8583.67  15
 -11  -2  -8 7251.35 4238.01  13
  11  -2   8 26489.8 8370.03  12
  11   2  -8 4591.35 2344.83   7
 -11   2  -8 311.765 1043.12  13
 -11   2   8 3756.95 2728.40   2
  11   2   8 1332.98 1438.22  15
  11  -2  -8 1719.32 1744.01   7
 -11  -2   8 20165.2 6900.31   5
  11  -2   8 594.834 693.758  15
 -11  -2   8 691.402 204.560   2
  12  -2  -8 54512.1 7633.22   7
 -12   2   8 64772.6 9829.16   2
 -12  -2  -8 79557.6 11963.3  13
  12   2  -8 55952.5 8268.89   7
 -12   2   8 62454.0 8219.70   9
  12   2   8 63918.6 8438.11  15
  12  -2   8 61309.9 7262.25  15
  12   2   8 71197.8 7848.74  14
 -12   2  -8 65683.6 10533.6  13
 -12  -2   8 61627.2 8642.58   2
 -13  -2  -8 6417.11 3790.41  13
  13   2  -8 1635.84 1343.29   7
 -13   2   8 2654.04 1923.84   2
  13  -2   8 3522.48 1638.97  15
 -13   2   8 3614.17 2040.66   9
  13   2   8 2850.08 1656.02  14
  13  -2  -8 4641.09 2176.86   7
  13   2   8 3462.95 2030.14  15
 -13  -2   8 2886.58 2000.92   2
 -13  -2   8 7460.74 4412.32   5
 -13   2  -8 2943.57 1714.93  13
 -14   2  -8 12569.1 4713.17  13
 -14  -2  -8 16988.5 5731.79  13
  14  -2   8 35450.6 9074.32  12
  14   2  -8 12266.6 4190.33   7
 -14   2   8 12757.1 4132.32   2
 -14   2   8 12897.2 3745.57   9
  14   2   8 17100.9 3877.08  14
  14   2   8 14415.1 4049.37  15
 -14  -2   8 16157.1 4684.83   2
 -14  -2   8 19259.6 6482.74   5
 -15  -2   8 2802.26 1946.61   2
   0  -2   9-927.361 1205.12   8
   0   2  -9 1456.60 1084.22   7
   0  -2  -9 315.767 504.144   3
   0  -2   9 790.167 1085.55   5
   0  -2  -9 840.538 600.492   7
   1  -2  -9 79662.7 6567.79   7
   1  -2   9 94434.9 8933.57   8
   1   2  -9 81813.5 7420.23   7
  -1   2  -9 83461.9 7124.39   7
   1   2   9 85087.5 11930.5   2
  -1  -2  -9 79046.1 5809.31   3
   1  -2  -9 79632.2 5797.68   3
  -1  -2   9 100726. 10094.3   5
   1  -2   9 95295.4 8098.93   5
  -1  -2  -9 80023.9 6263.91   7
  -1  -2   9 81550.1 8580.91   8
  -1   2   9 69637.4 11105.8   2
  -2  -2  -9 31338.2 4463.72  13
   2  -2  -9 29506.0 4292.86   7
  -2  -2  -9 28998.6 3602.71   7
   2   2  -9 27537.1 4546.74   7
  -2   2  -9 29425.8 4194.62   7
   2   2   9 35791.9 7138.16   2
  -2  -2  -9 28225.7 3538.10   3
  -2   2   9 25688.7 6812.31   2
  -2  -2   9 26877.9 5140.30   8
  -2  -2   9 29718.9 6231.84   5
   2  -2   9 31999.4 4235.63   5
   2  -2  -9 27920.7 3530.73   3
   2  -2   9 32042.4 5388.39   8
   3  -2  -9 26807.4 4217.20   7
  -3  -2  -9 29259.9 4623.29  13
   3   2  -9 25437.0 4376.95   7
  -3  -2  -9 26295.5 3259.54   7
   3   2   9 37808.5 7040.95   2
  -3   2  -9 24054.2 3679.02   7
  -3  -2  -9 25565.1 3407.64   3
  -3  -2   9 23835.5 4839.29   8
  -3   2   9 26639.3 6984.28   2
   3  -2  -9 25658.3 3403.87   3
   3  -2   9 30214.5 5150.63   8
  -3  -2   9 29526.8 6638.17   5
  -4  -2  -9 6448.13 2601.50  13
   4  -2  -9 6158.35 2308.91   7
   4   2  -9 3728.25 1665.66   7
  -4   2  -9 6158.50 1946.34   7
   4   2   9 8285.88 3322.42  15
   4   2   9 6053.08 2778.55   2
  -4   2   9 10600.6 4808.48   2
  -4  -2  -9 5170.54 1600.85   3
  -4  -2   9 6902.89 3876.93   5
  -4  -2   9 3951.48 2122.03   8
   4  -2   9 5580.06 2097.51   8
   5   2   9 61281.5 8350.33  15
   5  -2  -9 60679.5 6876.86   7
  -5  -2  -9 62037.3 7808.97  13
   5   2  -9 54783.2 7006.23   7
  -5   2   9 82264.2 12599.6   2
  -5  -2   9 68743.7 11551.6   5
  -5  -2   9 47497.8 7289.70   8
   5  -2   9 75578.4 7959.62   8
  -5  -2  -9 63854.5 5735.10   3
  -5   2  -9 59506.9 5831.59   7
  -6   2  -9 1142.84 1240.58  13
  -6  -2  -9 2856.27 2072.71  13
   6  -2  -9 1957.88 1651.33   7
   6   2  -9 830.963 604.041   7
  -6   2  -9 1576.99 1025.60   7
  -6  -2  -9 1161.97 1200.92   3
  -6   2   9 10423.3 5237.88   2
  -6  -2   9 9118.30 5174.52   5
   6   2   9 2624.23 2168.68  15
  -6  -2   9-36.9287 740.319   8
   6  -2   9-57.8388 345.162   8
  -7   2  -9 84633.8 8875.26  13
   7  -2  -9 82651.3 8526.85   7
  -7  -2  -9 97190.0 10885.6  13
  -7   2   9 97291.1 13428.2   2
   7  -2   9 138302. 13564.1  12
  -7  -2   9 82655.9 10150.3   2
  -7  -2  -9 93165.1 7785.46   3
  -7  -2   9 68675.5 8708.94   8
   7   2   9 82732.1 8427.34  14
  -7  -2   9 124522. 15931.1   5
   7   2   9 84800.2 9578.70  15
   7   2  -9 78222.0 9127.49   7
   7  -2   9 106190. 9496.34   8
  -7   2  -9 81429.5 6865.07   7
   8   2   9 315.825 706.284  14
  -8  -2  -9 4061.14 2980.06  13
   8  -2  -9 1900.09 1552.66   7
   8   2  -9 240.905 883.545   7
  -8  -2   9 2411.34 1743.39   2
  -8   2  -9 1299.53 889.895   7
  -8  -2   9 2279.36 1876.12   8
  -8   2   9 7652.65 4900.32   2
   8   2   9 1187.17 1331.88  15
   8  -2   9 1337.84 721.298   8
  -8   2  -9 1695.22 1699.73  13
  -9   2  -9 39647.5 6715.38  13
   9  -2  -9 32299.4 5629.26   7
  -9  -2  -9 44711.0 8011.19  13
   9   2  -9 32366.9 6059.02   7
  -9  -2   9 32915.1 6271.36   2
   9  -2   9 75740.8 11573.2  12
  -9   2   9 46207.4 9523.40   2
  -9  -2   9 88301.8 13474.8   5
   9   2   9 37268.5 5743.05  14
   9   2   9 37574.7 6634.27  15
   9  -2   9 32278.9 5667.80  15
  -9  -2   9 30226.0 6038.91   8
   9  -2   9 50092.8 6491.70   8
  10  -2   9 4.86589 663.821   8
 -10   2  -9 656.824 530.548  13
 -10  -2  -9 2676.68 1985.99  13
  10   2  -9-293.151 559.011   7
  10   2   9 483.620 728.385  15
  10  -2   9 321.079 939.843  15
 -10   2   9 2442.95 3169.71   2
 -10  -2   9 807.883 959.712   2
  10  -2  -9 543.336 1460.56   7
  10   2   9-1345.10 1298.53  14
 -11   2  -9 45026.0 7882.50  13
  11  -2  -9 38351.3 6474.07   7
 -11  -2  -9 52672.7 9259.32  13
 -11   2   9 45886.0 9078.54   2
  11   2  -9 37245.1 6861.30   7
 -11  -2   9 42217.0 7567.16   2
  11  -2   9 88953.3 13575.9  12
  11   2   9 39796.8 6868.93  15
 -11  -2   9 81822.5 13412.9   5
  11  -2   9 37976.3 6157.05  15
  11   2   9 42401.8 6266.58  14
 -12   2  -9-1313.46 2677.33  13
 -12  -2  -9 4484.68 3200.90  13
  12  -2  -9 1990.33 1687.85   7
  12   2  -9-29.8911 707.983   7
 -12  -2   9 1306.41 1471.28   2
 -12   2   9 2465.57 2115.61   2
  12  -2   9 868.571 934.635  15
  12   2   9 1248.59 1303.01  14
 -12  -2   9 7598.17 4901.00   5
  12   2   9 319.532 1241.33  15
 -13  -2  -9 43302.1 8760.27  13
 -13  -2   9 35377.7 7020.72   2
 -13   2   9 35704.2 6463.29   9
 -14   2   9 815.819 1549.22   9
   0  -2 -10 93938.1 7479.29   7
   0   2 -10 92292.5 8087.62   7
   0   2  10 122984. 15281.4   2
   0  -2 -10 89912.3 6467.79   3
   0  -2  10 113916. 10154.7   5
   0  -2  10 111623. 10956.4   8
  -1  -2 -10 3594.47 1401.71   7
   1   2 -10 2886.05 1558.07   7
  -1   2 -10 5988.46 2090.22   7
   1   2  10 8590.20 4231.60   2
  -1  -2 -10 3193.98 1331.26   3
   1  -2 -10 2556.00 1193.20   3
  -1  -2  10 5259.00 2378.99   5
   1  -2 -10 3251.62 1475.82   7
   1  -2  10 1719.52 1031.54   8
  -1  -2  10 5320.05 2872.77   8
   2  -2 -10 53946.3 5959.38   7
  -2  -2 -10 56583.1 5332.79   7
   2   2 -10 51738.3 6473.06   7
  -2   2 -10 54585.7 6049.73   7
  -2   2  10 90613.1 13543.5   2
   2  -2 -10 49461.0 4812.11   3
  -2  -2  10 68993.5 9326.29   5
  -2  -2 -10 52444.9 5026.06   3
  -2  -2  10 61787.9 8355.67   8
   2   2  10 89661.7 12013.2   2
   2  -2  10 67526.5 8498.14   8
   3  -2  10 2302.86 988.664   8
  -3   2 -10 3971.78 1746.03   7
   3  -2 -10 4756.02 1973.68   7
   3   2 -10 3933.77 1883.58   7
   3   2  10 7496.84 3779.75   2
  -3  -2 -10 3483.10 1306.20   3
  -3  -2  10 6110.17 2973.43   5
  -3  -2  10 2394.73 1827.29   8
   4  -2 -10 59426.1 6658.19   7
   4   2 -10 58583.1 7322.34   7
  -4  -2 -10 63719.7 5865.44   3
  -4   2 -10 61357.4 6292.58   7
  -4  -2  10 80655.2 11660.0   5
  -4  -2  10 60659.3 8567.94   8
   4  -2  10 80538.0 8918.56   8
   4   2  10 59673.5 8784.59  15
   5  -2 -10 2099.64 1801.91   7
   5   2 -10 327.478 795.242   7
  -5  -2  10 1246.42 1268.64   2
  -5   2 -10 436.296 803.826   7
   5   2  10 3775.60 2616.79  15
  -5  -2 -10 1080.88 1050.58   3
  -5  -2  10-365.140 625.687   8
  -5  -2  10 5009.38 4024.50   5
   5  -2  10 618.477 749.029   8
  -6  -2 -10 76485.9 8765.83  13
   6  -2 -10 72716.7 7983.16   7
  -6   2  10 103047. 14587.1   2
   6   2 -10 72481.3 8721.40   7
  -6  -2  10 90594.8 11119.9   2
   6  -2  10 101294. 10092.4   8
  -6  -2  10 96860.8 14208.4   5
  -6  -2 -10 88757.4 7583.09   3
   6   2  10 80162.3 10125.7  15
  -6   2 -10 74536.4 6848.43   7
  -6  -2  10 61576.9 8852.42   8
   7   2  10 190.482 491.419  14
  -7  -2 -10 788.711 968.480   3
  -7  -2 -10 5976.69 2814.50  13
  -7   2 -10 621.325 797.983   7
   7  -2 -10 1975.83 1688.16   7
   7  -2  10-399.393 1092.89   8
  -7   2  10 10557.2 5390.08   2
  -7  -2  10 12739.5 5853.28   5
   7   2 -10-680.501 1058.02   7
   7   2  10 2617.18 1955.97  15
  -7  -2  10 317.020 827.638   8
  -7  -2  10 1303.34 1624.66   2
   8   2  10 8304.25 2888.31  14
  -8   2 -10 8003.70 2540.67  13
   8  -2  10 13582.7 3705.54   8
  -8  -2 -10 13475.0 4152.32  13
   8  -2 -10 7867.14 2937.26   7
   8   2 -10 4632.39 1805.76   7
  -8   2 -10 9670.36 2457.78   7
  -8   2  10 16242.9 6350.85   2
   8   2  10 9342.85 3448.09  15
  -8  -2  10 8370.21 3486.07   8
  -8  -2  10 9291.36 3484.16   2
  -9   2 -10-2226.53 1944.77  13
  -9  -2 -10 2742.52 1998.64  13
   9   2 -10-1757.97 2051.76   7
   9   2  10 969.262 1758.73  15
  -9   2  10 5197.83 4013.76   2
   9  -2  10-573.648 1428.24   8
   9  -2 -10 599.317 1108.06   7
   9  -2  10 900.994 781.194  15
  -9  -2  10-895.397 776.399   2
   9   2  10-504.193 1064.29  14
 -10   2 -10-541.863 2465.66  13
 -10  -2 -10 4903.68 2876.91  13
  10   2 -10-580.434 1380.53   7
 -10   2  10 5367.78 4246.10   2
  10   2  10 552.772 1067.87  15
  10  -2  10 1684.57 1662.91  15
  10   2  10 1227.90 1169.10  14
 -10  -2  10 1806.25 1761.16   2
  10  -2 -10 3625.45 2198.82   7
 -11   2 -10-1024.93 2006.50  13
 -11  -2 -10 2877.55 1974.57  13
  11  -2  10 297.552 878.301  15
  12  -2  10 34050.9 6337.86  15
   0   2 -11 542.509 977.589   7
   0  -2  11 1536.86 1826.27   8
   0  -2 -11 552.912 586.534   7
   1   2 -11 41690.6 5836.94   7
  -1   2 -11 43863.7 5808.82   7
  -1  -2 -11 42173.6 5003.34   7
   1  -2  11 53469.4 8309.56   8
   1  -2 -11 39855.6 5326.57   7
  -1  -2  11 51482.4 8187.91   8
  -2  -2  11 8431.91 3600.86   2
   2  -2 -11 3177.49 1428.31   7
   2  -2  11 6757.86 3116.60   8
   2   2 -11 3295.09 1662.72   7
  -2   2 -11 4359.27 1726.92   7
  -2  -2  11 5007.34 2803.89   5
  -2  -2  11 4028.69 2525.27   8
   3  -2 -11 28365.7 4752.22   7
   3   2 -11 28922.4 5238.03   7
  -3   2 -11 34074.6 5001.54   7
  -3  -2  11 33846.3 6764.46   2
  -3  -2  11 40451.8 7846.70   5
   3  -2  11 42886.7 7532.51   8
  -3  -2  11 31673.1 6553.46   8
   4  -2 -11 6553.40 2342.52   7
   4   2 -11 7051.43 2648.12   7
  -4   2 -11 7286.55 2249.47   7
  -4  -2  11 5647.75 3276.55   8
  -4  -2  11 10427.9 4392.60   5
   4   2  11 12157.9 4372.80  15
   4  -2  11 10585.0 3602.07   8
  -4  -2  11 10556.6 3872.99   2
   5  -2 -11 57072.0 7162.32   7
   5   2 -11 61323.5 8037.79   7
  -5   2  11 109289. 15103.5   2
  -5   2 -11 58908.5 6501.22   7
  -5  -2  11 88470.8 11488.3   2
   5  -2  11 90796.3 10683.1   8
  -5  -2  11 80683.6 12309.3   5
   5   2  11 63536.4 9759.54  15
  -5  -2  11 54864.4 9170.43   8
   6  -2 -11 1350.59 1355.70   7
   6   2 -11 587.285 1142.65   7
  -6   2 -11 1861.88 1318.98   7
  -6  -2  11 7460.07 4247.97   5
   6  -2  11 855.226 1881.77   8
   6   2  11 7171.19 3623.30  15
  -6  -2  11 898.646 1224.88   8
  -6  -2  11 3275.97 1970.67   2
   7  -2 -11 36830.2 5989.33   7
  -7   2 -11 38583.2 5098.17   7
  -7  -2  11 44390.0 8330.26   2
   7   2  11 40946.6 7812.69  15
   7  -2  11 61310.6 8766.91   8
  -7  -2  11 59584.8 11412.2   5
   7   2 -11 40954.0 6896.61   7
  -7  -2  11 38619.3 7371.47   8
  -7   2  11 59147.6 11377.7   2
   7   2  11 39694.1 6781.59  14
   8  -2  11-25.2937 988.196   8
   8  -2 -11 1241.37 1434.00   7
  -9  -2 -11 8401.38 3694.85  13
   9  -2  11 4541.83 2499.70  15
   9  -2  11 6156.10 2675.73   8
 -10  -2 -11 3484.67 2708.59  13
   0   2  12 55820.9 11069.4   2
   0   2 -12 29160.1 5001.31   7
   0  -2  12 45844.8 7985.35   2
   0  -2  12 35716.2 7224.70   8
  -1  -2  12 3999.98 1537.70   2
  -1  -2  12 4336.64 2572.39   8
   1   2 -12 2448.47 1273.75   7
   1  -2 -12 1937.01 890.162   7
   1  -2  12 7166.01 3209.21   2
  -1   2 -12 3743.81 1707.38   7
   1  -2  12 4670.72 2778.37   8
   2  -2 -12 12614.6 3130.92   7
  -2   2 -12 13137.9 3383.14   7
   2   2 -12 13118.5 3485.12   7
   2  -2  12 17919.8 5093.82   8
   2  -2  12 18900.0 5203.28   2
  -2  -2  12 12541.3 4699.34   8
  -2  -2  12 16670.6 4776.21   2
   3  -2 -12 2832.21 1404.71   7
  -3   2 -12 4218.09 1770.13   7
  -3  -2  12 5110.81 2803.02   5
   3   2  12 6686.07 3723.49  15
   3  -2  12 6830.04 2958.61   8
  -3  -2  12 5007.88 2531.58   2
   3   2 -12 5394.32 2251.47   7
   3  -2  12 6300.95 2738.07   2
   4   2 -12 15610.6 4198.92   7
  -4   2 -12 16662.5 3598.65   7
   4  -2 -12 15474.4 3714.12   7
  -4  -2  12 20141.0 5950.17   5
   4  -2  12 21378.6 5598.12   8
  -5   2 -12-416.792 504.729   7
  -5  -2  12 2156.90 2372.98   5
   5  -2  12 1978.86 1944.72   8
   5  -2 -12-575.825 875.044   7
   6  -2 -12 45278.3 6576.04   7
  -6  -2  12 60420.1 10939.8   5
   6  -2  12 75419.9 10440.2   8
   0  -3   0 126.514 106.073   5
   0   3   0 23.4956 84.9160   1
   0  -3   0 60.9664 155.848  12
   0  -3   0 289.114 168.029  15
   0   3   0 60.6445 89.8423  10
   0  -3   0 29.1124 72.4804   1
   1  -3   0 399.753 308.197  12
   1  -3   0 392.477 247.207   1
  -1  -3   0 346.439 338.380  12
  -1   3   0 367.914 281.375   1
   1   3   0 372.396 211.041  14
  -1  -3   0 203.369 179.112  11
   1  -3   0 480.859 240.267  15
  -1  -3   0 312.807 235.797   5
   1   3   0 570.735 390.796  10
  -1   3   0 343.625 358.749  10
  -1  -3   0 379.568 168.184   1
  -1   3   0 438.316 187.502   6
  -1  -3   0 446.393 306.897   3
  -1  -3   0 516.101 325.420   7
  -2  -3   0 21643.8 1759.36   7
  -2  -3   0 18273.9 2033.42  12
  -2   3   0 20625.0 2061.22   6
  -2  -3   0 12225.7 836.688   1
   2  -3   0 20003.1 2367.48  12
   2   3   0 19648.5 1711.17   7
  -2   3   0 18369.3 2013.57   1
  -2  -3   0 19705.4 1807.19  11
  -2  -3   0 20486.4 1947.01   3
   2   3   0 19708.8 1731.73  10
  -2   3   0 18565.1 2250.45  10
   2  -3   0 20097.8 1360.45  15
  -2  -3   0 18930.8 2014.71   5
   2   3   0 21919.5 2233.43  14
  -3   3   0-74.0965 354.513   1
  -3  -3   0 81.0206 57.0222   7
   3  -3   0 312.803 451.747  12
   3   3   0 222.151 155.542   7
   3   3   0 56.2049 68.4237  10
  -3  -3   0 58.4665 189.723   3
  -3   3   0 175.868 354.420  10
  -3  -3   0 113.256 318.264  11
  -3  -3   0 80.1732 183.160   5
   3   3   0 138.967 370.419  14
  -4  -3   0 79305.9 3130.05   7
   4   3   0 77796.3 3262.36   7
  -4   3   0 79056.3 4808.05   1
  -4  -3   0 87261.2 4443.70   3
   4   3   0 67916.6 2408.83  10
  -4   3   0 81325.0 5103.46  10
  -4  -3   0 75291.1 4382.18   5
   4   3   0 77489.1 4826.99  14
   4  -3   0 82158.1 5366.53  12
  -5  -3   0 65.2748 46.3838   1
  -5  -3   0 312.920 250.484   7
   5   3   0 248.781 239.788   7
   5  -3   0 158.694 463.467  12
  -5  -3   0 327.056 332.255   3
  -5   3   0 329.509 186.462   1
  -5   3   0 291.219 234.741  10
  -5  -3   0 504.153 545.156   5
   5   3   0 337.537 201.469  14
  -6  -3   0 284.927 177.905   1
   6   3   0 147.741 75.9496   7
   6  -3   0-210.028 594.741  12
  -6  -3   0 157.479 322.940   3
  -6   3   0-92.4536 537.771   1
  -6   3   0 1080.42 691.006  10
  -6  -3   0 483.918 419.957   5
   6   3   0 193.416 437.702  14
   7   3   0 532.045 516.270  14
  -7  -3   0 444.836 297.918   8
   7   3   0 917.343 570.568   7
   7  -3   0 70.0324 525.941  12
  -7  -3   0 388.225 236.275   1
  -7   3   0-212.673 543.461   1
  -7   3   0 413.656 597.394  10
  -7  -3   0 220.127 193.728   9
  -7  -3   0 89.7916 346.622   5
   8   3   0 15913.5 2021.91   7
   8  -3   0 19385.1 3314.13  12
  -8  -3   0 21484.6 1835.26   1
  -8   3   0 22052.5 3169.37   1
  -8   3   0 21757.9 3133.85  10
  -8  -3   0 19966.4 2776.43   5
   8   3   0 20403.3 3150.16  14
   9   3   0 359.658 433.760   7
  -9   3   0 81.9710 144.444   4
  -9   3   0-167.791 390.086   1
   9  -3   0 214.616 673.017  12
  -9  -3   0 10.4957 39.1351   1
  -9   3   0-873.398 871.024  10
  -9  -3   0 391.172 633.928   5
   9   3   0-51.0004 442.033  14
  10   3   0 3732.90 1090.15   7
 -10   3   0 9285.27 2341.10   4
  10   3   0 8821.73 2141.65  14
  10  -3   0 10322.2 2598.32  12
 -10   3   0 10086.2 2447.24   1
 -10  -3   0 8614.16 1975.59   5
 -10  -3   0 8722.71 1450.76   1
 -10   3   0 8327.27 1980.09  10
 -11   3   0-863.893 845.100  13
  11   3   0-697.199 840.762   7
 -11  -3   0 317.539 249.875   5
 -11  -3   0-159.851 325.327   2
  11  -3   0 108.373 672.363  12
 -11   3   0 500.500 533.642  10
  11   3   0 991.698 838.034  14
 -11   3   0-147.529 768.673   4
 -11   3   0 76.4631 515.646   1
 -11  -3   0 429.713 352.937   1
 -12  -3   0 2542.50 816.651   1
 -12  -3   0 1633.54 945.016  13
 -12   3   0-62.6488 1222.83   4
  12   3   0 2828.60 1463.47  14
  12  -3   0 1577.77 765.806  12
 -12   3   0 1671.27 896.908  10
 -12   3   0 3097.98 1443.35   1
 -12  -3   0 1290.21 804.889   5
 -12   3   0-337.702 1086.18  13
 -13   3   0-456.327 726.049   1
 -13   3   0-1940.05 2239.52   4
  13  -3   0-845.446 1610.84  12
 -13  -3   0-6711.67 3221.55  13
  13   3   0 308.208 476.415  14
 -13   3   0-5745.37 2394.58  13
 -13  -3   0 98.3743 369.599   5
 -13   3   0 285.754 65.4125  10
 -14   3   0 4647.90 1514.54  13
 -14  -3   0 3758.75 1342.47  13
  14  -3   0 18465.5 4032.42  12
 -14   3   0 15685.9 3703.34   4
 -14   3   0 18777.9 3942.83   1
 -14   3   0 18931.2 3412.74  10
 -14  -3   0 18541.2 3366.93   5
  14   3   0 20399.9 4133.64  14
 -15  -3   0-677.005 1537.31  13
 -15  -3   0-114.127 589.195   5
 -15   3   0-438.450 791.043   1
  15  -3   0-1075.34 1879.46  12
 -15   3   0 274.649 195.603  10
  15   3   0 288.599 83.1527  14
 -16   3   0-1680.20 2509.39   4
 -16  -3   0 4511.11 2223.27  13
  16  -3   0-36.3123 1521.73  12
 -16   3   0 4178.20 2001.30   1
 -16   3   0 2394.57 994.010  10
  16   3   0 2798.67 1525.95  14
  17  -3   0-3026.62 2264.39  12
  17   3   0 286.762 685.631  14
 -17   3   0 220.972 542.606   1
 -17   3   0-3968.52 3094.40   4
 -18   3   0-1516.44 2251.79   4
 -18   3   0-566.977 967.252   1
  18  -3   0 142.764 1422.39  12
  18   3   0 766.065 726.165  14
 -19  -3   0-4491.87 3246.92  13
 -19   3   0-4588.04 3324.42   4
   0   3  -1 4610.98 1024.48   7
   0  -3  -1 4370.80 1028.13  12
   0  -3   1 4765.64 968.038  12
   0   3  -1 4833.53 1077.28   6
   0   3  -1 4508.40 976.904  10
   0  -3   1 4652.91 853.606   1
   0  -3   1 4913.56 992.509   5
   0   3   1 4534.84 784.662   1
   0  -3  -1 4175.40 825.042  15
   0   3  -1 4469.04 762.059  14
   0   3   1 4250.64 891.379  15
   1   3  -1 18689.1 1925.31   7
  -1   3  -1 18772.4 2083.74   7
  -1  -3  -1 17550.4 2120.37  12
  -1  -3   1 17966.3 1855.59  12
   1  -3  -1 18006.1 2139.34  12
   1   3   1 16126.6 1219.79   1
  -1  -3   1 18096.6 1842.80  11
  -1   3  -1 19823.0 2154.01   6
  -1  -3   1 18421.4 1632.44   3
  -1  -3  -1 21007.0 2158.23   3
   1   3  -1 18898.1 1797.95  14
   1   3  -1 17389.9 1817.98  10
  -1  -3  -1 17138.1 1612.75   7
  -1   3  -1 17560.3 2075.09  10
  -1   3   1 17400.2 2154.08  10
  -1   3   1 16472.4 1760.50   1
   1  -3  -1 21482.5 1726.79  15
  -1  -3   1 18178.8 2001.07   5
   1  -3   1 19894.0 2146.79  12
  -1  -3   1 16156.6 1495.78   1
   1  -3   1 18801.6 1898.10   5
  -1   3   1 18800.5 1765.47  15
   1   3   1 20072.1 2276.54  15
  -1   3  -1 20224.4 1456.76  14
   2   3  -1 10929.6 1494.19   7
  -2  -3  -1 9534.14 1101.13   7
   2   3   1 9770.35 1713.94  14
   2   3   1 9052.90 1577.06  15
  -2  -3   1 9446.47 1385.22  12
   2  -3  -1 10347.6 1699.98  12
   2  -3   1 10811.7 1679.39  12
  -2  -3   1 10986.5 1484.70  11
  -2  -3  -1 9801.32 1195.87  11
  -2  -3   1 11047.6 1306.47   3
  -2   3  -1 10827.4 1667.85   6
  -2  -3  -1 9821.43 1509.13   3
  -2   3   1 10944.3 1444.93   6
   2   3  -1 10176.8 1298.62  10
  -2   3   1 9589.87 1499.91   1
  -2   3  -1 9667.64 1553.42  10
  -2   3   1 9860.30 1087.21  15
  -2  -3   1 9653.59 1310.74  10
  -2   3   1 9924.28 1746.49  10
   2   3  -1 9425.92 1420.24  14
  -2  -3   1 10670.8 1625.73   5
  -2   3  -1 9665.62 1640.42   1
  -2  -3  -1 9842.17 1470.04   5
   3   3   1 705.530 503.605  14
   3  -3  -1 586.042 297.380   4
   3   3  -1 532.537 361.551  14
   3  -3  -1 754.257 485.898  12
   3  -3   1 709.154 430.187  12
  -3  -3   1 1031.05 462.076  11
  -3  -3  -1 959.226 432.917  11
  -3  -3  -1 691.887 435.473   5
  -3   3   1 875.647 436.811   6
   3   3  -1 455.654 197.293  10
  -3  -3   1 777.024 392.083   3
   3   3  -1 879.080 413.235   7
  -3   3  -1 815.207 410.672  10
  -3  -3  -1 735.645 294.947   7
  -3  -3   1 548.394 283.984  10
  -3  -3  -1 857.221 507.062   3
  -3   3   1 784.790 415.213  10
   3   3   1 652.438 499.619  15
  -3   3  -1 866.372 555.887   1
  -3  -3   1 835.983 553.726   5
  -3   3   1 609.558 484.879   1
  -3  -3  -1 904.720 424.283   9
  -4  -3  -1 27350.8 1392.34   7
   4   3  -1 27963.3 2423.71   7
  -4   3   1 25907.3 2982.53   1
   4  -3  -1 29609.7 3172.06  12
  -4  -3   1 28369.4 2421.68   3
   4  -3  -1 23210.3 1887.15   4
  -4   3  -1 28260.3 3003.22  10
  -4  -3  -1 29801.5 2750.76   3
  -4   3   1 30696.6 3300.97  10
  -4  -3   1 24388.4 1753.30  10
   4   3   1 28739.7 1834.37  10
  -4   3  -1 31953.0 3047.08   1
  -4  -3  -1 28986.1 1999.25   9
  -4  -3   1 27132.4 2936.93   5
  -4  -3  -1 27657.2 2546.27   5
   4   3  -1 22213.2 1576.33  10
  -4   3  -1 28785.2 1891.68  14
   4   3  -1 25918.1 2786.18  14
   4   3   1 30303.3 3134.02  14
   4  -3   1 29191.5 3290.81  12
  -5   3   1 19011.5 2760.44   1
   5  -3  -1 21736.8 2911.77  12
   5  -3   1 20316.7 2951.96  12
  -5  -3  -1 22435.9 2567.01   3
  -5   3  -1 19906.4 2648.70  10
  -5   3  -1 23666.8 2844.12   1
  -5  -3   1 15666.7 1239.14  10
   5   3   1 18883.9 1239.96  10
  -5   3   1 21446.4 2899.41  10
   5   3   1 17673.9 1101.39   7
  -5  -3   1 19236.5 2342.51   3
  -5  -3   1 20949.4 2718.15   5
  -5  -3  -1 19069.2 2145.05   5
   5  -3   1 15338.4 1118.72  15
  -5   3  -1 19427.5 1714.76  14
   5   3  -1 19619.2 2135.01   7
   5   3  -1 20280.0 2643.42  14
   5   3   1 19341.6 2630.18  14
  -6   3   1 383.847 294.962   1
   6   3  -1 1012.80 662.247   7
  -6  -3  -1 556.208 367.774   5
   6  -3   1 914.682 858.667  12
   6   3   1 495.058 188.431   7
   6  -3  -1 423.668 385.173  12
   6   3   1 757.398 656.323  14
  -6  -3  -1 707.552 535.819   3
  -6   3  -1 558.801 482.297   1
  -6   3  -1 230.043 56.1693  10
  -6   3   1 101.902 222.809  10
  -6  -3   1 285.148 137.340  10
   6   3  -1 393.335 300.930  14
   6  -3   1 433.188 223.005  15
  -6  -3   1 415.699 410.397   5
  -6   3  -1 449.066 258.668  14
   7   3  -1 19073.9 2518.91   7
   7   3   1 14779.4 1161.61   7
   7  -3   1 19804.1 3477.01  12
  -7  -3  -1 20840.2 2967.23   3
   7  -3  -1 20035.9 3116.14  12
  -7   3  -1 19099.2 2877.54   1
  -7   3  -1 19900.3 2863.80  10
  -7  -3   1 16429.4 1591.79   8
  -7   3   1 18682.1 2970.59  10
  -7  -3   1 18845.3 2787.24   5
  -7  -3  -1 18812.1 2297.28   5
  -7   3   1 19703.4 2710.41   4
  -7   3   1 21249.5 3198.85   1
   7   3  -1 17321.2 2726.84  14
   7   3   1 18135.0 2811.72  14
   8   3  -1 16002.9 2455.76   7
   8  -3  -1 22031.5 3535.32  12
  -8   3   1 22865.3 3522.81   1
  -8   3  -1 22584.9 3201.10   1
   8   3   1 16581.3 1462.11   7
  -8   3  -1 22429.9 3132.52  10
  -8   3   1 22229.0 3261.97  10
  -8  -3   1 20362.3 3091.63   5
  -8  -3  -1 22130.0 2629.42   5
  -8   3   1 20858.1 3037.45   4
   8  -3   1 23419.0 4008.28  12
  -8  -3   1 16214.4 1567.74   8
   8   3  -1 20598.7 3121.48  14
   8   3   1 24383.9 3469.72  14
   9   3  -1 817.075 454.125   7
  -9   3   1 1386.66 920.743   4
   9   3   1 2189.74 741.478   7
  -9   3   1 1791.92 981.359   1
   9  -3  -1 1550.56 793.829  12
   9  -3   1 1711.69 1168.41  12
  -9   3  -1 2721.84 1186.89   1
   9   3  -1 2121.02 898.936  14
   9   3   1 1924.47 1085.70  14
  -9   3  -1 1244.92 862.052  10
  -9   3   1 1576.74 989.929  10
  -9  -3   1 2793.11 851.404   1
  -9  -3   1 1359.40 827.083   5
  -9  -3  -1 1522.53 602.414   5
 -10   3  -1 13661.9 3795.88  13
  10   3   1 9851.91 1523.20   7
 -10  -3   1 16651.2 2188.88   1
 -10  -3  -1 13540.1 1351.88   2
  10  -3  -1 15993.0 3139.18  12
  10  -3   1 15254.9 3388.23  12
  10   3  -1 6917.61 1835.40   7
 -10   3   1 18173.9 3400.04   1
 -10   3  -1 19955.7 3376.56   1
 -10   3  -1 17445.3 2964.44  10
  10   3  -1 16422.3 3121.73  14
 -10   3   1 15751.1 2989.01  10
 -10   3   1 15011.9 2921.61   4
 -10  -3   1 14607.7 2875.07   5
 -10  -3  -1 15692.8 2402.57   5
 -10  -3  -1 17190.4 2013.98   1
  10   3   1 18940.8 3374.16  14
 -10  -3  -1 24274.5 5401.47  13
 -10  -3   1 26154.0 5173.13  13
 -11  -3   1 21984.8 5062.83  13
 -11   3  -1 12012.4 3600.14  13
 -11   3   1 12419.2 2906.55   4
 -11  -3  -1 16938.4 4721.01  13
 -11  -3   1 19315.3 2494.12   1
  11  -3  -1 19302.2 3676.80  12
  11  -3   1 19080.7 3935.89  12
  11   3  -1 4904.48 1539.96   7
 -11  -3   1 14210.5 2210.31   2
  11   3   1 20313.4 3607.23  14
 -11   3   1 20093.4 3608.67   1
 -11   3  -1 16122.0 3470.50   4
 -11   3  -1 22412.9 3692.01   1
 -11   3  -1 19357.5 3216.67  10
 -11   3   1 19127.0 3350.91  10
 -11  -3   1 17181.1 3266.45   5
 -11  -3  -1 19093.8 2755.88   5
 -11  -3  -1 19286.3 2312.11   1
  11   3  -1 19520.2 3585.72  14
 -12  -3  -1-550.125 1923.13  13
 -12  -3   1 2532.64 1971.73  13
  12   3  -1-856.944 1126.07   7
 -12   3   1 266.309 924.515   4
 -12   3  -1-365.286 1297.52   4
 -12  -3   1 1135.76 750.017   5
 -12  -3   1 1992.30 847.423   1
  12  -3  -1 1110.69 656.407  12
 -12   3   1 1626.69 1201.44   1
 -12   3  -1 1872.61 1012.30   1
 -12   3  -1 1224.79 605.450  10
 -12   3   1 2137.66 1197.98  10
 -12  -3  -1 1458.16 865.484   5
  12  -3   1 136.674 1080.66  12
  12   3   1 1448.50 923.594  14
 -12   3  -1-1237.93 1707.08  13
  12   3  -1 2467.49 1432.11  14
 -13  -3   1 673.437 595.672   5
 -13   3  -1-5700.38 2626.03  13
 -13  -3   1-4091.30 2433.31  13
 -13   3   1-404.055 1203.69   4
 -13   3  -1-899.436 1630.48   4
  13   3  -1 852.176 353.745  14
 -13  -3  -1-3424.78 3252.93  13
  13  -3  -1 580.981 915.338  12
  13  -3   1-204.939 1395.40  12
 -13  -3   1 849.896 552.439   1
 -13   3   1 894.568 730.395   1
 -13   3  -1 2271.62 1270.82  10
 -13  -3  -1 1187.11 680.575   5
 -13   3   1 688.701 751.993  10
 -13   3  -1 1631.67 1210.48   1
  13   3   1 1668.35 908.935  14
 -14   3  -1-6221.43 3795.64  13
 -14  -3  -1-1539.14 2387.96  13
 -14   3  -1 22.6122 1643.71   4
 -14   3   1 1486.38 617.422   4
  14  -3  -1 3664.40 1455.51  12
  14  -3   1 1327.93 739.086  12
 -14   3  -1 4444.73 1732.91   1
  14   3  -1 5045.07 2143.82  14
 -14   3  -1 5259.93 1808.18  10
 -14   3   1 5919.18 2168.38   1
 -14   3   1 2312.93 1246.40  10
 -14  -3   1 4144.06 1804.20   5
 -14  -3   1-4924.91 3693.90  13
 -14  -3  -1 3929.24 1325.96   5
  14   3   1 3644.46 1783.59  14
 -15   3  -1-5634.19 3827.45  13
 -15  -3  -1 1220.87 1852.60  13
 -15  -3   1-1756.63 1644.31  13
 -15   3   1 1042.39 999.884   4
 -15   3  -1-1585.46 2469.29   4
  15  -3  -1 3451.40 2026.15  12
  15  -3   1 3176.39 667.805  12
 -15   3   1 4144.56 1884.81   1
 -15   3  -1 4066.98 1830.23  10
 -15   3   1 1389.47 765.671  10
 -15  -3   1 3765.48 1715.39   5
  15   3  -1 4006.21 2031.38  14
 -15   3  -1 4434.38 2156.61   1
  15   3   1 3466.01 1692.34  14
 -16   3  -1 3907.48 1864.85   1
 -16   3   1 2963.91 1608.21   1
 -16  -3   1 3710.16 2021.55  13
 -16   3  -1-5030.40 3450.70  13
 -16   3   1-589.805 1818.55   4
 -16   3  -1-806.260 2367.48   4
  16  -3   1-55.4435 1689.66  12
  16  -3  -1 3686.85 1812.87  12
  16   3  -1 3107.78 1853.48  14
 -16   3  -1 4091.54 1672.49  10
 -16  -3  -1 1608.55 2294.29  13
 -16   3   1 1628.76 917.106  10
 -16  -3   1 3146.10 1480.34   5
  16   3   1 3092.65 1560.01  14
 -17   3  -1-6257.95 3727.29  13
 -17  -3  -1-11202.8 5687.42  13
 -17   3   1 2104.73 1352.97   1
 -17   3   1-2017.14 2468.35   4
  17  -3  -1 2808.68 1862.43  12
 -17   3  -1 2706.00 1658.10   1
  17  -3   1-670.262 1810.80  12
 -17   3  -1-2335.27 2504.13   4
  17   3   1 1739.44 1380.42  14
  17   3  -1 2999.42 1912.47  14
 -18  -3   1-7212.82 4197.44  13
 -18  -3  -1-9660.55 4759.49  13
 -18   3   1-5028.52 3308.93   4
 -18   3   1-141.922 774.030   1
  18  -3  -1 1955.54 1504.35  12
  18  -3   1-2677.45 2597.50  12
  18   3   1 673.115 1164.16  14
  18   3  -1 361.793 439.666  14
 -18   3  -1 907.488 1566.36   1
 -19   3   1-2096.16 2502.77   4
   0   3  -2 2.62583 417.351   6
   0   3   2 485.068 473.283   9
   0  -3  -2 446.598 329.679  12
   0   3   2 423.937 308.350  15
   0  -3   2-19.1872 98.3137  12
   0   3  -2 230.719 352.316   7
   0  -3   2 57.6718 155.974  11
   0  -3   2 199.655 158.111  14
   0   3  -2 192.509 205.222  10
   0  -3   2 91.6373 233.863   5
   0   3  -2 269.294 154.754  14
   1   3  -2 12688.6 1802.34   7
  -1   3  -2 15028.9 1979.13   7
   1  -3  -2 13204.1 1850.14  12
  -1  -3   2 13746.3 1497.99  12
   1  -3   2 14433.9 1787.90  12
   1   3  -2 13747.1 1503.81  12
   1   3   2 13667.3 1957.37  15
  -1  -3   2 14626.3 1750.10  11
  -1  -3   2 12821.8 1162.08   3
  -1   3  -2 13286.9 1883.08   6
   1   3  -2 14815.4 1935.98   6
   1   3  -2 11664.2 1626.81  10
  -1   3  -2 15198.0 1971.64  10
  -1   3   2 11805.1 1932.67   9
  -1  -3   2 13463.6 1843.88   5
  -1  -3  -2 13958.2 1923.51  12
   1  -3   2 14547.8 1683.85   5
   1   3   2 13300.8 1866.69   9
  -1   3   2 12475.3 1630.81  15
  -1  -3  -2 15089.1 1883.58   3
  -1   3  -2 12159.8 943.579  14
   1   3  -2 11416.3 1345.00  14
  -1  -3   2 12836.6 1451.05  14
   2   3  -2 69768.9 4158.92   7
   2  -3  -2 66898.2 4355.58  12
   2   3  -2 74409.8 3550.39  12
   2  -3   2 74801.8 4512.34  12
  -2  -3   2 65960.4 2775.78   3
  -2  -3   2 72788.2 4152.23  11
  -2  -3  -2 64464.1 2802.45  11
  -2  -3  -2 72207.3 4239.78   3
   2   3  -2 61742.1 3610.81  14
   2   3  -2 63688.7 3537.20  10
  -2   3  -2 70606.7 4510.12  10
  -2  -3   2 66675.0 4481.44   5
   2  -3   2 68834.7 3680.32   5
   2   3   2 66651.5 3955.33   9
  -2   3   2 68685.3 4834.22   9
  -2   3  -2 67843.7 4401.08   7
   2   3   2 74566.6 5017.82  15
  -2   3   2 73324.1 3806.46  15
  -2  -3   2 66988.7 3245.90  12
   3   3  -2 12025.1 1733.42  14
   3   3  -2 13412.3 1870.10   7
  -3  -3  -2 11867.2 912.295   7
  -3   3   2 13817.2 1503.09   6
   3   3   2 14047.0 2297.15  15
   3   3  -2 12709.2 1448.28  12
   3  -3  -2 13568.5 2010.67  12
   3  -3   2 14410.8 2059.38  12
  -3  -3   2 13431.8 1362.23   3
   3   3  -2 13481.4 1450.80   3
  -3  -3  -2 13487.8 1283.24  11
  -3  -3   2 14409.5 1860.31  11
  -3  -3  -2 15255.7 1973.64   3
  -3   3   2 14720.3 1555.82  15
   3   3  -2 10032.9 1412.47  10
   3   3   2 13318.7 2174.55  14
  -3   3  -2 15090.4 2173.94  10
  -3  -3   2 13122.1 2101.11   5
   3   3   2 12713.3 1650.11   9
  -3   3   2 12493.6 2169.94   9
   4   3  -2 5368.16 1287.35   7
  -4  -3   2 4074.05 974.811   3
   4  -3  -2 5139.54 1322.75  12
   4  -3   2 4781.16 1314.68  12
  -4  -3  -2 4956.81 1224.41   3
  -4  -3  -2 3359.03 740.135   2
   4   3  -2 4123.72 829.130  10
  -4  -3   2 4226.88 912.252  10
   4   3   2 3546.90 471.228   1
   4   3  -2 4834.17 1264.73  14
  -4   3  -2 5257.20 1358.20  10
  -4  -3  -2 4757.51 1042.79   5
   4   3   2 5391.90 1032.43   9
   4   3   2 5506.96 1644.17  15
  -4   3   2 4959.80 1455.75   9
   4   3   2 5779.86 1490.80  14
  -4  -3   2 4013.27 1304.40   5
   5   3   2 4266.68 558.161   1
   5  -3  -2 5498.10 1503.16  12
   5  -3   2 6935.92 2019.84  12
  -5  -3  -2 5534.33 1337.02   3
  -5   3   2 5387.64 1418.90   9
  -5  -3  -2 3775.02 700.892   2
  -5  -3   2 3858.05 795.255  10
  -5  -3   2 3865.46 1176.83   5
  -5   3  -2 5303.18 1460.03  10
  -5  -3  -2 5380.24 1115.57   5
   5   3  -2 5431.89 1379.41   7
  -5   3  -2 4000.25 530.719  14
   5   3  -2 3713.24 1119.35  14
   5   3   2 5608.56 1577.78  15
   5   3   2 5579.39 1515.38  14
  -6   3   2 226.818 482.281   1
   6  -3  -2 563.387 631.157  12
  -6   3   2 557.126 580.436   4
   6   3  -2 1990.33 948.989   7
   6  -3   2 1556.52 1393.32  12
   6   3  -2 658.678 544.265  14
  -6   3  -2 486.187 732.733   1
   6   3   2 315.553 232.366  10
  -6  -3  -2 394.738 476.080   3
  -6  -3  -2 303.566 169.461   2
  -6  -3  -2 462.428 253.872   5
  -6  -3   2-18.0448 138.822  10
   6   3   2 435.795 564.186  14
  -6   3  -2 366.490 514.276  10
  -6   3  -2 510.660 279.351  14
  -6   3   2 255.054 478.421   9
   6   3   2 529.779 705.151  15
  -6  -3   2 224.146 166.360   5
  -6  -3  -2 247.930 178.117   8
  -6  -3   2 978.859 657.583   8
   7  -3   2 3170.19 1679.24  12
  -7   3   2 2649.97 1017.47   4
   7  -3   2 2718.21 687.395  15
   7   3  -2 2761.60 1179.53   7
   7  -3  -2 2662.67 1109.36  12
  -7  -3  -2 2106.33 421.829   2
  -7  -3   2 1368.13 529.875   8
  -7  -3  -2 2436.66 770.691   5
  -7   3   2 2617.47 1064.76   9
   7   3   2 3189.16 1334.95  15
  -7  -3   2 1172.95 618.189   5
  -7  -3  -2 2496.68 1021.59   3
  -7  -3  -2 1602.54 345.673   8
  -7   3   2 2354.49 1079.65   1
   7   3   2 1555.69 386.509  10
  -7  -3   2 1313.26 377.379  10
  -7   3  -2 2919.17 1192.50   1
  -7   3  -2 2827.16 1114.45  10
   7   3   2 2952.12 1145.02  14
  -7   3   2 2218.54 1017.76  10
  -7   3  -2 2264.42 568.452  14
   7   3  -2 2281.63 980.975  14
  -8  -3  -2 1872.40 365.089   2
  -8   3  -2 2836.94 1102.63   1
   8  -3  -2 2572.31 1214.52  12
  -8   3   2 2394.82 1198.55   4
   8   3  -2 2315.17 1189.78   7
   8  -3   2 3129.83 1672.16  12
  -8  -3  -2 2733.71 1165.09   3
  -8   3   2 1142.61 377.416  15
  -8  -3   2 1216.14 375.751  10
  -8   3  -2 2268.52 1010.88  10
   8   3   2 1271.13 273.470  10
  -8   3   2 2786.68 1249.41   1
  -8   3   2 2271.52 933.355  10
  -8   3   2 3642.72 1216.54   9
   8   3   2 2761.73 1265.17  15
  -8  -3   2 1623.54 962.473   5
   8  -3   2 2679.44 758.133  15
   8   3  -2 2327.59 1110.02  14
  -8  -3   2 1439.57 435.029   8
  -8   3  -2 7210.81 2905.45  13
  -8  -3  -2 2987.66 865.582   5
   8   3   2 2102.28 1110.53  14
  -9   3   2 354.428 434.157   1
  -9   3   2 472.076 612.520   4
   9   3  -2 105.862 287.012   7
  -9  -3  -2 535.080 377.569   5
  -9  -3   2 836.246 513.470   8
   9   3   2 615.322 501.427  14
   9  -3  -2 687.208 474.715  12
   9  -3   2-317.844 696.263  12
  -9  -3   2 575.268 251.303   5
   9  -3   2 805.292 404.624  15
  -9   3  -2 691.079 607.034  10
  -9   3   2-228.645 146.278  10
   9  -3   2 17.6024 603.743  14
  -9   3  -2 525.038 732.185   1
   9   3  -2 666.512 573.174  14
 -10   3   2 1479.79 850.461   1
 -10   3  -2 1744.81 1911.25  13
 -10   3   2 1026.10 928.505   4
  10   3  -2 834.430 746.225   7
  10   3   2 2679.21 1252.87  14
  10  -3  -2 1746.07 705.235  12
  10  -3   2 1792.06 706.887  12
 -10   3  -2 2684.37 1304.04   1
 -10  -3  -2 3096.63 2353.68  13
 -10  -3   2 444.129 459.420   5
 -10  -3  -2 1878.00 736.120   5
 -10   3  -2 2869.67 1150.38  10
 -10   3   2 1869.43 956.592  10
  10  -3   2 2310.58 688.814  15
  10   3  -2 2458.72 1181.27  14
  10  -3   2 1303.98 479.289  14
 -11   3  -2-415.981 1057.53  13
 -11   3   2 1872.86 1337.70   1
 -11   3   2-144.587 844.074   4
  11   3  -2-290.117 938.438   7
  11  -3  -2 539.401 207.845  12
  11  -3   2-186.613 1306.66  12
 -11  -3  -2-70.5339 1122.05  13
  11   3  -2 546.233 649.101  14
 -11   3  -2 1887.36 1100.69   1
 -11   3  -2 894.775 661.744  10
 -11  -3   2 482.801 174.614   5
 -11   3   2 379.568 330.808  10
 -11  -3  -2 420.156 355.380   5
  11  -3   2-584.890 1139.67  14
  11   3   2 1124.72 681.274  14
 -12   3  -2-3482.73 2142.74  13
 -12  -3   2 631.000 686.704   1
 -12   3   2-92.5691 706.353   4
 -12   3   2 198.182 724.457   1
  12   3  -2-196.531 823.530   7
  12  -3  -2 182.095 667.384  12
  12   3   2 8.16742 337.972  14
 -12  -3   2 799.769 1183.69  13
  12  -3   2-576.166 1594.03  12
  12  -3   2-916.788 1375.48  14
 -12   3  -2 576.330 1043.33  10
 -12   3  -2-82.3148 465.728   1
 -12   3   2-1.57067 466.617  10
 -12  -3   2-103.523 457.159   2
 -12  -3  -2-120.948 306.294   5
  12   3  -2 539.350 627.259  14
 -12  -3   2 602.058 518.919   5
 -13   3  -2 458.176 752.516   1
 -13  -3   2-1855.35 1869.53  13
 -13   3   2-911.833 1175.97   4
  13   3  -2 613.841 970.559   7
  13   3   2-107.315 739.614  14
  13  -3  -2 774.469 889.819  12
  13  -3   2-1664.66 1658.49  12
  13  -3   2-548.742 1015.64  14
 -13  -3   2 73.9249 98.8976   1
 -13   3   2 692.242 813.699   1
 -13   3  -2 405.569 644.578  10
 -13  -3   2-75.9189 662.209   5
 -13   3   2 88.8863 155.015  10
  13   3  -2-493.309 627.979  14
 -13  -3  -2 265.378 376.979   5
 -14  -3  -2-3286.15 2945.06  13
 -14  -3   2-3792.11 3146.13  13
 -14   3   2 126.666 433.248   4
  14  -3   2-1897.06 2105.86  12
  14   3   2-137.654 829.187  14
 -14  -3   2 244.128 771.846   5
  14  -3  -2-462.543 520.615  12
 -14   3   2-280.748 408.575   1
 -14   3  -2-198.882 350.416   1
 -14   3  -2-647.442 887.505  10
 -14   3   2 521.029 912.622  10
  14   3  -2-20.8263 258.466  14
  15   3   2 3329.06 1591.80  14
 -15  -3  -2 4547.55 3112.84  13
 -15  -3   2-1038.61 1992.13  13
 -15  -3   2 5750.06 2263.92   5
 -15   3  -2 6382.74 2415.77   1
  15  -3  -2 5042.28 2174.33  12
  15  -3   2 1711.96 784.456  12
 -15   3   2 4526.95 1800.65   1
 -15   3  -2 3957.35 1661.51  10
 -15   3   2 4616.20 1976.87  10
  15   3  -2 4574.89 2157.84  14
 -15   3   2 2192.93 885.759   4
 -16   3  -2-3527.20 3223.09  13
 -16  -3  -2 1520.50 2549.09  13
 -16  -3   2 8385.40 2524.47  13
  16  -3  -2 12712.1 3403.71  12
  16  -3   2 12155.5 3636.97  12
 -16  -3   2 14472.9 3898.81   5
 -16   3  -2 12381.2 2990.69  10
 -16   3   2 13048.1 3699.08   1
 -16   3   2 8588.41 2555.59  10
 -16   3  -2 15772.8 3920.26   1
  16   3   2 13943.6 3671.32  14
  16   3  -2 12965.2 3727.88  14
 -16   3   2 9930.45 3219.82   4
 -17  -3   2 130.658 337.376   5
  17   3  -2 996.536 1185.67  14
 -17   3   2-2294.71 2082.00   4
  17  -3  -2 594.477 724.443  12
  17  -3   2-1291.35 1922.23  12
 -17   3   2 313.981 545.159   1
 -17   3  -2 1393.43 1479.41   1
  17   3   2 857.065 1135.98  14
 -18   3  -2-10954.9 4267.69  13
 -18  -3  -2-6430.47 4460.81  13
  18  -3  -2 891.828 1166.85  12
  18   3   2 2499.14 1917.07  14
 -18   3   2 1388.96 1212.08   1
   0   3  -3 32632.2 3136.41   7
   0  -3  -3 33134.5 3041.76  12
   0  -3   3 34995.6 2470.85  12
   0   3  -3 35999.6 2577.49  12
   0  -3   3 33546.1 2843.68  11
   0   3   3 33416.2 3623.93   9
   0   3  -3 33511.3 3137.08   6
   0   3  -3 34050.1 3143.25  10
   0  -3   3 33171.9 2190.91  14
   0  -3   3 34798.9 3015.51   5
   0   3   3 32911.5 3381.69  15
   0   3  -3 31072.2 2139.48  14
   1   3  -3 32493.5 3134.57   7
  -1   3  -3 31910.3 3120.89   7
   1  -3  -3 28584.2 2889.02  12
  -1  -3   3 30944.2 2115.39  12
   1  -3   3 33866.9 2689.20  12
   1   3  -3 32336.8 2214.78  12
  -1  -3   3 21458.1 1166.14   3
   1   3   3 31038.2 3353.61   9
  -1  -3   3 33216.3 2909.77  11
   1   3  -3 32983.4 3020.69   6
  -1  -3  -3 35401.4 3230.97   3
   1   3  -3 31391.5 2956.84  10
  -1   3   3 30396.2 3668.37   9
  -1   3  -3 32094.2 3102.72  10
   1   3  -3 30260.7 2431.20  14
  -1   3   3 32585.1 3254.66  15
  -1  -3   3 32481.8 3187.64   5
   1  -3   3 32189.5 2743.83   5
   1   3   3 32781.8 3428.06  15
   1  -3   3 25153.8 1422.47  14
  -1   3   3 31028.4 3482.86   2
  -1  -3   3 28412.4 2475.67  14
  -2  -3   3 753.505 309.873  12
   2  -3   3 1096.83 491.619   5
  -2   3   3 2309.21 1265.94   2
   2  -3  -3 1129.32 675.601  12
   2   3  -3 1536.45 710.533   7
   2   3  -3 1101.95 408.391  12
   2  -3   3 1164.33 518.399  12
  -2   3  -3 977.996 612.272   7
  -2  -3   3 946.543 553.525  11
  -2  -3  -3 930.032 273.172  11
   2   3  -3 768.405 363.326   6
   2   3  -3 934.151 604.134  10
  -2   3  -3 1314.33 726.737  10
  -2  -3  -3 1023.14 494.034   3
   2   3   3 711.423 612.850  15
  -2  -3   3 825.876 589.648   5
   2   3   3 1447.69 729.747   9
   2   3  -3 1011.59 579.381  14
  -2   3   3 998.747 823.959   9
   3   3  -3 15798.9 2371.21   7
  -3   3  -3 16083.8 2329.26   7
   3  -3  -3 17681.6 2346.34  12
   3   3  -3 17926.6 1548.61  12
   3  -3   3 15373.6 2310.51  12
  -3  -3   3 17814.6 2298.40  11
  -3  -3  -3 17257.4 2253.13   3
   3   3   3 16463.2 2629.24  15
   3   3  -3 13174.2 1881.70  10
  -3   3   3 16442.2 1583.89   6
   3   3  -3 18594.1 1488.35   3
   3   3  -3 17579.9 2226.90   6
  -3   3  -3 17058.0 2410.76  10
  -3  -3   3 15345.2 2597.44   5
  -3   3   3 17625.5 2868.76   9
   3  -3   3 16683.4 1801.44   5
   3   3   3 17645.3 2241.53   9
   3   3  -3 15808.9 2172.29  14
  -3  -3  -3 14119.1 1164.52   7
  -3   3   3 17388.0 2920.51   2
   4   3   3-60.2208 361.207  14
   4   3  -3 183.693 218.534  12
   4   3  -3 132.688 308.830   7
   4  -3  -3 88.5228 163.826  12
   4  -3   3 1292.55 1166.68  12
  -4   3  -3-40.3450 273.102   7
   4   3   3 233.646 543.168  15
  -4   3   3 930.141 1015.68   2
  -4   3   3 161.941 182.131   6
   4   3  -3 107.312 116.231  14
  -4   3  -3-43.6081 362.825  10
  -4  -3   3 49.1709 321.117   5
   4   3   3 101.108 150.957   9
  -4  -3  -3 276.963 331.968   3
   4   3  -3 109.219 148.258   3
  -4   3   3 376.957 330.631   9
   5   3  -3 14976.5 1611.16  12
   5   3  -3 16983.5 2718.33   7
  -5  -3  -3 14807.4 1736.81   2
   5   3   3 14996.0 2766.75  15
  -5  -3   3 13966.6 2112.32   8
   5  -3  -3 16718.7 2476.93  12
   5  -3   3 16269.2 3060.50  12
  -5  -3  -3 17293.6 2453.10   3
   5   3   3 16998.3 2782.18  14
   5   3   3 16744.7 1899.46   9
  -5   3  -3 16939.4 2526.50  10
  -5  -3   3 14576.3 2983.70   5
   5   3   3 17121.9 1550.14   1
   5   3  -3 14726.1 2424.50  14
  -5   3   3 15972.0 2848.32   9
  -5   3   3 13285.8 2838.58   2
   6   3  -3 8273.82 2023.56   7
  -6   3   3 7437.02 1314.58   4
  -6  -3  -3 9250.79 1200.22   2
   6  -3  -3 8411.57 1828.65  12
   6  -3   3 9224.00 2600.59  12
  -6   3   3 8174.32 2243.89   2
   6   3  -3 8671.52 1903.93  14
  -6  -3  -3 8260.26 1804.82   3
   6   3   3 8158.86 1073.68   1
  -6  -3   3 6714.13 1430.13   8
   6   3   3 9259.67 2088.75  14
  -6  -3   3 8967.35 2520.96   5
  -6   3  -3 7930.29 1739.05  10
   6   3   3 9071.40 1249.14   9
   6   3   3 8730.88 2187.56  15
  -6   3   3 9234.19 2116.69   9
  -6  -3  -3 5207.21 899.046   8
  -7   3   3 852.904 616.887   4
   7   3  -3 556.685 744.195   7
  -7   3   3 1881.25 1156.25   2
   7  -3   3 712.130 1129.92  12
   7  -3   3 1193.67 652.540  15
  -7  -3   3 1611.24 1422.23   5
  -7  -3  -3 1258.07 776.105   3
  -7   3  -3 300.457 336.138  10
  -7  -3  -3 989.589 427.489   8
  -7   3   3 1754.57 1116.12   9
   7  -3  -3 1297.72 829.790  12
   7   3  -3 1514.14 895.635  14
   7  -3   3 1010.00 556.114  14
   7   3   3 932.017 836.391  15
  -7  -3  -3 253.571 191.687   2
  -7  -3   3 100.438 278.001   8
   7   3   3 857.465 696.335  14
  -8   3  -3 17578.2 4214.59  13
   8   3  -3 13644.2 2880.99   7
  -8  -3  -3 20331.6 5083.35  13
  -8   3   3 13300.1 2276.12   4
   8   3   3 19016.6 3408.64  15
   8  -3  -3 18445.9 2928.18  12
   8  -3   3 12895.1 3396.69  12
  -8  -3  -3 17437.6 3027.30   3
  -8   3  -3 17598.2 2854.74  10
  -8  -3   3 13489.6 3288.92   5
  -8   3   3 17821.2 3404.58   2
  -8   3   3 17544.3 3058.26   9
   8  -3   3 17598.2 2193.89  15
   8  -3   3 12204.6 2017.37  14
  -8  -3   3 13205.0 1926.97   8
   8   3  -3 17916.8 3088.54  14
   8   3   3 18708.8 3220.60  14
  -9  -3  -3 485.819 441.513   5
  -9   3   3 679.097 371.744   1
  -9   3  -3 1967.41 2284.46  13
  -9  -3  -3 2647.46 2382.63  13
  -9   3   3-38.1868 530.443   4
  -9  -3  -3 669.330 589.403   3
   9  -3  -3-212.640 126.968  12
   9   3   3-577.690 522.976  15
  -9  -3   3 23.9065 280.994   8
  -9   3  -3 80.4314 623.764  10
  -9   3   3 15.4181 629.874  10
  -9  -3   3-601.691 789.208   5
   9   3  -3-211.298 576.444   7
   9  -3   3 561.218 414.257  14
   9  -3   3-55.6696 282.428  15
  -9   3   3 252.095 304.667   9
   9  -3   3-70.2971 995.774  12
   9   3  -3 331.676 437.887  14
   9   3   3 619.092 811.614  14
  10   3  -3 14384.8 3222.07   7
 -10   3  -3 11055.7 3614.24  13
 -10   3   3 14661.9 2953.39   4
 -10   3   3 28483.8 4575.46   1
  10  -3  -3 31712.4 4258.17  12
  10  -3   3 24078.4 4861.80  12
 -10  -3  -3 17076.9 4950.53  13
 -10  -3   3 25342.7 3094.51   8
 -10   3  -3 30263.3 3935.07  10
 -10   3   3 28027.0 4252.22  10
 -10  -3   3 24452.1 4640.58   5
 -10  -3  -3 29652.5 2827.10   5
 -10   3   3 32753.5 4258.66   9
  10   3   3 34354.1 4935.28  15
  10  -3   3 33731.8 3251.11  15
  10  -3   3 24522.9 3501.35  14
  10   3  -3 30693.4 4496.30  14
  10   3   3 33945.1 4539.70  14
 -11  -3  -3 338.281 416.494   5
 -11   3   3 264.636 493.448   1
 -11   3  -3-1442.47 1811.28  13
 -11   3   3-16.6123 279.308   4
  11   3  -3-816.431 911.513   7
  11  -3  -3 7.75849 167.920  12
  11  -3   3-1243.42 1545.21  12
  11   3   3 58.3093 302.161  15
 -11   3  -3 724.761 774.886  10
  11  -3   3 127.077 302.829  15
 -11   3   3-851.396 738.362  10
 -11   3   3 499.530 550.768   9
  11  -3   3 438.016 175.918  14
 -11  -3   3-470.852 1130.91   5
  11   3  -3 340.816 429.615  14
  11   3   3-228.554 129.464  14
 -12  -3  -3-2896.49 3058.24  13
 -12   3  -3-2406.17 2428.92  13
 -12  -3   3 2191.56 1704.79  13
 -12   3   3 908.173 1029.50   4
  12   3  -3 1114.87 696.108   7
  12  -3  -3 471.553 94.9888  12
  12  -3   3-46.9503 1553.44  12
 -12  -3   3-626.410 878.576   2
 -12   3  -3 170.041 306.042  10
 -12   3   3 1176.05 461.634  10
 -12  -3   3-573.516 1335.13   5
  12   3  -3 1056.03 860.049  14
 -12   3   3 791.920 526.218   1
  12   3   3 663.672 685.590  14
 -13   3   3 2838.97 1953.81   1
 -13  -3   3-1621.90 2321.05  13
 -13   3   3 4162.56 2128.09   4
  13   3  -3 3547.71 2112.29   7
  13  -3  -3 2715.93 1274.64  12
 -13  -3   3 2817.29 1087.83   1
  13  -3   3 4084.06 1935.48  12
 -13  -3  -3-1390.74 2829.77  13
 -13  -3   3 2528.96 1167.91   5
 -13   3  -3 4712.66 1813.63  10
 -13  -3   3 1830.70 880.314   2
 -13   3   3 2888.88 1376.33  10
  13   3  -3 3338.94 1855.57  14
  13   3   3 4947.90 1965.64  14
 -14  -3  -3-321.945 715.808  13
 -14   3   3 1332.26 1462.78   1
 -14   3   3 1458.83 1445.32   4
  14   3  -3 4223.04 2501.34   7
 -14  -3   3 79.2703 953.691   5
  14  -3  -3 1205.88 876.273  12
  14  -3   3-681.748 1317.42  12
  14   3  -3 1050.86 1070.48  14
 -14   3  -3-410.200 653.274  10
 -14   3   3 971.156 979.581  10
  14   3   3 247.184 459.837  14
 -15  -3  -3 1341.81 1390.09   4
 -15   3   3 413.272 870.364   4
 -15   3   3-132.004 543.034   1
  15  -3   3-1429.58 2172.96  12
  15   3   3 440.307 31.3871  14
 -15   3  -3 394.962 362.077  10
 -15  -3   3 1186.48 928.742   5
 -15   3   3 845.811 1165.21  10
  15  -3  -3-488.795 941.918  12
  15   3  -3 1309.25 1296.70  14
 -16  -3  -3 1495.36 1393.22   4
  16   3  -3-190.111 304.735  14
  16  -3   3-1906.29 1997.01  12
 -16   3   3-578.975 970.887   1
  16   3   3 1686.32 1620.88  14
 -16  -3   3 1339.99 1669.67   5
 -16   3  -3-609.084 602.183  10
 -16   3   3 2180.50 1614.58  10
  16  -3  -3-542.204 1193.38  12
  17   3   3 7012.19 2625.06  14
 -17  -3  -3 7902.38 2745.20   4
  17  -3  -3 6350.99 2387.26  12
  17   3  -3 7491.23 2994.57  14
  17  -3   3 4177.31 1844.02  12
 -17  -3   3 8150.11 3322.50   5
 -17   3   3 4555.82 2064.62   1
 -18  -3   3 4893.24 2535.72   5
  18  -3  -3 2448.41 1529.43  12
   0  -3  -4 451.947 464.676  12
   0   3   4 1334.74 1067.02   2
   0   3  -4 416.712 494.635   7
   0  -3   4 401.934 318.095  11
   0   3   4 686.690 628.618  15
   0   3  -4 255.621 119.051  10
   0  -3   4 638.444 428.604   5
   0  -3   4 332.189 227.329  12
   0  -3   4-23.7880 297.188  14
  -1  -3  -4 1228.67 330.382   4
  -1  -3   4 1506.79 424.192  12
   1   3   4 1939.29 1215.58   2
  -1  -3  -4 1207.00 567.737   7
  -1   3  -4 1201.68 545.578   7
   1  -3   4 1476.42 519.488  12
  -1   3   4 2157.75 1289.46   2
   1   3  -4 946.551 559.596   7
   1  -3  -4 1418.26 682.875  12
   1   3  -4 1405.93 592.498  12
  -1  -3   4 1937.75 853.810  11
   1  -3   4 1382.04 584.203  11
   1   3  -4 1344.64 723.006  10
  -1   3  -4 1623.68 795.790  10
   1  -3   4 775.138 271.602  14
  -1  -3   4 1075.33 510.657   5
   1   3   4 1213.55 818.889  15
  -1  -3  -4 1381.81 639.698   3
   1  -3   4 1525.34 717.997   5
  -2  -3  -4 1367.64 530.994   7
  -2  -3  -4 1294.98 426.422   4
   2  -3   4 976.054 280.933  14
  -2  -3   4 1461.77 396.772  12
   2   3   4 1523.87 907.481  15
   2  -3  -4 1291.08 655.498  12
  -2  -3  -4 1453.02 634.447   3
   2   3  -4 1679.98 815.722   7
   2  -3   4 1462.13 617.296  12
  -2   3   4 2083.10 1420.72   2
   2   3  -4 1310.84 428.026  12
  -2   3  -4 2129.34 962.086   7
  -2  -3   4 1867.74 829.542  11
  -2  -3  -4 1398.42 295.210  11
   2   3   4 1601.67 965.206   2
   2   3  -4 1463.42 627.673   6
   2  -3   4 1666.11 719.541   5
   2   3  -4 1088.37 622.440  10
  -2   3  -4 1653.81 893.483  10
  -2  -3   4 556.929 267.990   5
   2   3  -4 1660.21 759.861  14
  -3  -3  -4 1581.65 533.576   4
  -3  -3  -4 1455.32 471.104   7
   3  -3  -4 1580.52 735.564  12
   3   3  -4 1430.95 626.928  14
   3   3  -4 1206.98 643.775   7
   3   3  -4 1030.23 324.998  12
  -3   3   4 1716.45 1212.77   2
   3  -3   4 3066.57 1208.74  12
  -3  -3   4 1277.51 686.076  11
  -3   3  -4 1080.63 653.834   7
   3   3  -4 1762.12 822.747   6
  -3   3  -4 1572.79 966.411  10
  -3  -3  -4 1694.36 822.971   3
  -3  -3   4 2088.78 1151.50   5
   3  -3   4 1132.77 463.666   5
   3   3   4 1330.61 841.092  15
  -4   3   4 16864.4 3526.61   2
   4   3  -4 19508.1 2927.39   7
  -4  -3  -4 19493.5 2150.35   4
  -4   3  -4 20410.1 2791.34   7
   4   3   4 20794.8 3290.96  15
   4   3  -4 18436.0 1300.46  12
   4  -3  -4 19973.8 2520.07  12
   4  -3   4 21095.7 3171.87  12
   4   3  -4 18537.5 1491.65   3
  -4   3   4 16936.5 1371.88   6
  -4   3  -4 24804.2 3069.42  10
   4   3  -4 20970.9 2510.62   6
  -4  -3   4 19601.8 3498.32   5
   4  -3   4 21627.1 1990.99   5
  -4   3   4 21170.0 3489.07   9
  -4  -3  -4 17869.1 1163.76   7
   4   3  -4 19143.4 2688.71  14
  -4  -3   4 15696.9 2596.39   8
  -4  -3  -4 20448.7 2580.61   3
  -5   3   4 18893.2 3827.45   2
  -5  -3  -4 19372.9 2373.42   4
   5   3  -4 20903.5 3286.01   7
  -5   3  -4 20520.8 2948.61   7
   5   3  -4 20164.4 1520.24  12
   5  -3  -4 21686.7 2801.88  12
  -5  -3  -4 22717.2 2902.72   3
   5  -3   4 17049.4 3276.27  12
   5   3  -4 18293.6 1952.69   3
   5   3  -4 21750.2 2631.25   6
  -5   3  -4 21172.3 3018.23  10
  -5   3   4 19069.9 3439.16   9
  -5  -3   4 18459.5 3712.19   5
   5   3   4 20521.2 3388.58  15
   5   3  -4 20812.1 2949.18  14
  -5  -3   4 16141.0 2582.52   8
   5   3   4 21110.9 3381.07  14
   6   3   4 6426.08 1911.27  14
  -6  -3  -4 6424.08 1402.24   4
  -6  -3  -4 11694.8 4280.17  13
  -6   3   4 4870.42 1009.20   4
   6   3  -4 6896.62 1004.73  12
   6  -3  -4 7732.80 1757.26  12
   6   3  -4 6193.16 1853.19   7
   6   3  -4 6874.88 1855.20  14
  -6  -3  -4 6770.01 1720.74   3
   6  -3   4 6714.54 2449.46  12
  -6   3   4 6530.81 1986.83   9
  -6  -3   4 5411.42 2299.96   5
  -6   3  -4 6526.77 938.449   5
  -6  -3   4 5187.29 1403.44   8
  -6   3  -4 6683.40 1737.80  10
   6   3   4 7306.50 2146.63  15
  -6   3   4 7644.18 2478.34   2
  -7   3  -4 4464.82 2469.71  13
  -7   3   4 810.240 435.736   4
   7   3  -4 1146.34 807.140   7
  -7   3   4 1548.55 902.446   9
   7   3   4 1854.38 1081.97  15
   7  -3  -4 2067.21 971.609  12
  -7   3   4 1475.59 1233.61   2
   7  -3   4 1865.76 1590.67  12
  -7  -3   4 810.135 930.922   5
  -7  -3  -4 6130.42 3467.78  13
  -7  -3  -4 1507.87 950.880   3
  -7   3  -4 1697.20 943.532  10
   7   3  -4 2006.14 1091.10  14
   7   3   4 2644.69 692.885   9
  -7   3  -4 1677.07 423.080   5
   7  -3   4 1147.05 429.014  14
  -7  -3   4 792.671 312.120   8
   7   3   4 2588.55 1198.98  14
   8   3  -4-267.755 343.155  14
   8  -3   4 236.710 298.619  14
  -8   3  -4 1724.80 1845.71  13
  -8  -3  -4-103.089 201.443   3
  -8  -3  -4 1156.08 1176.89  13
  -8   3   4-462.577 704.740   4
  -8  -3   4-1213.35 1538.38   5
   8   3  -4 250.936 363.402   7
   8  -3  -4 216.577 273.251  12
   8  -3   4-662.863 1010.21  12
   8   3   4 395.902 693.817  15
   8   3   4 94.5135 254.248   9
  -8   3  -4 701.144 855.381  10
  -8  -3   4-508.281 871.338   8
  -8   3   4 1012.48 1124.38   9
   8  -3   4 531.683 594.363  15
  -8   3   4-331.567 413.904   2
   8   3   4 384.723 590.148  14
  -9   3  -4 21743.0 5027.10  13
   9   3  -4 19877.7 3923.02   7
  -9  -3  -4 30598.6 3883.10   4
  -9   3   4 13804.2 2625.50   4
   9  -3  -4 31396.5 3932.26  12
   9  -3   4 16391.8 3995.57  12
  -9   3   4 31578.2 5199.32   2
  -9   3  -4 32174.8 4186.34  10
  -9   3   4 33300.6 4632.63   9
   9  -3   4 30348.4 3380.98  15
  -9  -3   4 18494.5 4461.94   5
   9   3   4 31976.3 4808.62  15
  -9  -3  -4 30434.3 4367.19   3
  -9  -3   4 24931.9 3316.45   8
   9   3  -4 31281.4 4452.93  14
   9   3   4 31884.8 4414.33  14
  -9  -3  -4 20071.3 5164.87  13
  10  -3   4 258.511 363.319  15
 -10  -3  -4 736.491 700.375   4
 -10   3  -4-1015.39 1578.05  13
 -10   3   4 192.580 342.505   4
  10  -3  -4 273.404 584.739  12
 -10   3  -4-232.914 256.172  10
 -10  -3   4-410.283 1481.37   5
  10   3  -4-148.085 212.903  14
  10   3   4 1433.27 1186.70  15
 -10   3   4-730.761 1053.05   2
  10   3  -4-959.113 1291.67   7
 -10  -3   4 561.519 559.487   8
 -10   3   4 5.34446 222.713   9
  10  -3   4-1270.56 2116.27  12
  10   3   4 1248.70 1103.96  14
 -11   3   4 739.968 885.886   1
 -11   3  -4-2927.79 2750.82  13
 -11  -3  -4 1038.38 744.229   4
  11   3  -4-269.535 447.859   7
  11  -3  -4 536.954 778.785  12
  11  -3   4 772.273 315.334  12
  11   3   4 840.016 919.179  14
 -11  -3   4-1269.43 1719.62   5
 -11  -3  -4-4800.48 4269.52  13
  11   3  -4 279.251 574.706  14
 -11   3  -4 309.846 517.875  10
 -11  -3   4 6631.91 2828.97  13
 -11   3   4-237.818 611.876  10
 -11   3   4 63.3714 456.744   9
  11  -3   4 810.662 874.175  15
  11   3   4 399.155 108.519  15
 -11   3   4-189.507 718.686   2
 -11   3   4 1267.33 1243.10   4
 -12   3  -4-3195.16 3417.01  13
 -12  -3  -4 3019.97 1506.51   4
 -12   3   4 5111.97 2235.99   4
  12   3  -4 2114.48 1611.44   7
  12   3  -4 2013.96 1275.41  14
  12   3   4 1729.04 1337.72  15
  12  -3  -4 2057.24 987.144  12
  12  -3   4 2058.84 1406.95  12
 -12  -3   4 1170.97 1093.37  13
 -12  -3  -4-3438.74 2508.28  13
 -12   3  -4 2627.82 1340.44  10
 -12  -3   4 865.091 674.328   5
 -12   3   4 376.706 668.375  10
 -12   3   4 2567.80 1147.63   9
 -12   3   4 1224.81 745.127   1
 -12  -3   4-296.386 1280.55   2
  12   3   4 2397.36 1340.60  14
 -13  -3  -4 8013.37 3599.83  13
 -13  -3  -4 9476.66 2640.32   4
 -13   3   4 9814.39 2522.47   9
  13  -3  -4 10994.9 2756.08  12
  13   3  -4 8732.12 2993.05   7
  13  -3   4 12046.9 4030.61  12
 -13   3  -4 11141.0 2756.56  10
  13   3   4 13189.4 3230.93  14
 -13   3   4 8766.29 2620.10  10
 -13  -3   4 7014.08 2617.29   5
 -13  -3   4 9309.69 2401.94   2
 -13   3   4 9059.13 2845.53   1
  13   3  -4 10156.1 3025.10  14
 -14  -3  -4 5557.32 2165.99   4
  14   3  -4 7674.43 3086.41   7
  14  -3  -4 5609.12 2035.84  12
  14  -3   4 6383.74 2801.96  12
  14   3   4 6659.35 2392.26  14
 -14  -3  -4 6219.25 3505.23  13
 -14   3  -4 6166.12 2092.45  10
 -14   3   4 4960.84 2101.31   1
 -14   3   4 4007.42 1622.35  10
 -14  -3   4 3838.51 1521.85   5
  14   3  -4 5365.15 2128.41  14
 -15   3   4-58.3419 697.064   1
  15   3  -4 3220.31 2276.89   7
  15  -3  -4 523.570 751.713  12
  15  -3   4-676.998 1033.17  12
 -15   3  -4 727.481 963.354  10
 -15  -3   4-1396.70 1628.73   5
 -15   3   4-592.584 95.6206  10
  15   3  -4-550.093 761.291  14
 -15  -3  -4 1046.37 930.780   4
  15   3   4 373.654 474.167  14
 -16   3  -4-10898.3 6063.71  13
 -16  -3  -4-11410.9 5764.75  13
 -16   3   4-59.2479 624.075   1
 -16  -3  -4 744.329 1004.85   4
  16  -3  -4-192.434 505.640  12
  16  -3   4-644.727 1821.12  12
 -16   3  -4 1155.72 1018.75  10
 -16   3   4-194.429 332.877  10
 -16  -3   4 456.266 870.471   5
  16   3  -4 736.525 1129.86  14
  16   3   4-153.804 798.544  14
 -17   3  -4-10354.2 5960.57  13
 -17  -3  -4-8278.27 4673.43  13
 -17  -3  -4 860.918 508.269   4
 -17  -3   4 3016.15 1979.30   5
 -17   3   4-8.50721 765.361   1
  17  -3  -4 351.978 842.991  12
  17   3   4 464.724 660.311  14
 -18  -3   4 1465.89 1634.83   5
   0  -3  -5-19.5291 290.273   7
   0  -3   5 222.522 150.419  12
   0   3  -5 196.219 256.270   7
   0   3   5 792.273 1173.63   2
   0  -3   5 170.166 323.581  11
   0  -3   5-54.1227 438.089   5
   0   3  -5 62.5465 220.471  10
   0  -3  -5 98.6552 138.111   3
  -1  -3   5 2185.46 462.228  12
   1  -3  -5 1640.38 842.804   7
   1  -3  -5 2168.26 886.598  12
  -1  -3  -5 2408.72 834.659   7
   1   3  -5 2531.56 1010.15   7
   1  -3   5 2225.41 710.781  12
  -1   3  -5 2652.45 1003.21   7
   1   3   5 2279.82 1165.54   2
  -1   3   5 2306.94 1271.40   2
   1  -3   5 1685.24 649.155   5
   1   3   5 1220.24 726.108  15
  -1  -3   5 2812.66 1120.57  11
   1  -3   5 2377.38 820.959  11
   1   3  -5 2722.84 1044.94  10
  -1   3  -5 2214.78 961.786  10
   1  -3   5 1167.25 586.682  14
  -1  -3   5 1949.05 920.201   5
  -1  -3  -5 2905.61 883.672   3
  -2  -3  -5 17333.3 1965.22   7
  -2   3   5 14182.4 3413.29   2
   2   3  -5 18325.0 2908.87   7
  -2   3  -5 19346.3 2807.30   7
   2  -3  -5 18956.2 2522.14  12
   2  -3   5 18785.9 2430.36  12
   2   3   5 18595.9 3038.50   2
   2  -3   5 14129.8 1092.28   3
  -2  -3   5 18868.5 2641.73  11
   2  -3   5 19123.1 2416.26  11
  -2  -3  -5 20388.9 2651.49   3
  -2   3  -5 19471.7 2989.42  10
  -2  -3   5 19097.6 3380.11   5
   2  -3   5 19192.6 2351.36   5
   2   3   5 19323.7 3380.29  15
   2  -3   5 10774.1 1607.15  14
  -3  -3  -5 12103.8 1400.10   7
   3   3  -5 11390.8 2340.32   7
  -3   3  -5 11865.2 2260.63   7
   3  -3   5 11785.2 1272.65   3
   3  -3   5 13771.6 2500.24  12
  -3  -3  -5 11617.4 1484.10   4
   3  -3  -5 11380.1 1929.75  12
  -3   3   5 8675.21 2730.22   2
  -3  -3  -5 12599.6 2111.02   3
   3   3  -5 12528.3 2025.94   6
  -3   3  -5 14758.9 2530.10  10
   3   3   5 12563.1 2326.08   2
  -3  -3   5 11029.8 2736.16   5
   3  -3   5 12818.2 1740.55   5
  -3  -3   5 11974.3 2427.64   8
   3   3   5 12820.2 2803.01  15
   3  -3   5 6025.97 1005.25  14
  -4  -3  -5 3729.09 923.489   4
  -4  -3   5 2623.19 1550.22   5
   4  -3  -5 4302.45 1198.67  12
   4   3   5 3691.06 1453.81  15
   4  -3   5 5169.42 1849.02  12
  -4   3  -5 4376.43 1369.73   7
  -4   3   5 3716.42 1988.29   2
   4   3  -5 4122.81 1523.48   7
   4   3  -5 2241.46 386.685   3
   4   3  -5 4058.09 1185.28   6
  -4   3   5 2483.48 478.961   6
  -4   3  -5 4954.38 1539.36  10
  -4  -3   5 2328.64 1170.91   8
   4  -3   5 4204.95 915.494   5
  -4  -3  -5 4031.97 1214.34   3
  -4  -3  -5 4445.96 748.088   7
  -4  -3  -5 8044.49 3672.20  13
   4   3  -5 2995.68 1155.29  14
   4  -3   5 1900.94 367.650  14
   4  -3   5 1228.86 362.753  14
   5  -3  -5 263.068 212.694  13
  -5  -3  -5 2455.54 2927.15  13
  -5  -3  -5 659.190 525.800   4
   5  -3  -5 735.671 666.398  12
   5   3  -5 880.540 902.175   7
  -5  -3   5 294.218 393.270   8
  -5   3   5 673.284 863.383   2
  -5  -3  -5 399.836 205.710   7
  -5   3  -5 237.069 243.220   7
   5   3  -5 595.774 458.339   6
   5   3   5 258.927 313.281  15
  -5   3  -5 1385.22 957.564  10
  -5  -3  -5 449.267 300.538   3
  -5  -3   5 924.607 1261.92   5
   5   3  -5 1201.61 906.384  14
   5  -3   5 1882.72 1382.62  12
   5  -3   5 459.673 384.310   5
  -6   3   5 24386.9 4986.31   2
  -6  -3  -5 25076.3 5937.14  13
   6   3  -5 25764.5 4131.38   7
  -6   3   5 7046.97 1285.57   4
  -6  -3  -5 26562.3 2990.24   4
  -6   3  -5 24911.2 3386.78   7
   6  -3  -5 28378.3 3296.51  12
   6  -3   5 16982.1 3653.39  12
  -6  -3  -5 28959.1 3556.19   3
   6   3  -5 27477.7 3012.18   6
  -6   3  -5 30315.3 3949.55  10
  -6  -3   5 15232.0 3983.34   5
   6   3   5 24695.7 4041.08  15
   6   3  -5 24197.3 3610.32  14
   6  -3   5 19027.2 1482.19  14
  -6  -3   5 20412.5 3038.75   8
   6   3   5 28772.7 4212.27  14
  -7   3  -5 11372.5 3460.70  13
  -7  -3  -5 10206.5 1940.27   4
  -7  -3  -5 6218.04 2901.50  13
   7  -3  -5 10633.6 2025.03  12
   7   3  -5 8334.76 2601.68   7
  -7  -3  -5 10830.8 2265.44   3
   7  -3   5 4726.33 2077.31  12
  -7   3   5 8722.65 2957.84   2
  -7  -3   5 2833.44 1557.67   5
   7   3   5 11015.7 2681.77  15
   7   3  -5 9257.62 1716.88   6
  -7   3  -5 11776.1 2500.88  10
   7   3  -5 9045.07 2311.51  14
  -7   3   5 11865.1 2999.10   9
  -7   3   5 2217.08 517.214   4
   7   3   5 9371.90 2397.45  14
  -7  -3   5 5952.33 1492.44   8
  -8   3  -5 1342.65 1498.91  13
  -8  -3  -5-174.456 2031.67  13
  -8  -3  -5 632.159 438.893   4
   8   3   5 2065.10 1292.32  15
  -8  -3   5-25.2602 549.577   8
   8   3  -5-182.947 691.795   7
   8  -3  -5 955.575 755.674  12
  -8   3   5 1564.13 1400.15   2
   8  -3   5-62.1467 867.888  12
  -8  -3  -5 871.709 730.689   3
   8   3  -5 161.592 175.530   6
  -8   3  -5 369.479 684.057  10
  -8   3   5-966.750 913.594   4
  -8  -3   5-1739.99 1997.78   5
  -8   3   5 318.016 727.399   9
   8   3  -5 479.673 358.870  14
   8   3   5 335.617 484.615  14
  -9   3  -5 865.129 854.176  13
   9  -3   5-618.124 1935.87  12
  -9  -3  -5-1535.33 3442.57  13
  -9  -3  -5 340.789 126.503   4
   9  -3  -5 882.409 558.077  12
  -9   3   5 1479.92 874.687   2
   9   3  -5 694.416 828.442  14
  -9  -3  -5 1075.92 787.624   3
  -9   3  -5 950.914 757.616  10
   9   3   5 1765.41 1456.78  15
  -9  -3   5-836.919 1816.30   5
  -9   3   5-504.465 684.986   9
   9  -3   5 1423.11 853.921  15
   9   3   5 385.307 490.473  14
  -9  -3   5 89.4090 513.422   8
   9   3  -5 334.445 526.286   7
 -10   3  -5-1367.80 2302.73  13
 -10  -3  -5-3139.62 3290.72  13
  10   3  -5 424.060 650.125  14
 -10  -3  -5 1956.85 1073.04   4
 -10  -3   5 433.377 413.523   8
  10   3  -5-817.728 1337.68   7
  10  -3  -5 584.616 315.201  12
 -10   3   5-78.4040 1164.69   2
  10  -3   5-1866.22 2403.33  12
 -10   3   5-198.087 552.196   9
 -10  -3   5-1163.60 1488.78   5
 -10   3  -5 1422.48 972.696  10
  10   3   5 1360.07 1249.64  15
  10  -3   5 603.598 454.154  15
  10   3   5 697.332 388.151  14
  11   3   5 8023.38 2487.59  14
  11   3   5 6911.06 2381.66  15
 -11   3  -5 799.400 1750.49  13
 -11  -3  -5 6235.46 1833.35   4
 -11  -3  -5-125.031 2346.78  13
  11   3  -5 4191.59 1882.05   7
  11  -3   5 5917.45 1689.33  15
 -11  -3   5 2851.26 1944.61   5
  11  -3  -5 6324.41 1749.15  12
  11  -3   5 3939.05 2033.25  12
 -11   3   5 6893.31 2258.10   9
 -11   3  -5 8007.76 2267.32  10
 -11   3   5 6738.17 2493.89   2
  11   3  -5 6265.30 2115.25  14
 -12  -3  -5 9781.12 4244.18  13
 -12   3  -5-2996.25 3874.70  13
 -12  -3  -5 14340.8 3071.15   4
  12  -3  -5 14522.1 2901.19  12
  12   3  -5 10198.3 3419.05   7
 -12   3   5 11527.3 3399.53   2
  12   3   5 17899.3 4030.46  15
 -12   3  -5 16290.5 3359.10  10
  12   3  -5 14160.9 3527.15  14
  12  -3   5 14874.1 4749.44  12
 -12  -3   5 9562.44 2530.11   2
 -12  -3   5 8888.79 3393.26   5
 -12   3   5 14339.6 3300.73   9
  12   3   5 17973.8 3763.33  14
 -13   3   5-647.359 1267.27   1
 -13  -3  -5 682.657 786.913   4
  13   3  -5 1284.64 1465.81   7
  13  -3  -5 673.204 639.328  12
  13  -3   5 2691.02 2709.93  12
 -13   3   5-2004.89 1801.98   2
 -13   3  -5 113.762 625.300  10
 -13  -3   5-683.023 1694.18   5
 -13   3   5-860.077 883.100  10
 -13   3   5 33.6937 556.020   9
  13   3   5 756.954 616.747  15
 -13  -3   5-168.652 1063.97   2
  13   3  -5 1543.42 1376.16  14
  13   3   5 729.116 1020.83  14
 -14  -3   5-320.684 930.093   2
  14   3  -5 1390.71 1586.83   7
 -14   3   5-393.125 832.633   9
  14  -3  -5 532.668 461.918  12
  14  -3   5 1614.58 1618.42  12
 -14  -3  -5 503.304 674.025   4
 -14   3  -5 436.328 771.242  10
  14   3   5-234.753 426.383  14
 -14   3   5-219.563 620.176  10
  14   3   5-497.651 1064.65  15
 -14  -3   5-2136.16 2546.16   5
  14   3  -5 150.487 499.104  14
 -14   3   5 271.619 509.206   1
 -15  -3  -5 2834.57 1514.31   4
  15   3  -5 4952.64 2565.57   7
  15   3  -5 2966.88 1765.03  14
  15  -3  -5 2281.20 1275.21  12
  15  -3   5 4004.79 2517.76  12
 -15   3  -5 2853.86 1690.50  10
 -15  -3   5 439.547 1035.42   5
 -15   3   5 2452.70 1776.94  10
 -15   3   5 1120.05 538.334   9
 -15   3   5 2153.64 1305.55   1
  15   3   5 2952.20 1654.40  14
 -16   3   5 6111.89 2723.36   1
 -16  -3  -5 2331.85 2201.38  13
 -16  -3  -5 7624.49 2692.59   4
  16   3  -5 5570.08 2577.71   7
  16  -3   5 7435.19 3219.31  12
  16   3   5 8259.91 2855.54  14
 -16   3   5 4864.95 2019.21  10
  16  -3  -5 4347.76 2105.98   7
 -16  -3   5 4007.60 1897.00   5
  16   3  -5 7845.65 2989.52  14
  17   3   5 189.498 680.680  14
 -17  -3   5 116.813 817.100   5
   0  -3  -6 59.0109 479.662   7
   0  -3   6 422.872 279.470  12
   0   3  -6 33.7218 340.810   7
   0  -3   6 798.031 771.960  11
   0   3   6-43.6554 944.247   2
   0  -3   6-73.5937 390.586   5
   0  -3  -6-25.3930 248.456   3
   0  -3   6 1805.05 1273.90   8
   1  -3  -6 10701.4 2201.80   7
  -1  -3  -6 9012.58 1691.10   7
  -1  -3  -6 16942.8 3950.52  13
   1   3  -6 9950.75 2195.56   7
  -1   3  -6 9734.46 2114.69   7
  -1  -3   6 6436.45 729.968  12
   1  -3   6 9436.79 1453.36  12
  -1  -3   6 10158.4 1945.80  11
   1  -3   6 10145.5 1866.63  11
   1   3   6 7901.64 2379.37   2
  -1   3   6 5926.38 2198.30   2
  -1  -3  -6 9133.15 1866.77   3
  -1   3  -6 9833.02 2182.46  10
  -1  -3   6 9703.71 2424.22   5
   1  -3   6 9302.71 1935.90   5
  -1  -3   6 9757.23 2473.02   8
   2  -3  -6 599.028 495.133   7
  -2  -3  -6 1343.37 609.926   7
   2   3  -6 733.111 788.689   7
   2  -3   6 1566.43 782.413  12
  -2   3  -6 1213.33 614.944   7
   2   3   6 1661.59 1269.73   2
   2  -3   6 721.280 375.762  11
  -2   3   6 412.630 875.800   2
  -2   3  -6 1419.49 984.238  10
  -2  -3   6 2391.09 1529.68   5
  -2  -3  -6 1148.49 665.047   3
   2   3   6 1260.90 1082.31  15
   2  -3   6 875.695 526.893   5
  -2  -3   6 1858.54 1221.19   8
  -3  -3  -6 18937.2 1987.42   7
  -3  -3  -6 18532.4 4525.03  13
   3   3  -6 18436.9 3208.43   7
  -3   3  -6 18459.8 2879.08   7
   3  -3  -6 19181.6 2581.97  12
  -3  -3  -6 20526.7 2773.41   3
   3  -3   6 19557.1 2523.05  11
  -3   3   6 10287.3 3282.92   2
  -3   3  -6 20773.3 3242.45  10
   3  -3  -6 16071.9 2998.94   7
   3   3   6 18905.2 3303.06   2
  -3  -3   6 15332.1 3630.05   5
   3  -3   6 20068.1 2331.89   5
   3   3   6 17071.1 3542.75  15
   3  -3   6 19154.9 2989.68  12
  -3  -3   6 16729.8 3071.21   8
  -4  -3  -6 4975.64 943.998   7
  -4  -3  -6 4579.72 2756.53  13
   4  -3  -6 3947.64 1578.36   7
   4  -3  -6 5532.80 1395.12  12
   4   3  -6 4806.51 1583.40   7
   4   3   6 4873.84 1682.60   2
   4  -3   6 5330.63 1892.44  12
  -4   3  -6 4670.82 1424.56   7
  -4  -3   6 4004.31 1498.21   8
  -4   3   6 2270.65 1191.75   2
   4  -3   6 5345.27 1283.29  11
  -4   3  -6 4619.03 1547.37  10
   4  -3   6 4822.45 1095.84   5
  -4  -3  -6 5037.03 1457.23   3
  -4  -3   6 3176.44 1893.77   5
   4   3   6 4525.92 1903.60  15
   4  -3   6 3093.52 712.029  14
   5  -3  -6 808.803 541.238  12
   5   3  -6 694.385 204.645   7
  -5  -3  -6 1364.58 434.911   7
   5  -3   6 1691.79 1445.92  12
  -5   3  -6 1048.64 765.469   7
  -5   3   6 526.182 447.293   2
  -5   3  -6 1275.63 844.264  10
  -5  -3  -6 1083.60 594.477   3
  -5  -3  -6-577.583 1529.95  13
   5  -3  -6 564.423 363.770   7
  -5  -3   6 958.962 1125.04   5
  -5  -3  -6 1156.77 661.884   4
   5   3   6 863.473 728.499  15
   5   3   6 1469.87 875.461   2
  -5  -3   6-109.913 700.873   8
   5  -3   6 1352.03 520.449   5
  -6  -3  -6 17340.0 2392.77   4
  -6  -3  -6 7390.33 2887.33  13
  -6   3  -6 17636.8 2942.42   7
   6   3  -6 14897.5 3384.00   7
   6  -3  -6 16621.3 2550.67  12
   6  -3   6 11176.3 3076.21  12
   6  -3  -6 13512.4 3033.25   7
  -6  -3  -6 18012.5 2919.52   3
  -6   3   6 12418.2 3902.19   2
   6   3  -6 15186.5 2315.78   6
  -6   3  -6 19558.4 3304.67  10
   6   3   6 18963.7 3660.46  14
  -6  -3   6 3733.57 1948.67   5
   6   3   6 19234.3 3765.27  15
  -6  -3   6 12168.7 2507.29   8
   7   3   6 3661.58 1605.75  14
  -7  -3  -6-1761.81 3555.79  13
  -7  -3  -6 3961.36 1175.16   4
   7   3  -6 2538.16 1290.02   7
   7  -3  -6 4308.04 1327.50  12
  -7  -3   6 1923.72 440.906   8
   7  -3   6 649.162 393.994  12
  -7   3   6 2783.99 1730.51   2
   7   3  -6 3828.72 1118.64   6
  -7  -3  -6 4223.11 1445.97   3
  -7   3  -6 5303.26 1668.08  10
   7   3   6 2813.26 1201.89  15
  -7  -3   6-297.437 1566.06   5
   7  -3  -6 3278.52 1244.51   7
  -8   3  -6 4552.11 2465.37  13
  -8  -3  -6-2090.77 3280.78  13
  -8  -3  -6 2674.18 1167.29   4
   8  -3  -6 305.244 315.388   7
   8  -3  -6 2688.03 1015.78  12
   8  -3   6-1840.54 2399.19  12
  -8   3   6 833.402 737.916   2
   8   3  -6 2581.29 929.244   6
  -8  -3  -6 2768.51 1239.78   3
  -8   3  -6 3682.08 1628.62  10
  -8  -3   6-2688.53 2563.91   5
   8   3  -6 1575.18 663.824   7
  -8   3   6 2986.02 1625.12   9
   8   3  -6 2113.80 1126.14  14
  -8  -3   6 2161.94 1134.80   8
   8   3   6 2819.69 1304.84  15
   8   3   6 2105.27 1290.23  14
   9  -3   6 583.698 859.125  15
  -9   3  -6-440.620 1339.84  13
  -9  -3  -6-1616.53 2829.70  13
   9   3  -6-911.664 1327.28   7
  -9  -3  -6-113.190 245.159   4
   9   3   6 759.725 843.482  15
  -9   3   6-1726.52 1560.02   2
  -9  -3  -6-66.6075 292.418   3
   9   3  -6 128.686 79.2980   6
  -9   3  -6-78.9274 503.012  10
   9  -3  -6 555.828 712.047  12
   9   3   6-3.77488 477.425  14
  -9  -3   6-1359.69 1727.82   5
  -9   3   6-1039.11 1132.48   9
   9  -3  -6-168.801 642.963   7
  -9  -3   6-960.881 1120.83   8
   9   3  -6 558.736 647.475  14
 -10   3  -6-573.484 2104.75  13
 -10  -3  -6 2269.42 1109.80   4
  10  -3  -6 493.546 622.844   7
  10   3  -6 178.205 770.985   7
  10  -3  -6 1946.57 946.582  12
 -10   3   6 110.491 651.894   2
  10  -3   6-2850.15 2764.73  12
 -10  -3  -6 1393.45 1578.95  13
  10   3  -6 1351.07 685.508  14
  10  -3   6 1598.69 1105.23  15
 -10  -3   6 1906.98 2107.32   5
  10   3   6 1639.21 1323.41  15
 -10   3  -6 3198.04 1578.55  10
 -10   3   6 1792.34 1126.12   9
 -10  -3   6 1256.33 1096.97   8
  10   3   6 1910.82 1270.03  14
 -11   3   6 2062.81 1275.50   9
 -11   3  -6-2605.84 3083.63  13
 -11  -3  -6 6089.19 3889.58  13
  11   3  -6 1754.87 1078.32  14
 -11  -3  -6 1841.03 1020.67   4
  11   3  -6 1578.14 922.877   7
 -11  -3   6 2389.09 1371.78   8
  11  -3  -6 4420.76 1585.77  12
 -11   3   6 715.347 1344.17   2
  11  -3   6 4402.64 2956.68  12
 -11  -3   6 803.912 1425.30   5
 -11   3  -6 3801.39 1535.71  10
  11  -3   6 1926.26 867.756  15
  11   3   6 4512.03 2012.93  15
  11   3   6 2545.35 1406.09  14
  11  -3  -6 605.670 306.026   7
 -11  -3   6-305.490 1416.28   2
  12   3   6 7227.80 2762.75  15
 -12  -3  -6 6199.85 2397.76  13
 -12  -3  -6 5198.53 1777.13   4
  12   3  -6 3351.01 1878.80   7
 -12   3  -6-5590.44 4475.32  13
  12  -3  -6 6206.27 1891.70  12
 -12   3   6 3647.36 1797.87   2
  12  -3   6 12332.6 4985.49  12
 -12  -3   6 2463.23 2292.83   5
 -12   3  -6 6330.86 2123.17  10
  12  -3  -6 2904.37 1662.16   7
 -12   3   6 5037.47 2406.26   9
  12   3   6 6131.82 2407.36  14
  12   3  -6 5179.80 2157.54  14
 -12  -3   6 2675.98 923.138   2
 -13   3  -6-10625.7 6053.92  13
 -13  -3  -6-11666.6 6079.71  13
 -13  -3  -6 510.281 628.016   4
  13   3  -6-963.770 1143.36   7
 -13   3   6-2390.16 2195.46   2
 -13   3   6 852.908 707.396   9
 -13  -3   6-12.4614 1400.75   5
 -13   3  -6 395.582 725.048  10
  13   3   6 443.388 400.022  14
  13   3   6-373.022 685.163  15
 -13  -3   6-241.156 778.198   2
  13   3  -6 36.3990 473.561  14
  13  -3   6 3904.33 3503.68  12
  13  -3  -6-331.522 291.678   7
 -14   3   6 1454.41 603.544   1
  14  -3  -6 2194.15 1007.53   7
 -14  -3  -6 2311.03 1345.45   4
  14   3  -6-12.3712 944.310   7
  14  -3   6 3700.93 2910.25  12
  14   3   6 2456.10 1666.41  14
 -14   3   6-1720.75 1553.68   2
 -14  -3   6 1488.78 1066.45   2
 -14   3  -6 3377.57 1497.17  10
  14   3   6 1927.08 1353.74  15
 -14   3   6 235.429 893.582  10
 -14  -3   6-653.123 981.946   5
 -14   3   6 2414.28 1439.84   9
  14   3  -6 1842.71 1467.37  14
 -15   3  -6-5473.23 5372.68  13
 -15  -3  -6 756.381 2334.90  13
  15  -3  -6 4661.66 2218.23   7
 -15  -3  -6 6777.17 2253.66   4
  15   3  -6 6232.94 2792.59   7
  15  -3   6 10130.6 4190.86  12
 -15   3   6 6083.53 2076.09   9
 -15   3  -6 5312.26 2233.43  10
 -15   3   6 2949.09 1627.21  10
 -15  -3   6 2284.07 1433.54   5
 -15   3   6 4805.37 2220.12   1
  15   3  -6 5217.38 2251.96  14
  15   3   6 9571.41 3022.23  14
  15   3   6 7254.93 2890.07  15
 -16  -3  -6-39.6094 247.384   4
  16   3  -6-2054.09 1909.83   7
  16   3   6 626.658 894.461  14
 -16  -3   6-1846.60 2235.67   5
   0  -3  -7 78858.4 5578.79   7
   0   3   7 46673.4 7006.23   2
   0  -3  -7 42358.2 5803.74  13
   0   3  -7 75306.1 6419.28   7
   0  -3   7 81560.3 7250.49   8
   0  -3   7 85100.7 5770.68  11
   0  -3  -7 82889.7 5860.68   3
   0  -3   7 82364.3 6775.74   5
  -1  -3  -7 710.024 643.526  13
   1  -3  -7 402.037 707.467  13
   1  -3  -7 566.283 665.221   7
  -1  -3  -7 178.362 285.736   7
  -1  -3   7 828.022 1010.30   8
   1   3  -7 189.341 106.202   7
   1  -3   7 726.076 446.754  12
  -1   3  -7 585.030 542.680   7
   1  -3   7 794.425 784.304  11
   1   3   7 546.112 218.544   2
  -1   3   7-2167.87 2601.36   2
  -1  -3   7 239.640 571.151   5
   1  -3  -7-200.129 339.516   3
  -1  -3  -7 200.954 413.268   3
   1  -3   7-137.561 448.079   5
   1  -3   7 2423.11 1746.03   8
   2  -3  -7 1334.43 999.009  13
  -2  -3  -7 6.12814 1164.18  13
   2  -3   7 1526.27 736.924   5
   2  -3  -7 2210.24 1135.28   7
  -2  -3  -7 1438.10 604.213   7
   2   3  -7 1367.79 831.558   7
   2  -3   7 1590.30 853.659  12
  -2   3  -7 1488.08 764.354   7
   2   3   7 1088.60 963.502   2
   2  -3   7 1716.02 943.515  11
  -2   3   7-1415.64 2107.09   2
  -2  -3   7 1877.03 1161.33   8
  -2  -3  -7 1619.70 769.439   3
  -2  -3   7 1480.38 1098.59   5
   2   3   7 2401.30 1673.01  15
   2  -3   7 3145.63 1621.67   8
  -3  -3  -7-547.572 1885.91  13
   3  -3  -7 3072.14 1508.95   7
  -3  -3  -7 2604.00 832.716   7
   3   3  -7 2924.11 1358.79   7
  -3  -3   7 1743.23 1042.63   8
  -3   3  -7 2903.17 1216.06   7
   3   3   7 3040.85 1604.96   2
  -3  -3   7 3109.02 1679.13   5
   3  -3   7 3247.77 1421.61  12
   3  -3   7 2945.15 1099.94  11
  -3   3  -7 3242.09 1572.40  10
  -3   3   7-905.699 2166.56   2
  -3  -3  -7 2363.36 987.104   3
   3  -3   7 3705.87 1694.28   8
   3   3   7 3185.32 1779.27  15
   3  -3   7 3102.61 1068.37   5
   4  -3  -7 14938.3 3000.05   7
  -4  -3  -7 16531.4 1945.93   7
   4   3  -7 15574.7 3245.07   7
  -4   3  -7 15283.6 2763.14   7
  -4  -3  -7 3840.80 1401.10  13
   4  -3   7 14431.4 3043.26  12
  -4  -3   7 9243.64 3161.88   5
  -4  -3  -7 14250.2 2405.47   3
   4  -3   7 17525.9 2484.54  11
  -4   3  -7 17957.2 3244.09  10
  -4   3   7 4927.35 2265.95   2
   4  -3   7 16719.6 2090.88   5
   4   3   7 14596.7 3516.57  15
  -4  -3   7 13868.4 2853.32   8
   4  -3  -7 17303.4 2560.49  12
   4   3   7 16336.4 3114.90   2
  -5  -3  -7-1905.83 2889.68  13
   5  -3  -7 512.190 730.382   7
   5  -3  -7 1087.16 489.990  12
   5   3  -7 529.330 492.086   7
   5   3   7 1397.20 975.890   2
   5  -3   7 1598.20 1295.53  12
  -5   3  -7 1985.75 991.182   7
   5  -3   7 575.523 487.544  11
  -5   3   7-55.5116 1631.00   2
  -5  -3   7-577.012 1410.45   5
  -5   3  -7 1717.04 855.091  10
  -5  -3  -7 1326.24 843.782   3
   5   3   7 1539.26 1203.85  15
  -5  -3   7-68.0506 1023.77   8
  -6  -3  -7-1250.28 2528.62  13
   6  -3  -7 247.712 321.880   7
   6  -3  -7 703.360 402.554  12
   6   3  -7 191.253 647.999   7
   6  -3   7-398.887 840.043  12
  -6   3  -7 603.114 755.462   7
  -6   3   7-1115.03 1578.88   2
  -6  -3   7-1508.29 1643.46   8
  -6   3  -7 434.461 742.776  10
  -6  -3  -7 770.733 441.248   3
   6   3   7 311.540 192.863  15
  -6  -3   7-1905.45 2413.68   5
  -7  -3  -7 131.296 1644.42  13
   7  -3  -7 1944.89 1275.00   7
   7  -3  -7 2573.88 990.608  12
   7   3  -7 178.595 887.157   7
   7  -3   7-546.064 1671.77  12
  -7   3  -7 2519.48 1230.46   7
  -7   3   7 1345.49 667.534   2
  -7  -3  -7 1919.68 1065.25   3
  -7   3  -7 1959.28 955.466  10
  -7  -3   7-2906.33 3112.04   5
   7   3   7 2433.96 1170.99  15
  -7  -3   7 1267.03 655.703   8
   7   3   7 2023.83 1379.87  14
  -8   3  -7 206.373 1072.07  13
  -8  -3  -7 1012.49 1664.20  13
   8  -3  -7 519.992 451.186   7
   8  -3  -7 726.663 409.536  12
   8   3  -7-723.691 1467.69   7
   8  -3   7-2183.09 2329.00  12
  -8   3   7-1490.91 1742.84   2
  -8  -3  -7 729.606 274.661   3
  -8   3  -7 1058.82 525.564  10
   8   3   7-1.21019 356.414  14
  -8  -3   7-2257.48 2495.39   5
  -8  -3   7 326.712 353.557   8
   8   3   7 261.832 318.850  15
  -9   3  -7-1392.83 2181.10  13
  -9  -3  -7 2951.45 2849.28  13
   9  -3  -7 126.860 169.769   7
  -9  -3  -7 88.5001 304.780   4
   9   3  -7-1362.01 1582.43   7
   9  -3  -7 373.803 420.277  12
   9  -3   7-2441.77 2485.85  12
  -9   3   7-879.768 1694.83   2
  -9  -3  -7 772.063 813.596   3
  -9   3   7-305.669 717.405   9
  -9   3  -7-290.652 573.782  10
  -9  -3   7 1362.54 1645.37   5
   9   3   7 360.186 712.691  15
   9  -3   7 484.526 557.499  15
  -9  -3   7-232.102 867.231   8
   9   3   7 78.9185 513.811  14
 -10   3   7 3583.84 1758.85   9
 -10   3  -7 323.724 1750.86  13
 -10  -3  -7 4224.24 741.384  13
  10  -3  -7 3283.97 1456.12   7
 -10  -3  -7 4401.38 1387.53   4
 -10   3   7 3110.36 1764.37   2
  10   3  -7 2348.48 1200.60   7
  10  -3   7 2643.60 1966.36  12
 -10   3  -7 4605.81 1771.93  10
  10   3   7 5397.58 2273.70  15
 -10  -3   7 6550.97 3837.82   5
  10  -3   7 4713.58 1895.25  15
 -10  -3   7 4487.85 1816.90   8
  10   3   7 4722.93 2043.23  14
 -11   3  -7-2485.84 3288.28  13
  11  -3  -7 1012.80 950.827   7
  11   3  -7-789.005 1269.00   7
 -11   3   7-936.717 1228.60   2
  11  -3   7 6660.30 4106.57  12
 -11   3  -7-91.3272 612.288  10
 -11  -3   7 1884.49 1987.60   5
 -11  -3  -7 1045.78 618.100   4
 -11   3   7-498.430 860.271   9
  11  -3   7 2408.16 1299.83  15
 -11  -3  -7-6246.08 5362.06  13
 -11  -3   7-671.985 1585.64   2
  11   3   7 928.269 554.337  14
  11   3   7 1839.71 1188.41  15
  12   3   7-625.460 1045.34  15
 -12   3  -7-6877.67 4227.45  13
 -12  -3  -7-9393.13 5004.82  13
  12  -3  -7-299.709 1370.70   7
 -12  -3  -7-567.835 833.164   4
  12   3  -7-2555.60 2134.64   7
 -12   3   7-1146.08 1125.36   9
  12  -3   7 8162.23 4617.75  12
 -12   3  -7-545.578 685.291  10
  12   3   7 872.970 1056.77  14
 -12   3   7-2798.64 1950.68   2
 -12  -3   7-291.826 1072.46   5
 -12  -3   7-911.955 1597.42   2
  13  -3  -7-369.076 527.384   7
  13   3  -7-1193.34 1579.43   7
 -13   3   7-924.607 1764.75   2
  13  -3   7 1496.00 1680.77  12
 -13  -3   7 182.423 823.044   5
  13   3   7 343.405 177.504  14
 -13   3  -7-808.889 353.824  10
  13   3   7 514.405 723.705  15
 -13   3   7-289.408 164.307   9
 -13  -3   7-823.596 929.574   2
 -13  -3  -7-701.693 837.694   4
 -14  -3  -7-2457.75 3092.13  13
  14  -3  -7 1183.51 1002.92   7
 -14  -3  -7 582.821 568.071   4
  14   3  -7-1127.41 1804.26   7
 -14   3   7-1029.91 1932.97   2
  14  -3   7 2776.74 2322.02  12
 -14  -3   7 160.284 980.348   5
 -14   3  -7 1070.44 942.935  10
 -14   3   7 235.884 448.618   9
  14   3   7 1945.37 1720.20  15
 -14  -3   7 1615.12 875.790   2
  14   3   7 1993.65 1438.70  14
  15   3   7 1124.54 1069.36  14
  15   3  -7-287.669 1637.90   7
 -15  -3  -7 261.149 585.032   4
  15  -3   7-591.702 249.891  12
 -15   3  -7 59.7525 916.224  10
 -15  -3   7 1450.71 1431.00   2
 -15   3   7 695.797 335.090  10
 -15   3   7 2345.13 1514.82   9
 -15   3   7-1109.18 1900.61   2
   0  -3  -8-549.327 543.871  13
   0  -3  -8 430.187 616.976   7
   0   3  -8 521.530 647.571   7
   0  -3  -8 159.508 393.403   3
   0  -3   8-16.6057 170.138   5
   0  -3   8 824.477 883.368   8
  -1  -3   8 1901.46 1310.41   5
  -1  -3  -8 65.6168 960.789  13
   1  -3  -8 1489.00 992.129   7
  -1  -3  -8 1836.76 856.305   7
   1   3  -8 1925.10 1128.11   7
  -1   3  -8 1475.22 895.088   7
   1  -3   8 1968.78 1004.26  11
   1   3   8-1780.60 2289.73   2
  -1   3   8-2734.92 3299.94   2
   1  -3  -8 1603.57 772.336   3
   1  -3   8 856.525 614.483   5
  -1  -3   8 986.544 930.873   8
   1  -3   8 1765.77 1246.26   8
  -1  -3  -8 2031.95 1121.45   3
  -2  -3  -8-664.953 1242.19  13
   2   3   8 634.119 747.504  15
   2  -3  -8 353.723 726.286   7
  -2  -3  -8 261.534 99.1399   7
   2   3  -8 520.013 690.888   7
  -2   3  -8 406.727 444.055   7
  -2  -3   8 260.623 695.019   5
   2  -3   8 368.649 444.878  11
   2   3   8-647.896 1160.04   2
   2  -3   8 1430.70 1091.46   8
  -2  -3   8-571.810 803.080   8
  -2  -3  -8 135.872 373.142   3
   2  -3   8 767.899 446.576   5
   2  -3  -8 133.141 155.181   3
  -3  -3  -8-628.808 1610.26  13
   3  -3   8 4305.81 1950.59   8
   3  -3  -8 2045.44 1303.91   7
  -3  -3  -8 1629.21 776.587   7
   3   3  -8 869.756 472.816   7
  -3   3  -8 2150.24 1076.19   7
   3   3   8 1338.38 1067.33   2
   3  -3   8 2029.08 1013.42  11
  -3   3   8-1840.74 2921.21   2
  -3  -3  -8 1913.35 936.923   3
  -3  -3   8 1077.76 895.577   5
   3   3   8 3242.29 2069.95  15
   3  -3   8 2258.71 995.839   5
  -3  -3   8 1609.32 377.630   8
  -4  -3  -8-163.715 970.337  13
   4  -3  -8 1122.30 1069.89   7
   4  -3   8 407.085 597.675  12
  -4   3  -8-53.8709 486.860   7
   4   3   8 421.545 913.786   2
   4  -3   8 617.163 609.965  11
  -4   3   8-825.618 1524.98   2
  -4  -3   8-974.854 1553.66   5
  -4  -3  -8-324.494 573.207   3
   4   3   8 201.106 1004.76  15
   4   3  -8 388.725 539.625   7
  -4  -3   8-3888.11 1728.53   8
   4  -3   8 1905.43 1519.09   8
  -5  -3  -8 824.504 1209.50  13
   5  -3  -8 1388.88 1119.33   7
  -5  -3   8-1441.83 1657.17   8
   5   3  -8 66.2963 654.214   7
   5   3   8 1447.04 926.705   2
   5  -3   8 1018.27 1035.51  12
  -5   3  -8 1180.04 902.718   7
   5  -3   8 1457.88 787.674  11
  -5   3   8-11.5260 321.236   2
  -5  -3  -8 607.447 350.477   3
  -5  -3   8-903.867 1752.08   5
   5   3   8 126.167 301.474  15
   5  -3   8 2699.71 1472.57   8
  -6  -3  -8 8433.07 2918.28  13
  -6   3  -8 11532.5 2580.14   7
   6  -3  -8 12027.1 2242.85  12
   6  -3  -8 11176.8 2965.67   7
   6   3  -8 9878.01 2860.71   7
  -6  -3  -8 11624.8 2604.90   3
   6  -3   8 8200.89 2664.17  12
   6  -3   8 11489.1 2096.32  11
   6   3   8 13180.4 3649.15  15
  -6   3   8 9573.24 4428.39   2
  -6   3  -8 13521.2 3143.25  10
  -6  -3   8 1604.31 1118.70   5
   6  -3   8 15453.7 3548.97   8
  -6  -3   8 9370.71 2889.89   8
   7   3   8 217.053 398.832  14
  -7  -3  -8-2961.37 2958.78  13
   7  -3  -8 558.820 954.059   7
   7   3  -8-1595.24 1733.68   7
   7  -3   8-1427.76 1750.62  12
  -7   3  -8 1074.45 780.551   7
  -7   3   8 861.024 1165.18   2
   7  -3   8-106.459 597.540  11
  -7   3  -8 471.348 840.666  10
  -7  -3  -8 1024.96 557.404   3
  -7  -3   8-1227.65 1550.49   5
   7   3   8 928.251 1040.25  15
  -7  -3   8-203.586 936.596   8
   7  -3   8 1697.48 1269.59   8
  -8  -3  -8 5590.70 1301.59  13
   8  -3  -8 12452.1 3281.20   7
   8   3  -8 9629.73 3139.95   7
  -8  -3  -8 15161.3 3176.01   3
   8  -3   8 8996.61 2952.58  12
  -8   3   8 12982.5 4396.22   2
  -8   3  -8 16508.8 3651.18  10
  -8  -3   8 10317.3 4577.71   5
   8   3   8 14272.4 3869.43  15
   8  -3   8 18717.1 3715.03   8
   8   3   8 13062.6 3550.83  14
  -8  -3   8 10754.9 3341.16   8
   9  -3   8 2058.32 1192.17  12
  -9  -3  -8-1608.00 3300.28  13
   9  -3  -8 3684.64 1942.56   7
   9   3  -8-80.3059 1324.39   7
  -9   3   8 3920.60 2270.86   2
  -9  -3  -8 4213.41 1585.81   3
  -9   3  -8 4029.95 1769.64  10
  -9  -3   8 10427.6 5044.75   5
   9   3   8 1650.05 1124.56  15
   9  -3   8 5034.49 2022.09  15
  -9  -3   8 2801.01 1512.81   8
   9  -3   8 7019.68 2403.25   8
   9   3   8 3121.31 1691.12  14
 -10   3  -8 1147.13 2043.17  13
 -10  -3  -8-2050.45 3769.17  13
  10  -3  -8 2571.11 1589.74   7
 -10   3   8 4551.20 2325.80   9
  10   3  -8 170.108 1144.03   7
 -10  -3   8 521.248 1235.74   2
  10  -3   8 6545.80 2266.21   8
  10  -3   8 6200.83 3244.49  12
  10   3   8 3951.56 2197.82  15
 -10   3   8 3040.51 2132.53   2
 -10   3  -8 5000.90 2066.99  10
 -10  -3   8 10424.6 4828.28   5
  10  -3   8 4989.17 2063.19  15
 -10  -3   8 5421.75 2305.16   8
  10   3   8 5674.41 2530.02  14
 -11   3  -8-3950.64 3111.37  13
 -11  -3  -8-4681.19 3663.36  13
  11  -3  -8 198.515 1066.75   7
  11   3  -8-1823.15 2103.32   7
 -11   3   8-353.057 1073.92   9
  11  -3   8 4325.38 3518.31  12
 -11   3   8-762.880 995.761   2
 -11  -3   8 3881.48 2996.66   5
 -11   3  -8 263.666 897.359  10
  11   3   8 675.374 1276.39  15
  11  -3   8 275.202 133.321  15
 -11  -3   8-2284.47 2156.52   2
  11  -3   8 1598.29 1643.60   8
  11   3   8 354.378 110.225  14
 -12   3  -8 1614.10 2699.03  13
 -12  -3  -8 7471.27 3087.97  13
  12   3  -8 6915.15 2869.22   7
  12  -3  -8 9626.22 3189.83   7
 -12   3   8 5899.64 2922.16   2
  12  -3   8 18376.2 5870.27  12
 -12   3  -8 12413.8 3277.44  10
 -12  -3   8 6537.19 3557.59   5
  12   3   8 12189.7 3749.60  15
 -12   3   8 11729.0 3566.93   9
 -12  -3   8 7800.56 2806.61   2
  12   3   8 12594.5 3559.48  14
 -13  -3  -8-857.832 2183.26  13
  13  -3  -8 873.739 1273.10   7
  13   3  -8-2098.74 2530.80   7
  13   3   8 957.933 1059.48  14
 -13   3   8 479.988 1476.58   2
  13  -3   8 2827.32 3229.85  12
 -13   3  -8 1203.40 861.955  10
  13   3   8 956.264 1306.45  15
 -13  -3   8-2318.95 2327.46   5
 -13  -3   8 311.645 168.969   2
 -13   3   8 275.915 839.938   9
 -14   3   8-305.600 1239.27   9
  14  -3   8-214.146 1391.29  12
 -14   3  -8-1017.80 800.611  10
 -14  -3   8 1309.42 1140.72   2
  14   3   8 3.02099 199.137  14
 -15   3  -8 961.987 523.108  10
 -15  -3   8 548.394 1067.43   2
 -15   3   8 577.340 1138.61   9
   0  -3  -9 5433.74 1676.11   7
   0   3  -9 6681.39 2187.70   7
   0   3   9 349.880 2156.51   2
   0  -3  -9 6935.35 1849.47   3
   0  -3   9 5967.50 2080.87   5
   0  -3   9 5981.30 2047.61   8
   1  -3  -9 2656.99 1361.98   7
  -1  -3  -9 1451.00 716.436   7
   1   3  -9 1844.30 1345.42   7
  -1   3  -9 1963.81 1035.67   7
   1  -3   9 677.803 685.579   8
  -1  -3   9 1321.94 1088.51   5
   1   3   9-921.337 2173.18   2
   1  -3   9 1755.81 701.436   5
  -1  -3  -9 2562.86 1190.56   3
   1  -3  -9 2202.87 969.880   3
  -1  -3   9 778.147 734.927   8
  -2  -3  -9 8362.61 1929.22   7
   2  -3  -9 7721.76 2319.62   7
   2   3  -9 6672.56 2273.25   7
  -2   3  -9 9117.55 2443.90   7
  -2  -3  -9 8412.77 2065.38   3
   2   3   9 6710.71 2704.94   2
   2  -3  -9 7742.37 1982.22   3
  -2   3   9-2294.90 3239.68   2
  -2  -3   9 6038.58 2300.59   5
   2   3   9 8525.19 3376.76  15
   2  -3   9 9412.36 2873.67   8
  -2  -3   9 3640.43 1846.87   8
  -3  -3  -9-3927.51 2985.46  13
   3  -3  -9 641.104 815.787   7
   3   3  -9 1010.73 972.573   7
  -3   3  -9 125.377 509.743   7
   3  -3   9 568.341 702.006  11
   3   3   9-517.469 982.759   2
  -3   3   9-929.221 1253.14   2
  -3  -3  -9-57.2428 388.540   3
  -3  -3   9-1524.01 1638.19   5
   3   3   9 450.999 1610.40  15
   3  -3  -9-31.1159 303.092   3
  -3  -3   9-2194.19 2056.09   8
   3  -3   9 91.2656 421.540   8
  -4  -3   9-2147.49 2368.16   5
   4  -3  -9 1113.47 962.131   7
   4   3  -9 605.950 406.615   7
  -4   3  -9 54.5063 267.365   7
   4   3   9-95.3222 984.805   2
  -4  -3  -9-3597.49 3195.16  13
  -4   3   9 2539.14 3149.35   2
  -4  -3  -9 1024.23 800.775   3
   4   3   9 730.539 1278.37  15
   4  -3   9 1415.33 928.394   8
  -4  -3   9-3146.64 2178.00   8
  -5  -3  -9-4396.03 3285.85  13
   5  -3  -9 1648.63 1374.43   7
   5   3  -9 673.696 418.938   7
  -5   3  -9 1397.04 958.806   7
  -5   3   9 4614.96 3679.09   2
  -5  -3   9-2135.71 2232.05   5
  -5  -3  -9 820.904 743.179   3
   5   3   9 3057.80 2043.66  15
  -5  -3   9 417.972 169.206   8
   5  -3   9 1446.09 1206.05   8
   6  -3  -9 14797.5 3621.83   7
  -6  -3  -9 4531.69 1468.94  13
  -6   3  -9 13012.0 2920.37   7
   6   3  -9 12545.2 3527.46   7
  -6  -3  -9 14632.6 2966.05   3
  -6   3   9 10593.3 4780.52   2
  -6  -3   9 5968.22 3009.20   5
  -6  -3   9 9814.30 3137.72   8
   6   3   9 13872.0 3948.82  15
   6  -3   9 17644.4 3797.98   8
   7   3   9 3697.76 2034.79  14
  -7  -3  -9 1488.39 1597.48  13
   7  -3  -9 5959.45 2383.32   7
   7   3  -9 1807.10 1290.60   7
  -7   3  -9 4798.71 1566.89   7
  -7   3   9 4299.31 3432.95   2
  -7  -3  -9 4854.36 1731.93   3
  -7  -3   9 4609.83 3036.51   5
   7   3   9 5201.30 2496.85  15
  -7  -3   9 2228.96 1417.70   8
   7  -3   9 7486.56 2378.70   8
   8   3   9 423.856 371.817  14
  -8  -3  -9-3088.05 2919.22  13
   8  -3  -9 1390.87 1431.34   7
   8   3  -9-3453.55 2572.42   7
  -8   3  -9-103.896 430.066   7
  -8   3   9 2384.74 2967.85   2
  -8  -3  -9 391.307 675.526   3
  -8  -3   9-762.131 1097.84   8
   8  -3   9 56.1205 622.117   8
   8   3   9 460.158 208.644  15
  -9  -3  -9-2039.99 2587.82  13
   9  -3  -9 982.188 878.209   7
  -9  -3  -9 464.657 909.781   3
   9   3  -9-3008.67 2567.38   7
   9  -3   9-8.45595 837.156  12
  -9   3   9 278.238 1349.50   2
   9   3   9-117.864 692.956  14
   9   3   9-554.663 1415.67  15
  -9  -3   9-80.3259 289.636   8
   9  -3   9-954.241 752.436   8
   9  -3   9-106.824 687.745  15
  -9  -3   9-1667.06 2139.41   2
 -10  -3   9 5046.93 3289.15   5
 -10  -3  -9 943.562 1744.57  13
  10  -3  -9 1660.11 1468.57   7
  10   3  -9-2659.72 2818.02   7
  10  -3   9 2246.52 1430.78  12
 -10   3   9 625.119 952.910   2
  10  -3   9 1175.64 1258.57  15
  10   3   9 757.602 1047.75  14
  10   3   9-631.656 391.175  15
 -10  -3   9 395.276 232.540   8
 -10  -3   9-2111.72 2239.62   2
  10  -3   9 2236.27 1702.10   8
 -11  -3   9 1534.93 688.181   2
 -11  -3  -9 4129.45 2562.94  13
  11  -3  -9 4188.32 2304.49   7
  11   3  -9-335.238 1953.24   7
  11  -3   9 6774.84 3560.11  12
 -11   3   9 3963.02 2495.83   2
 -11  -3   9 845.488 489.872   5
  11   3   9 6866.71 3163.06  15
 -11   3   9 7194.43 3121.02   9
  11  -3   9 4456.93 2091.18  15
  11   3   9 5091.35 2349.37  14
 -12  -3  -9 8506.81 3994.40  13
 -12   3   9 6359.26 3026.73   9
  12   3  -9-23.0095 1441.49   7
  12  -3   9 9934.96 3907.72  12
 -12  -3   9 3665.72 1983.62   2
  12   3   9 5690.13 2462.08  14
  13  -3   9-656.722 383.912  12
  13   3   9-212.250 199.389  14
   0  -3 -10-288.200 602.499   7
   0   3 -10-277.000 547.933   7
   0   3  10-677.668 1036.65   2
   0  -3 -10 286.635 504.229   3
   0  -3  10-1809.81 1697.94   8
   0  -3  10-779.693 999.293   5
   1  -3  10-51.9952 1169.50   8
   1  -3 -10 1074.32 370.131   7
   1   3 -10 1346.88 1172.61   7
  -1   3 -10 2059.17 1341.28   7
   1   3  10 1325.76 1268.12   2
  -1   3  10 1980.37 2363.10   2
  -1  -3  10-239.094 1262.47   8
  -1  -3 -10 1594.84 909.247   3
   1  -3 -10 1532.18 954.049   3
  -1  -3  10 825.252 654.314   5
   2  -3 -10 3936.36 1715.82   7
  -2   3 -10 3712.51 1737.49   7
   2   3  10 5869.07 2818.86   2
  -2   3  10 8474.64 4675.30   2
  -2  -3 -10 3880.94 1337.12   3
  -2  -3  10 3408.89 1745.95   5
   2  -3 -10 3964.33 1568.96   3
   2   3  10 5516.89 2951.11  15
   2   3 -10 3284.85 1507.44   7
  -2  -3  10 1775.68 1107.44   8
   2  -3  10 3937.05 1646.89   8
   3  -3 -10 136.523 608.329   7
   3   3 -10 10.0320 141.810   7
  -3   3 -10-1.50573 381.245   7
   3   3  10-903.825 714.680   2
  -3  -3 -10-261.337 373.706   3
  -3  -3  10-1347.33 1527.77   5
  -3  -3  10-730.901 1282.71   8
   3   3  10 1138.37 1564.28  15
   3  -3 -10-259.472 506.191   3
   3  -3  10-1413.04 1382.69   8
  -4   3 -10 4925.59 1853.29   7
   4   3 -10 4311.09 1977.49   7
  -4  -3  10 6410.34 2663.96   8
  -4  -3 -10 5723.46 1785.12   3
   4  -3 -10 4472.47 1618.30   3
  -4  -3  10 2301.22 1471.37   5
   4  -3 -10 4868.75 2050.26   7
   4   3  10 7043.78 3313.89  15
   4  -3  10 5997.87 2227.58   8
   5   3 -10 2516.93 1873.19   7
   5  -3 -10 1547.66 1227.41   7
  -5   3 -10 2738.79 1429.38   7
   5  -3  10 2637.18 1527.10   8
  -5  -3 -10 2655.75 1244.15   3
  -5  -3  10 1534.41 1224.93   5
   5   3  10 2028.06 1982.52  15
  -5  -3  10 1053.60 977.256   8
   5  -3 -10 2627.84 1235.84   3
   6  -3 -10 7422.35 2741.44   7
   6   3 -10 7365.88 2916.47   7
  -6  -3 -10 7385.19 2612.13  13
  -6   3 -10 8569.18 2230.38   7
  -6   3  10 12845.1 5748.70   2
  -6  -3 -10 9424.03 2558.49   3
   6   3  10 9707.61 3538.56  15
  -6  -3  10 3122.82 1991.70   5
  -6  -3  10 6655.68 2834.53   8
   6  -3  10 9789.52 2939.10   8
   7   3  10 286.991 793.733  14
  -7  -3 -10-765.437 1240.40  13
   7   3 -10 1205.66 1433.45   7
  -7   3 -10 119.396 248.871   7
  -7   3  10 4386.25 3613.59   2
  -7  -3 -10 152.219 779.565   3
  -7  -3  10 422.982 832.604   8
  -7  -3  10 1853.01 2180.95   5
   7   3  10-222.026 867.518  15
   7  -3 -10 1050.19 1156.16   7
   7  -3  10 79.5589 547.716   8
   8   3  10 493.392 225.704  14
  -8  -3 -10 2000.36 1891.33  13
   8  -3 -10 2142.63 1584.01   7
   8   3 -10 917.363 1458.08   7
  -8   3  10 1671.16 2539.22   2
  -8   3 -10-549.445 613.640   7
  -8  -3 -10 375.626 428.455   3
  -8  -3  10 2614.95 2889.96   5
   8   3  10-191.715 899.006  15
  -8  -3  10 738.597 743.948   8
   8  -3  10-565.884 1366.60   8
  -8  -3  10-1629.46 2135.59   2
  -9  -3 -10-117.976 726.240  13
   9  -3 -10 2693.41 1959.70   7
   9   3 -10 1740.27 1492.65   7
  -9   3  10 32.0517 806.913   2
   9   3  10 169.888 672.827  15
   9  -3  10 2081.07 1534.79  15
  -9  -3  10 213.265 517.152   8
   9  -3  10 949.790 817.971   8
  -9  -3  10-482.641 1850.00   2
   9   3  10 2020.63 1516.07  14
 -10  -3 -10 2477.33 2564.48  13
  10  -3 -10 1595.03 1613.18   7
 -10  -3  10-1703.95 1474.43   2
  10  -3  10-50.9859 595.242  15
  10  -3  10 623.508 154.535   8
  10   3  10 264.399 737.118  14
 -11  -3 -10 2528.26 2386.63  13
  11   3  10 285.576 334.774  14
   0   3 -11 7390.76 2333.87   7
   0   3  11 10672.3 4490.73   2
   0  -3  11 6443.72 2831.33   8
   1  -3 -11 4756.18 1664.23   7
   1   3  11 9802.81 3965.34   2
  -1   3  11 9881.16 4834.37   2
  -1   3 -11 6186.11 2242.84   7
  -1  -3  11 4563.24 2521.96   8
   1  -3  11 2932.62 1591.95   8
   1   3 -11 6225.35 2352.69   7
   2  -3 -11 1247.93 955.150   7
   2  -3  11-783.692 1620.06   8
   2   3 -11 1782.42 1068.52   7
  -2   3 -11 1511.22 1199.07   7
   2   3  11 2460.03 1640.39   2
  -2  -3  11 1133.91 674.295   5
   2   3  11 2659.30 2464.49  15
  -2  -3  11 1480.20 1365.45   8
   3  -3 -11 322.050 299.140   7
   3   3 -11 1079.16 781.084   7
  -3   3 -11 701.945 782.325   7
  -3  -3  11 1340.50 1146.85   5
   3  -3  11-373.247 1495.65   8
   3   3  11 1142.54 1846.11  15
  -3  -3  11 1015.10 1529.78   8
   4  -3 -11 1019.05 922.675   7
   4   3 -11-153.667 196.440   7
  -4   3 -11 467.911 319.139   7
  -4  -3  11-1400.76 1999.92   5
   4   3  11 470.984 1454.27  15
  -4  -3  11-1004.16 1460.23   8
   4  -3  11 198.898 767.447   8
   5  -3 -11 6662.37 2427.83   7
   5   3 -11 4461.20 2230.03   7
  -5   3 -11 6845.47 2291.86   7
  -5   3  11 15454.2 6360.56   2
  -5  -3  11 3138.78 1774.33   5
   5   3  11 7661.95 3605.49  15
  -5  -3  11 4277.53 2607.52   8
   5  -3  11 6653.69 2451.91   8
  -6  -3  11-264.584 245.505   2
   6  -3 -11 1469.18 1358.12   7
   6   3 -11 1028.91 1231.57   7
  -6   3 -11 716.667 788.414   7
  -6  -3 -11 1300.03 1174.04   3
  -6  -3  11 401.531 268.203   8
  -6  -3  11-833.990 2246.12   5
   6   3  11 658.990 809.410  15
   6  -3  11 741.413 400.327   8
   7   3  11-1013.86 1360.02  14
   7  -3  11-942.206 1311.01   8
   7  -3 -11 1503.99 1611.42   7
  -7   3 -11 253.654 441.455   7
  -7  -3 -11 935.136 714.980   3
  -7  -3  11-763.121 1732.70   5
  -7  -3  11-941.324 1420.31   8
   8   3  11 854.312 1374.45  14
   8  -3 -11 1958.08 1436.25   7
  -8  -3  11 1092.58 1110.17   8
  -8   3 -11 951.344 555.581   7
   8  -3  11-968.478 1352.88   8
   9  -3  11-1832.12 1660.38   8
   9  -3  11 222.677 712.075  15
   9   3  11 167.045 512.950  14
   0   3  12 1471.99 1867.37   2
   0   3 -12-339.917 315.480   7
  -1   3 -12 760.939 921.233   7
   1   3  12 2614.65 2981.35  15
  -2   3 -12 3050.14 1486.75   7
  -2   3  12 12051.4 5374.23   2
   3  -3 -12-1020.64 1209.06   7
  -3   3 -12 586.455 851.043   7
   4  -3 -12 277.538 155.372   7
  -4   3 -12-233.001 685.282   7
  -4  -3  12-1495.46 2214.04   5
   5  -3 -12 1440.20 883.176   7
  -5   3 -12 1965.15 1159.77   7
  -5  -3  12 1094.08 1116.12   5
  -6   3 -12 1061.06 982.530   7
   0   4   0 510688. 12065.1  10
   0   4   0 486065. 9127.38   1
   0  -4   0 490089. 11598.2   5
  -1  -4   0 256.696 399.709   5
  -1  -4   0 226.658 256.356   1
  -1  -4   0 126.755 174.208  12
   1  -4   0 11.9519 125.966  12
   1   4   0 233.604 333.873  14
  -1  -4   0 15.2899 214.224  11
  -1   4   0-50.2193 332.340   6
   1   4   0 278.128 464.948  10
  -1   4   0 168.454 428.546  10
  -1  -4   0-165.153 275.691   3
  -1   4   0 177.772 295.570   1
  -2  -4   0 213338. 7674.63  12
   2  -4   0 221733. 8792.07  12
  -2  -4   0 208820. 6840.58  11
  -2  -4   0 218411. 7199.60   3
  -2   4   0 218075. 7835.01   6
  -2   4   0 187286. 6988.77   1
   2  -4   0 221279. 5726.15  15
   2   4   0 217435. 6949.41  10
  -2   4   0 206239. 8518.79  10
  -2  -4   0 202490. 7647.63   5
   2   4   0 235386. 8264.28  14
  -3   4   0 373.916 312.052   1
   3  -4   0 281.657 193.424  12
   3   4   0 568.556 393.894   7
  -3  -4   0 803.306 540.382  11
  -3   4   0 740.152 566.458   6
   3   4   0 447.078 194.327  10
  -3   4   0 604.594 650.393  10
  -3  -4   0 520.603 471.158   3
   3  -4   0 291.564 163.400  15
  -3  -4   0 454.471 390.228   5
   3   4   0 408.976 125.088  14
   4  -4   0 56267.3 4833.92  12
  -4  -4   0 54716.5 3820.04   3
  -4  -4   0 52553.5 3641.49  11
  -4   4   0 51854.6 4207.95   1
   4   4   0 51156.6 2783.49  10
   4   4   0 53004.0 4321.22  14
  -4   4   0 54948.3 4707.71  10
  -4  -4   0 49752.1 3936.53   5
   4   4   0 52083.2 3072.76   7
   5   4   0 869.464 758.073  14
   5  -4   0 724.052 806.460  12
   5   4   0 354.515 281.139   7
  -5  -4   0 434.558 503.105   3
   5   4   0 432.210 257.948  10
  -5   4   0 258.209 229.934   1
  -5   4   0 89.1239 292.194  10
  -5  -4   0 272.779 44.7093   5
   6   4   0 129513. 4824.12   7
   6  -4   0 136319. 8514.37  12
  -6  -4   0 141890. 6899.39   3
  -6   4   0 141995. 7885.44   1
   6   4   0 134939. 7643.08  14
  -6   4   0 138433. 8147.13  10
  -6  -4   0 128080. 6891.24   5
   7  -4   0 1461.07 1082.07  12
   7   4   0 1288.95 592.429   7
  -7  -4   0 874.841 774.858   3
  -7   4   0 841.370 839.800  10
  -7  -4   0 481.108 254.084   9
  -7  -4   0 1420.30 886.996   5
  -7   4   0 648.651 583.724   1
   7   4   0 1129.70 771.596  14
   8   4   0 72140.9 3873.73   7
   8  -4   0 86307.6 7583.30  12
  -8  -4   0 89616.3 6519.33   3
  -8   4   0 85851.4 6897.64   1
   8   4   0 85197.2 6796.63  14
  -8   4   0 88185.6 6992.73  10
  -8  -4   0 80616.4 5896.01   5
   9   4   0 501.068 399.466   7
   9  -4   0 498.521 237.424  12
  -9  -4   0 267.127 214.809   1
  -9   4   0 513.459 419.244   1
  -9   4   0 380.468 152.087  10
  -9  -4   0 815.075 825.776   5
   9   4   0 755.302 577.497  14
  10   4   0 32556.0 2887.08   7
  10  -4   0 42827.6 5799.23  12
 -10   4   0 45858.9 5385.40   1
  10   4   0 45696.2 5468.04  14
 -10   4   0 44988.2 5270.81  10
 -10  -4   0 42351.5 4632.67   5
 -11   4   0 343.505 593.423   1
  11  -4   0 742.061 739.838  12
 -11   4   0-282.444 926.806  10
 -11  -4   0 2239.17 1300.65   5
  11   4   0-201.380 226.855  14
 -12  -4   0 71506.4 9251.55  13
  12  -4   0 68267.4 8019.06  12
 -12   4   0 80741.1 7825.40   1
 -12   4   0 70796.9 6918.09  10
  12   4   0 74849.9 7535.82  14
 -12  -4   0 67610.8 6311.79   5
 -13  -4   0 3307.43 2536.45  13
 -13   4   0 1310.63 993.252   1
  13  -4   0 554.219 869.729  12
 -13   4   0 11.8049 709.429  10
 -13  -4   0 1833.16 1159.24   5
  13   4   0 1297.79 1119.44  14
 -14  -4   0 9923.89 3478.32  13
  14  -4   0 23132.6 4877.76  12
 -14   4   0 24942.7 4819.94   1
 -14   4   0 24488.8 4253.93  10
 -14  -4   0 21589.2 3680.45   5
  14   4   0 24578.5 4706.03  14
  15  -4   0-997.641 1343.54  12
 -15   4   0 262.304 100.597   1
 -15   4   0 710.291 426.834  10
 -15  -4   0-355.761 548.443   5
  15   4   0-198.215 616.872  14
  16  -4   0 17790.5 4546.74  12
 -16   4   0 22026.7 4293.50  10
 -16   4   0 24973.5 5048.34   1
  16   4   0 24832.0 5002.94  14
 -17  -4   0 506.975 195.858  13
  17  -4   0 2207.44 1863.09  12
 -17   4   0 1546.62 1233.41  10
 -17   4   0 459.849 1171.10   1
  17   4   0 1215.96 1599.59  14
 -18  -4   0 37266.9 7613.67  13
   0  -4  -1 800.141 475.013  12
   0  -4   1 697.031 343.282  12
   0   4  -1 1389.81 730.012   7
   0   4  -1 724.537 354.758   6
   0   4   1 408.298 291.870   1
   0   4  -1 913.615 608.048  10
   0   4   1 1419.75 823.639  10
   0   4  -1 1005.63 440.172  14
   0  -4   1 1207.36 625.350   5
   1   4  -1 297311. 8797.64   7
  -1  -4  -1 301641. 9612.19  12
  -1  -4   1 306979. 8853.69  12
   1  -4  -1 300294. 9829.51  12
   1  -4   1 306698. 9634.70  12
  -1   4   1 262375. 7640.93   1
   1   4   1 259018. 5537.13   1
  -1  -4   1 286470. 8504.40  11
  -1   4  -1 307831. 9792.72   6
  -1   4  -1 314549. 7123.79  14
  -1  -4   1 290397. 7739.47   3
  -1  -4  -1 319035. 9422.30   3
   1   4  -1 286233. 8549.88  10
  -1   4  -1 276003. 9323.74  10
   1   4   1 279000. 8948.18  10
  -1   4   1 281745. 9961.47  10
  -1  -4   1 278375. 9027.74   5
   1  -4   1 288163. 8777.61   5
   1   4  -1 310031. 8255.21  14
   2   4   1 1276.95 773.160  14
  -2  -4  -1 947.377 623.534   5
  -2  -4  -1 1011.50 684.353  12
  -2  -4   1 878.446 469.458  12
   2  -4  -1 795.368 588.403  12
   2  -4   1 684.346 124.532  12
  -2   4   1 512.326 548.999   1
   2   4  -1 1035.64 573.962   7
  -2  -4   1 400.642 189.593  11
  -2  -4  -1 515.760 336.348  11
  -2   4  -1 1099.04 648.715   6
  -2   4   1 648.738 153.742   6
   2   4  -1 680.489 403.080  10
  -2  -4   1 919.352 381.727   1
  -2   4  -1 978.624 580.461  10
   2   4   1 752.258 552.175  10
  -2   4   1 699.690 667.417  10
  -2  -4   1 501.865 337.177   3
   2   4  -1 1197.67 618.415  14
  -2  -4  -1 595.019 418.788   3
   2  -4  -1 929.981 413.347  15
  -2  -4   1 506.497 355.964   5
  -3  -4  -1 51609.8 2705.42   7
   3   4  -1 49389.6 3468.09   7
   3  -4  -1 54577.8 4585.77  12
   3  -4   1 53839.6 4588.44  12
  -3   4   1 43956.2 3836.54   1
   3   4  -1 50002.5 3903.22  14
  -3  -4   1 51461.7 3366.11   3
  -3  -4   1 53095.8 3814.30  11
  -3  -4  -1 49679.1 3246.85  11
  -3  -4  -1 50988.2 3855.07   3
  -3   4   1 50033.6 3634.73   6
   3   4  -1 45523.4 2978.69  10
  -3   4  -1 48720.1 4245.49  10
   3   4   1 49959.8 3278.56  10
  -3   4   1 51546.4 4610.43  10
  -3  -4   1 43981.3 2355.26   1
  -3   4  -1 50212.4 3955.83   1
  -3  -4   1 45803.1 3952.57   5
  -3  -4  -1 48144.8 3750.34   5
   3   4   1 50367.0 4277.89  14
  -4  -4  -1 302.574 126.006   7
  -4   4   1 214.879 383.567   1
   4  -4  -1 202.332 110.445  12
   4  -4   1 703.618 720.725  12
   4   4  -1 512.775 486.354   7
  -4  -4  -1 616.043 396.147  11
  -4  -4   1 267.052 428.992  11
  -4   4   1 492.547 363.139   6
  -4   4  -1 491.677 482.953   1
   4   4  -1 430.640 269.818  10
  -4  -4   1 438.660 357.694   3
  -4   4  -1 59.1454 73.0976  10
  -4  -4  -1 493.246 415.223   3
   4   4   1 469.934 278.756  10
  -4   4   1 972.428 603.132  10
  -4  -4   1 377.471 284.549  10
  -4  -4   1 789.950 747.231   5
   4   4   1 326.321 195.650  14
   4   4  -1 261.348 360.763  14
  -4  -4  -1 320.889 253.832   5
  -5  -4  -1 122547. 3632.35   7
   5   4  -1 124373. 5635.50   7
   5  -4  -1 130588. 7715.16  12
   5  -4   1 130139. 8052.71  12
  -5   4   1 126173. 7403.11   1
  -5  -4   1 129982. 6052.27   3
  -5  -4  -1 142968. 6780.67   3
   5   4  -1 122743. 6882.82  14
   5   4  -1 101943. 3741.30  10
  -5   4  -1 128957. 7411.76  10
   5   4   1 130571. 4320.63  10
  -5   4   1 130528. 7835.41  10
  -5   4  -1 142418. 7424.31   1
  -5  -4   1 120897. 6922.11   5
  -5  -4  -1 122428. 6209.76   5
  -5   4  -1 121354. 4589.77  14
   5   4   1 133271. 7494.33  14
   6   4  -1 20692.0 2369.46   7
   6  -4  -1 24637.7 3557.79  12
   6  -4   1 23083.4 3629.94  12
  -6   4   1 20969.6 3217.56   1
  -6  -4   1 21331.0 2875.33   3
  -6  -4  -1 21934.2 2848.44   3
   6   4   1 14353.5 1157.85  10
  -6   4  -1 20722.3 3112.20  10
  -6   4   1 21553.5 3348.16  10
  -6   4  -1 21860.3 3215.00   1
   6   4   1 22666.4 3268.98  14
  -6  -4   1 22034.4 3152.31   5
  -6  -4  -1 18322.6 2483.49   5
  -6   4  -1 17939.8 1887.62  14
   6   4  -1 22498.5 3196.07  14
  -6  -4  -1 14248.9 1315.94   7
   7   4   1 159298. 8868.89  14
   7   4  -1 138304. 6370.88   7
   7   4   1 124051. 3440.29   7
   7  -4  -1 156617. 9377.07  12
   7  -4   1 159338. 10040.5  12
  -7   4   1 154631. 9064.37   1
  -7  -4  -1 164204. 8236.01   3
  -7   4  -1 157422. 8805.82  10
  -7   4   1 153438. 9118.09  10
  -7   4  -1 163826. 8928.62   1
  -7  -4   1 150244. 8387.60   5
  -7  -4  -1 143091. 7044.03   5
   7   4  -1 152335. 8549.26  14
  -8  -4   1 11961.5 1400.65   1
   8   4  -1 10236.6 1820.14   7
   8   4   1 9382.61 935.891   7
   8  -4  -1 14783.2 3063.25  12
   8  -4   1 13494.6 2974.13  12
  -8   4   1 12628.0 2831.64   1
  -8  -4  -1 14340.0 2662.79   3
  -8   4  -1 13571.8 2681.50  10
  -8   4   1 12533.2 2705.99  10
  -8   4  -1 11685.8 2751.06   1
  -8  -4   1 13703.8 2661.90   5
  -8  -4  -1 12230.6 2109.44   5
   8   4  -1 12180.2 2581.17  14
  -8  -4   1 12554.6 1530.70   8
   8   4   1 13529.2 2808.74  14
   9   4  -1 41668.5 3882.90   7
  -9  -4   1 49341.1 3096.77   1
   9  -4  -1 59323.6 6370.32  12
   9  -4   1 49564.3 6343.15  12
  -9   4   1 53576.4 5968.05   1
  -9   4  -1 57778.0 5634.47  10
  -9   4   1 56849.2 5851.90  10
  -9   4  -1 62508.8 6088.87   1
  -9  -4   1 53096.5 5413.88   5
  -9  -4  -1 51451.0 4509.00   5
   9   4  -1 54203.5 5692.16  14
  -9  -4   1 40057.8 2520.68   8
   9   4   1 58118.4 5959.29  14
 -10  -4   1 5104.63 1128.49   1
  10   4  -1 5128.16 1527.78   7
  10  -4  -1 5877.59 1929.91  12
  10  -4   1 3147.63 1383.45  12
 -10  -4  -1 4524.17 1385.35   5
 -10   4  -1 6794.92 2243.65   1
 -10   4   1 4595.67 1898.11   1
 -10   4  -1 4162.97 1553.36  10
 -10   4   1 7581.07 2217.59  10
  10   4  -1 4293.58 1750.48  14
 -10  -4   1 5539.72 1886.76   5
  10   4   1 6016.13 1954.37  14
 -11  -4  -1 90122.2 10033.6  13
  11   4   1 87529.9 7918.36  14
  11  -4  -1 80978.6 8167.98  12
  11  -4   1 73978.1 8310.04  12
 -11   4   1 92316.4 8155.42   1
 -11   4  -1 80128.0 7087.69  10
 -11   4   1 81356.2 7447.81  10
 -11   4  -1 88882.3 7863.34   1
 -11  -4   1 75668.1 7124.45   5
 -11  -4  -1 75755.4 5919.84   5
  11   4  -1 55481.3 5156.08   7
  11   4  -1 82575.8 7584.54  14
 -12  -4  -1 16577.3 4807.21  13
 -12  -4   1 18539.8 4937.76  13
  12  -4  -1 13206.6 3332.91  12
  12  -4   1 12314.3 3268.36  12
 -12   4   1 13608.6 3288.48   1
 -12   4  -1 13465.1 2979.34  10
 -12   4   1 14042.3 3170.05  10
 -12   4  -1 16055.5 3655.03   1
 -12  -4   1 13554.3 3170.24   5
 -12  -4  -1 12621.6 2386.93   5
  12   4  -1 11946.4 3039.00  14
  12   4   1 14124.5 3278.97  14
 -13  -4  -1 50361.3 8628.53  13
 -13   4   1 70751.5 7805.43   1
  13  -4  -1 68199.1 8011.80  12
  13  -4   1 61718.6 8051.52  12
 -13  -4   1 55442.5 8443.69  13
 -13   4  -1 66650.3 6901.76  10
 -13   4   1 63553.9 6904.34  10
 -13   4  -1 73226.2 7694.34   1
 -13  -4   1 65596.0 7086.89   5
 -13  -4  -1 61465.2 5672.36   5
  13   4  -1 73891.5 7782.76  14
  13   4   1 71969.5 7689.67  14
 -14   4  -1 2494.91 1494.32   1
 -14  -4  -1-1361.15 2537.22  13
 -14  -4   1 161.150 1285.24  13
  14  -4  -1 1557.46 1725.08  12
  14  -4   1-548.750 1201.87  12
 -14   4  -1 2388.19 1229.72  10
 -14   4   1 168.538 612.783  10
  14   4  -1 150.567 511.482  14
 -14  -4   1 359.751 807.991   5
 -14   4   1 2116.70 1509.54   1
 -14  -4  -1 1303.49 845.311   5
  14   4   1 2746.64 1666.21  14
  15   4  -1 17250.7 4078.83  14
 -15   4   1 17058.1 3948.45   1
 -15  -4  -1 361.625 1993.02  13
  15  -4  -1 16127.0 4115.89  12
  15  -4   1 16077.6 4523.43  12
 -15   4  -1 16800.9 3776.96  10
 -15   4  -1 18959.9 4225.80   1
 -15   4   1 13810.7 3217.21  10
  15   4   1 15745.6 3954.19  14
 -15  -4   1 13802.0 3228.10   5
 -16  -4  -1-1301.81 2183.69  13
 -16  -4   1-3905.90 3232.97  13
 -16   4   1-656.458 1029.60   1
  16  -4  -1 1199.07 1297.15  12
  16  -4   1 830.775 1618.12  12
 -16   4  -1 701.275 772.003   1
 -16   4  -1 1268.29 1369.31  10
 -16   4   1 444.104 394.349  10
  16   4   1 1369.10 1183.73  14
 -16  -4   1 611.872 213.656   5
  16   4  -1 1001.34 1106.99  14
 -17  -4   1 12002.2 4557.00  13
  17  -4  -1 31940.6 6176.85  12
  17  -4   1 33366.8 6800.53  12
 -17   4   1 35394.9 6370.48   1
 -17   4  -1 29054.7 5041.87  10
 -17   4   1 25363.3 4691.09  10
 -17  -4  -1 14180.4 4946.28  13
 -17   4  -1 36522.2 6361.28   1
  17   4  -1 34830.8 6357.08  14
  17   4   1 31487.9 5957.49  14
 -18  -4   1-945.655 2876.76  13
   0   4   2 84627.0 4459.96   1
   0   4  -2 95718.4 5485.44   7
   0  -4  -2 101635. 5840.85  12
   0  -4   2 97196.6 5068.83  12
   0  -4   2 99576.4 5276.83  11
   0   4  -2 102835. 5864.26   6
   0   4  -2 93384.4 5425.11  10
   0  -4   2 92424.0 5209.41   5
   0   4   2 93486.2 5733.23   9
   0   4   2 98318.4 5730.48  15
   0   4  -2 92691.3 3927.60  14
  -1   4   2 756.530 481.353   1
  -1  -4  -2 943.939 603.049  12
  -1  -4   2 1128.27 518.468  12
   1  -4  -2 477.190 447.551  12
   1  -4   2 1083.30 317.980  12
   1   4  -2 1106.19 525.505   7
  -1   4  -2 1096.93 383.205  14
  -1   4  -2 899.531 538.762   7
  -1  -4   2 909.617 320.171  11
  -1   4  -2 994.778 546.803   6
  -1   4   2 762.421 439.777  15
   1   4  -2 991.173 509.021   6
   1   4  -2 1069.62 493.778  14
   1   4   2 1007.99 768.681  15
   1   4  -2 597.680 427.241  10
  -1   4  -2 954.632 619.093  10
  -1   4   2 1876.73 1181.93   9
   1   4   2 899.681 428.708   1
  -1  -4   2 727.116 288.433   3
  -1  -4  -2 1054.89 574.084   3
  -1  -4   2 994.632 648.773   5
   1  -4   2 1164.68 539.208   5
   2   4   2 52021.7 2474.69   1
  -2   4   2 52622.7 4257.56   1
   2   4  -2 65993.8 4462.17   7
  -2  -4  -2 58461.5 3048.81   7
  -2   4  -2 59768.6 4564.51   7
   2  -4   2 65219.8 4695.99  12
  -2  -4   2 58721.2 3192.94   3
  -2  -4   2 65727.1 4397.58  11
  -2  -4  -2 58952.1 3248.42  11
  -2   4  -2 63606.6 4688.92   6
  -2  -4  -2 66197.0 4529.18   3
   2   4  -2 57894.2 3872.53  10
  -2   4  -2 60694.1 4684.25  10
  -2  -4   2 63160.9 3866.64  12
  -2  -4   2 59788.7 4623.29   5
   2  -4   2 60656.0 4061.28   5
  -2   4   2 62306.9 5019.31   9
   2   4   2 66778.8 5274.35  15
  -2   4   2 66213.7 4036.60  15
   2   4  -2 59770.0 3874.48  14
  -2   4  -2 49332.9 2032.95  14
   2  -4  -2 62657.1 4755.01  12
   3   4   2 1349.20 797.348  14
   3   4   2 1011.40 260.345   1
   3  -4  -2 1122.77 371.603   4
  -3   4   2 1799.21 562.653  15
   3   4   2 1733.70 882.874  15
   3  -4  -2 1698.07 802.496  12
   3  -4   2 1856.22 984.368  12
  -3  -4   2 1996.83 945.663  11
  -3  -4  -2 1702.59 508.892  11
  -3   4   2 1822.91 526.272   6
   3   4  -2 2126.14 901.992   7
   3   4  -2 1405.54 645.460  10
  -3  -4   2 1364.14 523.755   3
  -3   4  -2 1898.19 1158.85  10
  -3  -4  -2 1823.38 455.831   7
  -3   4   2 2460.26 1225.99   9
  -3  -4  -2 1367.69 704.881   3
  -3   4   2 1058.47 591.996   1
  -3  -4   2 1839.46 967.133   5
   3   4  -2 1682.50 725.882  14
  -4  -4  -2 118531. 3149.99   7
   4   4  -2 128694. 6353.96   7
  -4   4   2 125059. 7301.05   1
   4  -4  -2 141834. 7771.94  12
   4  -4   2 133566. 7871.13  12
  -4  -4   2 126747. 5302.83   3
  -4  -4  -2 127582. 5136.89  11
  -4  -4   2 132868. 6674.93  11
  -4  -4  -2 145378. 6936.03   3
  -4   4   2 127575. 5519.87   6
   4   4   2 138446. 8376.80  15
   4   4  -2 110788. 4848.55  10
  -4   4  -2 140367. 7648.60  10
  -4   4   2 128486. 8047.21  10
  -4  -4   2 127008. 7361.01   5
  -4   4   2 124941. 7578.66   9
  -4   4   2 120508. 4300.33  15
   4   4  -2 118320. 6332.85  14
   4   4   2 138250. 7772.41  14
  -5  -4  -2 2449.69 924.616   5
  -5   4   2 1000.13 319.212  15
  -5   4   2 1964.65 1197.42   1
   5  -4  -2 1925.98 1131.76  12
   5   4  -2 2524.21 978.636   7
   5  -4   2 3280.80 1426.36  12
   5   4   2 2910.61 1222.64  15
   5   4  -2 2239.43 931.695  14
  -5  -4   2 1147.42 697.420   3
   5   4  -2 2117.12 700.683  10
  -5   4  -2 3391.94 1353.68  10
  -5  -4  -2 1952.09 823.423   3
  -5   4   2 2078.14 1220.10  10
  -5  -4   2 2679.05 1279.95   5
  -5   4  -2 1115.01 249.617  14
   5   4   2 2543.35 1203.63  14
   6   4  -2 224527. 9035.59   7
  -6   4   2 235921. 11340.3   1
   6  -4  -2 254390. 11220.4  12
   6  -4   2 241009. 12102.0  12
  -6  -4  -2 262610. 10018.7   3
  -6   4  -2 245461. 10748.1  10
  -6  -4   2 218716. 6468.75  10
  -6   4   2 234156. 11460.5  10
  -6  -4   2 237824. 11151.5   5
  -6  -4  -2 227801. 8499.70   5
  -6   4  -2 276399. 11179.1   1
   6   4   2 240762. 11923.8  15
   6   4  -2 230103. 9979.69  14
   6   4   2 248725. 11095.7  14
   7   4  -2 7201.27 1702.33   7
  -7   4   2 8212.77 2306.61   1
   7  -4  -2 9830.11 2429.57  12
  -7  -4  -2 9993.81 2081.77   3
   7  -4   2 6563.90 1984.53  12
   7   4   2 4478.38 761.374  10
  -7  -4   2 7667.01 1030.72  10
   7   4  -2 8545.77 2071.08  14
   7   4   2 6435.59 897.879  10
   7  -4   2 6886.06 991.431  15
  -7  -4   2 9063.51 2335.17   5
  -7   4  -2 8132.08 2034.95  10
  -7  -4  -2 8404.10 1650.26   5
  -7   4   2 7942.62 2209.26  10
  -7   4  -2 8377.03 2287.68   1
  -7   4  -2 5746.18 855.925  14
   7   4   2 7938.92 2122.89  14
   8   4  -2 66886.5 5492.55   7
  -8   4   2 82521.3 7218.44   1
   8  -4  -2 86485.6 7097.45  12
   8  -4   2 71568.0 7414.59  12
  -8  -4  -2 93044.2 6807.34   3
   8  -4   2 71499.1 3176.94  15
  -8   4  -2 84812.2 6778.96  10
  -8   4   2 82692.4 7183.25  10
  -8  -4   2 75521.1 6895.38   5
  -8   4  -2 86635.3 7089.68   1
  -8  -4  -2 79867.1 5264.16   5
   8   4  -2 79526.2 6556.29  14
  -8  -4   2 67473.7 4060.07   8
   8   4   2 86005.0 7061.06  14
  -9   4   2 654.445 664.434   1
   9   4  -2 1172.19 788.673   7
   9  -4  -2 1405.12 1046.01  12
   9  -4   2-603.980 1039.47  12
  -9  -4  -2 717.424 434.888   3
  -9   4  -2 1190.15 1086.24   1
  -9   4  -2 1402.82 1024.38  10
  -9   4   2 830.771 655.933  10
  -9  -4   2 792.565 797.830   5
  -9  -4   2 280.451 329.304   8
   9   4  -2 351.092 549.238  14
  -9  -4  -2 997.220 602.623   5
   9   4   2 866.101 896.847  14
  10   4  -2 30469.3 4296.18   7
 -10  -4  -2 56056.1 8042.29  13
  10  -4  -2 46974.6 5817.27  12
  10  -4   2 38765.6 6102.07  12
 -10   4   2 45603.8 5844.66   1
  10   4   2 51549.8 5840.94  14
 -10   4  -2 46596.8 5357.71  10
 -10   4   2 44506.0 5524.89  10
 -10  -4   2 39782.5 5439.04   5
 -10   4  -2 47285.9 5678.10   1
 -10  -4  -2 44618.4 4137.97   5
  10   4  -2 47492.3 5595.93  14
 -11  -4  -2 14765.1 4537.60  13
  11   4  -2 7039.24 2386.92   7
 -11   4   2 10442.7 2821.36   1
  11  -4  -2 10650.7 2802.42  12
  11  -4   2 8045.67 2524.25  12
 -11   4  -2 11328.6 2767.12   1
 -11   4  -2 10833.3 2484.96  10
 -11  -4  -2 9897.80 1957.60   5
 -11   4   2 9427.50 2514.29  10
  11   4   2 10548.2 2655.42  14
 -11  -4   2 8466.91 2565.03   5
  11   4  -2 8817.26 2499.31  14
 -12  -4  -2 87703.4 11322.4  13
 -12  -4   2 109599. 10666.9  13
  12  -4  -2 117377. 9816.40  12
  12  -4   2 91793.4 9998.21  12
 -12   4   2 118296. 10092.4   1
 -12   4  -2 117153. 8899.70  10
 -12   4   2 116033. 9308.65  10
 -12  -4   2 103318. 9426.33   5
 -12   4  -2 128460. 9915.61   1
 -12  -4  -2 106988. 6777.02   5
  12   4  -2 117083. 9633.09  14
  12   4   2 128530. 10118.7  14
 -13  -4  -2-327.145 1751.98  13
  13  -4  -2 85.9295 443.240  12
  13  -4   2-3067.90 2450.51  12
 -13   4   2 319.928 819.200   1
 -13   4  -2 1659.39 1265.92  10
 -13   4   2 1806.88 1234.11  10
 -13   4  -2 693.891 898.460   1
 -13  -4   2 32.8161 376.239   5
  13   4   2 479.164 596.630  14
  13   4  -2 481.777 631.245  14
 -13  -4  -2 206.009 398.344   5
 -14  -4   2 36908.7 6933.29  13
 -14  -4  -2 25330.2 6198.52  13
  14  -4  -2 59927.1 7447.07  12
  14  -4   2 51814.7 7938.87  12
 -14   4   2 63745.9 7765.92   1
 -14   4  -2 58783.3 6696.21  10
 -14   4   2 57727.1 6931.59  10
 -14  -4   2 59994.0 7717.24   5
 -14   4  -2 65892.3 7932.08   1
  14   4  -2 65237.1 7817.77  14
  14   4   2 66349.4 7688.71  14
 -15  -4  -2-3333.75 3630.90  13
 -15  -4   2-2624.07 3105.89  13
  15  -4  -2 1542.27 1249.77  12
  15  -4   2-1874.29 2649.10  12
  15   4  -2 1982.73 1582.29  14
 -15   4  -2 2232.39 1635.21   1
 -15   4  -2 1519.41 1153.06  10
 -15   4   2-9.72025 796.891  10
 -15   4   2 1468.32 1517.98   1
 -15  -4   2 2040.60 1465.59   5
  15   4   2 2641.08 1394.64  14
 -16  -4  -2 6070.16 3179.47  13
 -16  -4   2 3301.51 1627.49  13
  16  -4  -2 16101.0 4068.86  12
  16  -4   2 11648.8 3814.15  12
  16   4  -2 16221.6 4223.73  14
 -16   4  -2 14102.8 3474.02  10
 -16   4   2 13217.1 3419.56  10
 -16   4  -2 17863.0 4230.37   1
 -16   4   2 13923.3 4008.86   1
 -16  -4   2 17084.5 4193.51   5
  16   4   2 17065.2 4092.31  14
 -17  -4  -2 3723.80 3294.81  13
  17  -4  -2 261.460 121.883  12
  17  -4   2 1106.87 572.584  12
 -17   4  -2-1500.60 1255.95  10
 -17   4   2-552.265 1259.42   1
 -17   4   2-2077.58 1821.01  10
 -17  -4   2-843.683 1198.59   5
  17   4  -2 1649.33 1529.15  14
  17   4   2 184.808 681.261  14
   0  -4   3 1490.06 536.414  14
   0   4   3 1546.52 867.462  15
   0  -4  -3 1234.20 709.175  12
   0  -4   3 1156.96 524.617  12
   0   4  -3 1527.86 817.654   7
   0  -4   3 696.207 540.429  11
   0   4  -3 1528.72 801.895   6
   0   4   3 1165.53 1167.41   9
   0   4  -3 1281.03 786.979  10
   0   4  -3 1431.16 531.777  14
   0  -4   3 402.776 119.241   3
   0  -4   3 1736.61 839.707   5
   1   4  -3 108670. 6234.32   7
  -1   4  -3 103401. 6198.52   7
  -1  -4  -3 106173. 6156.80  12
   1  -4  -3 106330. 6161.91  12
  -1  -4   3 103430. 4793.10  12
   1  -4   3 108096. 5529.82  12
  -1  -4   3 105386. 5771.46  11
  -1  -4   3 91995.1 3377.53   3
   1   4  -3 113097. 6360.47   6
  -1  -4  -3 112781. 6316.96   3
   1   4  -3 93974.1 5576.30  10
  -1   4  -3 98231.2 5960.37  10
  -1  -4   3 103235. 6086.30   5
   1  -4   3 101735. 5497.48   5
   1   4   3 98777.6 6348.69   9
  -1   4   3 101599. 6948.50   9
   1   4   3 105853. 6850.59  15
  -1   4   3 109609. 6396.92  15
  -1   4  -3 91438.5 3128.90  14
   1   4  -3 100681. 4658.92  14
   2   4   3 5431.46 1623.91  15
   2   4  -3 5988.24 1537.79   7
  -2  -4   3 4938.16 968.243  12
   2  -4   3 6662.81 1511.58  12
   2  -4  -3 5322.97 1385.21  12
  -2  -4   3 4407.12 737.298   3
  -2  -4  -3 4981.03 810.575  11
  -2   4  -3 5585.03 1469.98   7
  -2  -4   3 5326.71 1276.47  11
  -2  -4  -3 5807.19 1389.13   3
   2   4  -3 5126.64 1143.08  14
   2   4  -3 5663.66 1418.13  10
   2   4  -3 5790.70 1380.30   6
  -2   4  -3 4939.52 1491.82  10
  -2  -4   3 5991.81 1656.85   5
   2  -4   3 6117.13 1285.15   5
   2   4   3 6842.95 1740.46   9
  -2   4   3 6181.08 1914.14   9
  -2   4   3 6356.06 1464.04  15
   3   4  -3 102630. 6166.47   7
  -3  -4  -3 87600.1 3167.24   7
  -3   4  -3 99978.6 6292.76   7
   3  -4  -3 101900. 6323.35  12
   3  -4   3 106315. 6487.73  12
  -3  -4   3 93024.5 3910.85   3
  -3  -4   3 108081. 6104.23  11
  -3  -4  -3 101363. 3974.78  11
   3   4  -3 97184.7 5471.31  14
  -3  -4  -3 110295. 6197.18   3
   3   4   3 102875. 7275.79  15
  -3   4   3 99623.9 4810.05   6
   3   4  -3 103174. 6129.47   6
   3   4  -3 95293.9 5110.88  10
  -3   4  -3 104598. 6448.49  10
  -3   4   3 105887. 5663.51  15
  -3  -4   3 100543. 6738.38   5
   3  -4   3 104427. 5255.80   5
   3   4   3 102225. 5854.52   9
  -3   4   3 105715. 7433.62   9
   4   4  -3 19127.0 2728.18   7
  -4  -4  -3 12815.5 896.389   7
   4  -4  -3 18514.9 2807.19  12
   4  -4   3 20524.1 3058.41  12
   4   4  -3 17928.1 2511.46  14
  -4  -4   3 20478.9 2758.15  11
  -4  -4  -3 20830.9 2733.69   3
  -4   4   3 19734.4 2046.49   6
   4   4  -3 15570.7 2024.65  10
  -4   4  -3 20118.3 2932.93  10
  -4  -4   3 19550.5 3137.97   5
   4   4   3 19928.2 2468.12   9
  -4   4   3 21981.7 3594.94   9
   4   4   3 21336.3 3411.94  15
  -4   4   3 19804.0 2285.50  15
   4   4   3 19587.9 3130.16  14
  -4  -4  -3 12640.7 979.470   7
   5   4  -3 175558. 8606.95   7
   5  -4  -3 200311. 9509.02  12
   5  -4   3 189750. 10183.2  12
  -5  -4  -3 203497. 8744.28   3
  -5   4  -3 205266. 9704.98  10
  -5  -4   3 180116. 10052.5   5
  -5   4   3 200831. 10761.7   9
   5   4   3 201354. 10904.6  15
  -5   4   3 187839. 6781.96  15
   5   4  -3 180390. 8522.08  14
   5   4   3 203891. 10155.7  14
   6   4  -3 8578.79 2047.14   7
   6   4   3 11544.2 2712.08  15
   6   4   3 6572.53 718.355   1
   6  -4  -3 10352.8 2355.67  12
   6  -4   3 7568.44 2120.38  12
  -6  -4  -3 9696.59 2138.54   3
  -6   4  -3 10752.5 2360.33  10
  -6   4   3 11940.5 2897.00   9
  -6   4   3 7564.41 1304.03  15
  -6  -4   3 8134.18 2374.34   5
   6   4  -3 8443.48 2029.45  14
   6   4   3 9575.22 2336.85  14
  -7   4   3 129982. 9205.41   1
   7   4  -3 110292. 7544.88   7
   7   4  -3 125613. 8005.24  14
   7  -4  -3 135672. 8553.00  12
   7  -4   3 102626. 8752.21  12
  -7  -4  -3 142261. 8102.81   3
  -7   4   3 88478.5 4306.65  15
  -7   4  -3 128281. 8134.39  10
   7   4   3 133660. 8704.64  14
  -7  -4   3 112537. 8785.22   5
   7   4   3 129594. 9354.04  15
  -7   4   3 133481. 9022.42   9
  -7  -4   3 113826. 6107.66   8
   8   4   3 605.414 684.947  14
   8   4   3-79.7941 230.104  15
   8   4  -3 262.769 255.111   7
   8  -4  -3 1010.87 971.033  12
   8  -4   3 2826.79 1693.35  12
  -8  -4  -3 920.313 746.330   3
  -8   4   3 396.525 584.984   1
  -8   4  -3 547.850 642.927  10
  -8   4   3 2310.28 1337.92   9
  -8   4   3 887.324 600.201  10
   8  -4   3 535.308 389.209  15
  -8  -4   3-186.162 723.187   5
   8   4  -3 1071.00 726.986  14
  -8  -4   3 582.302 386.874   8
  -9  -4  -3 30925.3 6203.54  13
   9   4  -3 15805.4 3247.70   7
  -9   4   3 20089.6 3937.66   1
   9  -4  -3 23932.4 3944.36  12
   9  -4   3 18825.0 4337.50  12
  -9   4  -3 18435.5 3275.76  10
  -9   4   3 18126.0 3734.34  10
  -9  -4   3 18951.7 3872.20   5
   9  -4   3 20603.0 2204.65  15
   9   4   3 24586.6 4006.18  14
  -9   4   3 22258.7 3814.18   9
   9   4   3 23093.4 4140.23  15
  -9  -4   3 15820.1 2165.74   8
   9   4  -3 21877.8 3742.23  14
  -9  -4  -3 23048.5 3706.66   3
 -10  -4  -3 913.525 662.824   5
 -10  -4  -3 529.724 765.506   3
  10   4  -3 1622.66 1366.53   7
  10  -4  -3 1210.69 1067.80  12
  10  -4   3 488.858 1156.01  12
 -10   4  -3-710.488 709.582  10
 -10   4   3-376.107 520.160  10
 -10  -4   3-803.989 1357.56   5
  10   4  -3 479.398 734.146  14
 -10  -4   3 140.584 31.3261   8
 -10   4   3 500.409 707.096   1
  10   4   3 862.850 976.694  14
 -11  -4  -3 48996.5 8346.33  13
 -11   4   3 56224.8 6854.12   1
  11  -4  -3 56492.6 6348.41  12
  11  -4   3 40022.2 6717.16  12
 -11   4  -3 55647.1 6031.21  10
 -11   4   3 50763.4 6316.87  10
 -11  -4   3 46115.2 6693.78   5
 -11  -4  -3 56329.0 4526.02   5
  11   4  -3 56974.1 6538.01  14
  11   4   3 65697.6 6969.83  14
 -12  -4  -3 2660.58 1029.71   5
 -12   4   3 1737.97 1364.83   1
  12   4  -3-734.205 1117.44   7
  12  -4  -3 2852.53 1715.08  12
  12  -4   3-852.409 1817.85  12
 -12   4  -3 2385.09 1321.55  10
 -12   4   3 1385.90 773.450  10
 -12  -4  -3 2951.68 2209.51  13
 -12  -4   3 2490.29 1659.08   5
  12   4  -3 3048.04 1663.05  14
  12   4   3 1757.84 1231.70  14
 -13  -4   3 83235.5 9734.24  13
  13  -4  -3 94209.9 8693.09  12
  13  -4   3 65630.2 9142.25  12
 -13   4   3 93967.7 9595.58   1
  13   4  -3 97108.7 9351.00  14
 -13   4  -3 95050.0 8314.01  10
 -13   4   3 89036.4 8649.75  10
 -13  -4   3 86575.8 9708.05   5
  13   4   3 106172. 9586.54  14
 -14  -4  -3-2072.46 2762.84  13
 -14  -4   3 7462.63 2724.45  13
  14  -4  -3 8278.23 2599.13  12
  14  -4   3 1356.27 2210.47  12
  14   4   3 9074.64 2984.23  14
 -14   4  -3 6625.21 2307.50  10
 -14   4   3 6934.23 2513.99  10
 -14  -4   3 7290.69 2913.22   5
  14   4  -3 9111.31 3049.58  14
 -14   4   3 6668.56 2742.61   1
 -15  -4  -3 11453.9 4269.20  13
  15  -4  -3 30196.2 5285.67  12
 -15   4   3 31037.9 5841.20   1
  15  -4   3 24976.2 5212.90  12
 -15   4  -3 30423.4 4933.82  10
 -15   4   3 28484.8 5116.99  10
 -15  -4   3 31932.1 6136.15   5
  15   4  -3 30520.9 5674.43  14
  15   4   3 34801.8 5835.00  14
 -16  -4  -3 822.694 2314.82  13
  16  -4  -3 394.222 693.158  12
 -16   4   3-28.3787 769.719   1
 -16   4  -3 483.126 666.647  10
 -16   4   3 552.720 411.216  10
 -16  -4   3-293.791 551.606   5
  16   4  -3 1331.90 1646.44  14
  16   4   3 1060.47 1331.46  14
 -17  -4  -3 18813.4 4250.97   4
 -17  -4  -3 6335.45 1167.60  13
  17  -4  -3 19099.0 4425.74  12
 -17   4  -3 18708.1 4097.67  10
 -17  -4   3 21021.5 5311.23   5
 -17   4   3 16423.9 3932.62  10
  17   4   3 22095.0 4855.80  14
 -18  -4   3 579.609 274.605   5
   0   4  -4 235030. 9869.53   7
   0  -4  -4 237177. 9359.62  12
   0  -4   4 239733. 7424.74  12
   0  -4   4 247885. 9117.44  11
   0   4  -4 258474. 9934.35  10
   0  -4  -4 275852. 10347.7   3
   0   4   4 242622. 10949.2  15
   0  -4   4 241881. 9384.54   5
   0   4   4 226577. 11451.6   9
   0  -4   4 228327. 6456.99  14
  -1  -4  -4 19944.0 1426.52   4
   1   4  -4 25093.0 3335.55   7
  -1   4  -4 23947.4 3208.25   7
   1  -4  -4 24802.5 3132.41  12
  -1  -4   4 26151.4 2263.03  12
   1  -4   4 24967.3 2604.46  12
  -1  -4   4 25291.4 2968.74  11
   1  -4   4 24722.5 2942.66  11
   1   4  -4 27102.8 3269.26   6
   1   4   4 26492.0 3758.38  15
  -1  -4  -4 26865.7 3226.80   3
   1   4  -4 24108.7 3120.63  10
  -1   4  -4 28063.8 3393.14  10
  -1  -4   4 25760.7 3346.86   5
   1  -4   4 24983.8 2946.03   5
   1   4   4 24022.3 3703.37   9
  -1   4   4 23163.1 3965.57   9
  -1   4   4 26772.5 3619.30  15
   1   4  -4 24090.4 2449.86  14
   1  -4   4 18840.6 1405.06  14
   2   4  -4 146916. 8032.11   7
  -2   4  -4 138325. 7659.51   7
  -2  -4   4 138010. 4911.52  12
   2  -4  -4 140685. 7325.89  12
   2  -4   4 146580. 6903.25  12
  -2  -4   4 152269. 7460.74  11
  -2  -4  -4 137923. 4106.44  11
  -2  -4  -4 155307. 7585.01   3
   2   4  -4 153200. 7521.70   6
   2   4  -4 140930. 7030.43  10
  -2   4  -4 136856. 7552.60  10
  -2  -4   4 148544. 8396.31   5
   2  -4   4 149137. 6629.69   5
   2   4   4 141171. 8349.74   9
  -2   4   4 143813. 9680.57   9
   2   4   4 143556. 8866.51  15
  -2   4   4 151075. 8164.87  15
   2   4  -4 139392. 6323.72  14
   3   4  -4 9424.36 2087.69   7
  -3   4  -4 10137.4 2144.72   7
   3  -4  -4 8716.08 1837.88  12
   3  -4   4 11216.4 2098.08  12
   3   4  -4 9304.98 1311.25  12
  -3  -4  -4 9958.54 1063.45  11
  -3  -4   4 10311.8 2050.40  11
  -3  -4  -4 11146.4 2136.56   3
   3   4  -4 10244.3 1932.09   6
   3   4  -4 9823.72 1892.37  10
  -3   4  -4 11200.3 2223.93  10
  -3  -4   4 9054.12 2185.14   5
   3  -4   4 9619.61 1666.97   5
   3   4   4 10512.8 2209.63   9
  -3   4   4 10031.6 2825.22   9
   3   4   4 10864.9 2575.51  15
  -3   4   4 10839.1 2191.89  15
   3   4  -4 9791.47 1886.50  14
  -3  -4  -4 8332.69 1171.98   7
  -4  -4  -4 79103.8 2480.14   7
   4   4  -4 96789.1 6800.83   7
  -4   4  -4 101865. 6698.01   7
   4  -4  -4 103856. 6557.88  12
   4   4  -4 96150.8 4157.54  12
   4  -4   4 101961. 6988.23  12
  -4  -4  -4 109306. 6514.80   3
  -4   4   4 94341.5 4283.91   6
   4   4  -4 108828. 6484.18   6
  -4   4  -4 108438. 7006.88  10
  -4  -4   4 93400.1 7441.44   5
   4  -4   4 111722. 5348.42   5
   4   4   4 104828. 6442.30   9
  -4   4   4 104461. 8551.40   9
   4   4   4 106884. 8132.17  15
  -4   4   4 100388. 6536.38  15
   4   4  -4 96858.4 6138.96  14
   5   4  -4 11564.0 2521.85   7
   5  -4  -4 13158.5 2460.05  12
   5  -4   4 12898.6 2574.93  12
  -5  -4  -4 13240.1 2464.45   3
   5   4  -4 13712.7 2314.39   6
  -5   4  -4 14369.2 2665.54  10
   5   4   4 14383.6 2268.57   9
  -5   4   4 11987.7 3002.17   9
   5   4   4 14593.5 3088.69  15
  -5  -4   4 9879.08 2556.30   5
   5   4  -4 12463.6 2430.91  14
   5   4   4 12962.4 2832.39  14
   6   4  -4 86449.9 7057.66   7
   6  -4  -4 103598. 7069.48  12
   6  -4   4 84449.8 7499.51  12
  -6  -4  -4 109723. 6951.18   3
  -6   4  -4 110413. 7504.47  10
  -6  -4   4 90548.4 6012.07   8
  -6  -4   4 83738.7 7953.43   5
   6   4   4 104578. 5583.25   9
  -6   4   4 104457. 8648.65   9
   6   4   4 106839. 8558.46  15
   6   4  -4 96817.4 6882.77  14
   6   4   4 107829. 7956.35  14
   7   4  -4 1300.89 771.549   7
   7  -4  -4 2093.76 1266.67  12
   7  -4   4 6982.59 2721.74  12
   7   4   4 2790.22 1403.37  15
  -7  -4  -4 2430.11 1239.25   3
  -7   4  -4 2242.41 1218.57  10
  -7   4   4 1938.95 1695.10   9
   7   4   4 2557.70 864.079   9
   7   4  -4 2404.28 1285.33  14
  -7  -4   4 2345.63 1120.73   8
   7   4   4 2725.03 1361.59  14
  -7  -4   4-530.171 1693.21   5
  -8  -4  -4 44701.7 7387.36  13
   8   4  -4 33111.2 4837.12   7
   8  -4  -4 45014.9 4956.97  12
   8  -4   4 34607.2 5726.22  12
  -8  -4  -4 45417.3 4915.61   3
  -8   4  -4 39526.4 4744.46  10
  -8  -4   4 30831.6 5270.10   5
  -8   4   4 48906.8 6050.25   9
   8   4   4 43551.0 5653.99  15
   8   4  -4 43274.6 5175.29  14
  -8  -4   4 33179.9 3599.60   8
   8   4   4 45781.1 5508.62  14
   9   4  -4 684.965 1006.38   7
   9  -4  -4 182.795 371.473  12
   9  -4   4 1812.41 2109.49  12
  -9  -4  -4 612.344 773.974   3
  -9   4  -4 185.043 88.4003  10
  -9   4   4 889.664 1232.57   9
   9   4   4 369.653 866.586  15
  -9  -4   4-1757.98 2062.99   5
   9  -4   4 240.702 539.237  15
   9   4  -4 814.451 799.760  14
  -9  -4   4-697.187 904.338   8
   9   4   4-809.189 848.365  14
 -10  -4  -4 29749.8 6506.96  13
  10   4  -4 20106.7 4123.04   7
 -10   4   4 36965.4 5538.18   1
  10  -4  -4 37578.7 4875.52  12
  10  -4   4 20382.0 4882.05  12
 -10  -4  -4 37573.2 5306.54   3
 -10   4  -4 35157.1 4665.44  10
 -10   4   4 31696.0 5127.50  10
 -10  -4   4 23327.5 4812.90   5
 -10   4   4 39742.7 5438.05   9
  10   4   4 41967.2 5957.79  15
 -10  -4   4 28696.4 3479.62   8
  10   4  -4 38069.5 5302.70  14
  10   4   4 42716.9 5568.75  14
 -11  -4  -4-629.776 1319.22  13
  11   4  -4-859.839 1348.09   7
  11  -4  -4 1270.94 1115.80  12
 -11   4   4 1554.74 1244.49   9
 -11   4  -4 505.453 114.917  10
  11  -4   4-1177.57 2068.01  12
  11   4   4 469.484 689.582  14
 -11   4   4-342.996 293.914  10
  11   4   4 827.658 828.026  15
 -11  -4   4-746.342 1414.23   5
 -11   4   4 45.4398 652.649   1
  11   4  -4 1558.01 1290.70  14
 -12  -4   4 54964.8 7226.79  13
 -12   4   4 48882.1 6868.59   1
 -12  -4  -4 19472.8 5406.79  13
  12  -4  -4 50318.3 6003.91  12
  12  -4   4 23977.3 5368.17  12
  12   4  -4 10819.5 2841.50   7
 -12   4  -4 49913.3 5936.28  10
 -12   4   4 44477.0 6147.26  10
 -12  -4   4 39622.4 6990.68   5
  12   4  -4 48859.3 6513.57  14
  12   4   4 55918.0 6828.27  14
 -13  -4  -4 5862.98 2156.64   4
 -13  -4  -4-2279.05 3097.15  13
  13   4  -4-1868.76 2056.23   7
  13  -4  -4 6999.16 2377.96  12
 -13   4   4 5813.66 2546.75   1
  13  -4   4 967.664 2461.36  12
 -13   4  -4 5639.50 1992.15  10
 -13   4   4 6359.50 2403.34  10
  13   4  -4 7347.05 2770.77  14
 -13  -4   4 6845.13 2935.88   5
 -13  -4   4 2330.47 839.272   2
  13   4   4 7903.62 2830.84  14
 -14  -4  -4 32946.5 5219.76   4
 -14  -4  -4 10689.2 3982.35  13
  14  -4  -4 36451.9 5393.83  12
 -14   4   4 34829.2 6194.38   1
  14   4  -4 345.112 2195.26   7
  14  -4   4 18750.5 4601.41  12
 -14   4  -4 35273.9 5249.70  10
 -14   4   4 31390.6 5411.18  10
 -14  -4   4 38347.4 7230.37   5
  14   4  -4 34661.1 5972.94  14
  14   4   4 41898.8 6327.02  14
 -15  -4  -4 541.736 344.027   4
 -15   4   4 312.246 831.183   1
  15  -4  -4 663.377 794.668  12
 -15  -4  -4 1534.59 1301.01  13
 -15   4  -4-271.576 709.031  10
 -15   4   4 83.7486 655.840  10
 -15  -4   4 1168.07 1505.17   5
  15   4  -4 1115.33 1222.44  14
  15   4   4 623.024 724.493  14
 -16  -4  -4 26613.0 4931.88   4
 -16  -4  -4 21938.3 5693.34  13
  16  -4  -4 29203.7 5085.77  12
 -16   4   4 30168.2 5948.16   1
  16  -4   4 16719.2 4444.69  12
 -16   4  -4 28021.1 4961.02  10
 -16   4   4 24038.6 5022.50  10
 -16  -4   4 36780.3 7264.47   5
  16   4  -4 26425.2 5617.03  14
  16   4   4 34181.3 5934.18  14
  17  -4  -4 4411.64 1868.81  12
 -17   4   4 8863.21 3187.55  10
 -17  -4   4 5417.99 2952.39   5
   0  -4   5-60.6157 257.827  12
   0   4  -5 493.256 654.237   7
   0  -4   5-249.095 271.745  11
   0   4  -5 479.797 711.712  10
   0   4   5-253.684 1365.42   9
   0   4   5 756.807 918.577  15
   0  -4   5 485.283 629.600   5
   0  -4  -5 273.821 410.706   3
   1   4  -5 167245. 9104.70   7
  -1   4  -5 163985. 8770.51   7
   1  -4  -5 165083. 8106.20  12
  -1  -4   5 159842. 5207.53  12
   1  -4   5 165128. 6613.77  12
  -1   4   5 177632. 10287.8  15
  -1  -4   5 186795. 8530.11  11
   1  -4   5 177130. 8091.39  11
  -1  -4  -5 187707. 8709.06   3
   1   4  -5 171439. 8417.30  10
  -1   4  -5 177214. 9059.74  10
  -1  -4   5 176106. 9345.08   5
   1  -4   5 176634. 8098.97   5
  -1   4   5 158276. 11386.7   9
   1   4   5 147817. 10400.9   9
   1   4   5 167573. 10172.8  15
   1  -4   5 127879. 4515.16  14
  -1   4   5 170996. 10582.5   2
  -1  -4  -5 144559. 6681.77   7
  -2  -4  -5 19134.4 2198.26   7
   2   4  -5 22817.3 3441.25   7
  -2  -4  -5 20229.7 1676.40   4
  -2   4  -5 24221.2 3410.23   7
  -2  -4   5 19243.8 1625.13  12
   2  -4  -5 21748.0 2968.60  12
   2  -4   5 22977.5 2780.29  12
   2  -4   5 12878.8 1269.31   3
  -2  -4   5 22942.1 3158.28  11
  -2  -4  -5 19580.2 1379.93  11
   2  -4   5 25568.2 3087.73  11
  -2  -4  -5 23957.9 3158.87   3
   2   4  -5 23692.0 3181.81  10
  -2   4  -5 24130.1 3474.89  10
  -2  -4   5 22992.5 3631.56   5
   2  -4   5 22130.6 2777.27   5
  -2   4   5 20228.7 4146.90   9
   2   4   5 20092.7 3679.14   9
   2   4   5 23395.3 3987.74  15
  -2   4   5 25065.4 4022.88  15
  -2   4   5 24019.7 4436.31   2
  -3  -4  -5 63220.8 3318.38   7
   3   4  -5 73686.6 6225.43   7
  -3  -4  -5 68102.8 3541.89   4
  -3   4  -5 75433.5 6000.04   7
   3  -4  -5 79691.2 5687.12  12
   3  -4   5 76688.5 5606.70  12
  -3  -4   5 78445.3 5803.12  11
  -3  -4  -5 79624.8 5710.02   3
   3   4  -5 76932.4 5586.72   6
  -3   4  -5 80857.2 6394.43  10
  -3   4   5 67299.6 7425.32   2
  -3  -4   5 70664.2 6705.12   5
   3  -4   5 79181.0 4807.52   5
  -3   4   5 72221.7 7882.86   9
   3   4   5 70826.5 6590.05   9
   3   4   5 73656.4 7042.65  15
   3   4  -5 72885.8 5229.83  14
  -4  -4  -5 141.971 181.650   4
  -4  -4  -5 26.1699 58.3537   7
   4  -4  -5-435.074 863.781  12
  -4   4   5 2751.83 1991.66   2
   4   4  -5 21.7035 184.476   7
   4  -4   5-584.409 720.187  12
  -4   4  -5-25.2920 466.459   7
  -4   4   5-776.206 1368.78   9
  -4  -4   5-582.473 1135.67   5
   4   4  -5-89.7639 320.981   6
  -4   4   5 27.9464 157.424   6
  -4   4  -5 1063.36 951.755  10
   4  -4   5 439.043 373.145   5
  -4  -4  -5-161.293 270.072   3
   4   4   5-470.040 1303.09   9
   4   4   5 379.218 493.834  15
   4   4  -5 344.120 646.145  14
  -4  -4   5 1215.30 1176.41   8
  -5  -4  -5 49266.1 3745.85   4
   5   4  -5 48902.8 5523.59   7
  -5   4  -5 54645.5 5237.70   7
   5   4   5 61094.7 6632.71  15
   5  -4  -5 56639.8 4960.04  12
   5  -4   5 47779.9 5285.93  12
  -5   4   5 44103.3 6430.50   2
  -5  -4  -5 55120.3 4909.40   3
   5   4  -5 55088.2 4682.36   6
  -5   4  -5 60026.0 5678.12  10
  -5  -4   5 40206.2 5619.81   5
   5   4   5 58203.9 5298.52   9
  -5   4   5 54343.2 6823.89   9
   5   4  -5 49085.0 4827.53  14
  -5  -4   5 49724.7 4906.15   8
   6   4   5 58.7415 34.2991  14
  -6  -4  -5 275.858 372.124   4
  -6  -4   5-1921.07 1981.49   5
   6  -4  -5 484.889 473.677  12
  -6   4   5 1113.96 1367.71   2
   6   4  -5-94.0729 426.109   7
   6   4  -5 176.817 192.865   6
  -6   4  -5 676.638 788.107  10
  -6  -4  -5 105.568 521.485   3
   6   4   5 457.383 404.559   9
  -6   4   5-16.9359 297.917   9
   6   4   5 816.747 1155.57  15
   6   4  -5 361.871 695.612  14
  -6  -4   5 419.174 778.402   8
  -7  -4  -5 86199.5 10078.4  13
  -7  -4  -5 75315.3 5425.32   4
   7   4  -5 70930.0 7232.22   7
   7  -4  -5 88932.3 6655.21  12
   7  -4   5 69197.6 7677.05  12
  -7  -4  -5 94918.8 6897.06   3
   7   4  -5 90562.5 6113.62   6
  -7   4  -5 91759.0 7233.29  10
  -7  -4   5 54770.8 7449.07   5
   7   4   5 86855.2 5566.72   9
  -7   4   5 89294.6 8761.92   9
   7   4   5 87828.5 8284.93  15
   7   4  -5 84240.2 6932.54  14
  -7  -4   5 69598.2 5771.68   8
   7   4   5 86657.0 7625.32  14
  -7   4   5 79452.0 8945.06   2
  -8  -4   5 3592.71 1237.35   5
  -8  -4  -5 17642.9 5097.14  13
  -8  -4  -5 8771.99 2060.43   4
   8  -4  -5 9646.19 2286.44  12
   8  -4   5 9811.44 3521.08  12
   8   4  -5 5152.57 2085.79   7
  -8  -4  -5 9152.44 2436.16   3
   8   4  -5 9177.78 1969.31   6
  -8   4   5 8302.26 3046.74   9
  -8   4  -5 8093.33 2312.84  10
   8   4   5 9710.21 3093.47  15
   8   4  -5 10552.9 2629.81  14
  -8  -4   5 6227.42 1726.24   8
  -8   4   5 6672.58 2609.44   2
   8   4   5 9022.92 2523.97  14
  -9  -4  -5 65512.1 9688.08  13
   9   4  -5 54420.7 6909.18   7
  -9  -4  -5 74538.5 6037.09   4
   9  -4  -5 87621.1 7063.09  12
   9  -4   5 34340.6 6272.15  12
  -9  -4  -5 94011.4 7636.35   3
   9  -4   5 82372.9 6149.72  15
  -9   4  -5 83672.9 7280.65  10
  -9  -4   5 42331.8 6973.96   5
  -9   4   5 90108.7 8849.47   9
   9   4   5 89062.6 8780.75  15
   9   4  -5 83998.6 7598.29  14
  -9  -4   5 65570.2 5837.57   8
   9   4   5 89666.0 8102.31  14
  -9   4   5 77963.9 9258.01   2
  10  -4   5 537.531 573.680  12
 -10  -4  -5 3962.73 2851.24  13
 -10  -4  -5 3205.82 1359.32   4
  10   4  -5-742.549 1412.24   7
  10  -4  -5 3698.24 1637.94  12
 -10  -4  -5 3565.10 1804.82   3
 -10   4  -5 4134.52 1764.49  10
  10   4   5 3838.94 2158.61  15
 -10   4   5 5645.73 2488.98   9
 -10  -4   5-1094.27 2008.91   5
 -10  -4   5 2086.78 1069.52   8
  10   4  -5 3079.53 1598.61  14
  10   4   5 2838.74 1488.33  14
 -11   4   5 55241.4 7256.23   1
  11   4  -5 20964.0 4501.11   7
 -11  -4  -5 53140.1 5690.96   4
 -11  -4  -5 23912.5 5783.46  13
  11  -4  -5 59770.3 6260.51  12
  11  -4   5 17380.0 4567.13  12
 -11   4  -5 54846.2 6209.18  10
 -11  -4   5 35812.5 6906.84   5
 -11   4   5 66544.8 7584.84   9
  11   4   5 64263.4 7845.92  15
  11   4  -5 54137.1 6575.88  14
  11   4   5 66826.1 7511.03  14
 -12  -4  -5-3922.15 3562.15  13
 -12  -4  -5 3014.08 1403.04   4
  12   4  -5-1557.97 2268.08   7
  12  -4  -5 4629.01 1771.19  12
  12  -4   5-1493.42 2778.76  12
 -12  -4   5 1582.24 1020.42   5
  12   4   5 2940.29 1550.76  15
  12   4   5 3993.45 1894.62  14
 -12   4  -5 3065.99 1557.37  10
 -12   4   5 1839.41 1049.64  10
 -12   4   5 3545.09 1916.45   1
 -12   4   5 3580.45 1854.35   9
  12   4  -5 3863.88 1949.50  14
 -13  -4  -5 26843.5 4336.23   4
 -13   4   5 24712.6 5231.26   1
 -13  -4  -5 12156.6 4552.06  13
  13  -4  -5 30604.0 4679.14  12
 -13  -4   5 24629.6 4337.52   2
  13   4  -5 5006.30 1506.62   7
  13  -4   5 10907.3 2301.23  12
  13   4   5 33583.6 5489.44  14
 -13   4  -5 28116.5 4739.00  10
 -13   4   5 24460.3 4979.93  10
 -13  -4   5 28348.4 6506.17   5
 -13   4   5 29096.1 5134.43   9
  13   4   5 33256.5 5884.34  15
  13   4  -5 27451.0 5239.39  14
 -14  -4  -5-225.461 875.400  13
 -14  -4  -5 1250.29 639.794   4
  14   4  -5-4715.86 3343.28   7
  14  -4  -5 1092.29 1084.29  12
  14  -4   5-6538.05 4533.59  12
  14   4  -5-3.99020 905.661  14
 -14   4  -5 874.973 1047.63  10
 -14   4   5 1893.88 1303.66  10
 -14  -4   5 2119.08 2596.20   5
 -14   4   5 838.525 1210.93   1
  14   4   5 80.4816 482.350  14
 -15   4   5 15880.2 4383.01   1
 -15  -4  -5 16076.2 3659.94   4
 -15  -4  -5 19778.1 6175.60  13
  15   4  -5 16817.2 4406.11  14
  15  -4  -5 16620.0 3669.75  12
  15  -4   5 5533.73 2537.37  12
 -15   4  -5 17801.5 3988.51  10
 -15   4   5 15373.8 3988.12  10
 -15  -4   5 19244.8 5590.18   5
  15   4   5 20514.2 4666.49  14
 -16  -4  -5 5105.32 2169.24   4
  16  -4  -5 3711.36 1805.45  12
 -16   4  -5 6865.98 2677.15  10
  16   4   5 7527.56 3097.15  14
 -16   4   5 5031.32 2294.18  10
 -16  -4   5 8779.82 3996.44   5
   0  -4  -6 77311.6 5581.25   7
   0   4  -6 83258.7 6781.63   7
   0  -4   6 77715.2 3902.67  12
   0  -4   6 92467.6 6316.97  11
   0   4  -6 83470.0 6572.06  10
   0  -4  -6 91132.0 6465.53   3
   0  -4   6 91150.8 6828.50   5
   0   4   6 85279.1 8128.53  15
   0   4   6 81108.5 7841.31   2
   1  -4  -6 1906.66 885.693   7
  -1  -4  -6 2931.67 1071.85   7
  -1  -4   6 2183.68 566.451  12
  -1   4   6 6984.59 2951.40   2
   1  -4   6 2617.09 854.866  12
   1   4  -6 2057.17 1142.24   7
  -1   4  -6 2559.96 1170.16   7
  -1  -4   6 2820.25 1092.57  11
   1  -4   6 1413.44 765.344  11
   1   4  -6 2760.12 1415.90  10
  -1   4  -6 2349.72 1297.00  10
  -1   4   6 2052.73 1482.41  15
  -1  -4  -6 2298.74 1008.92   3
  -1  -4   6 3319.99 1375.28   5
   1  -4   6 2715.03 1095.20   5
   1  -4  -6 2905.64 1017.93   3
   1   4   6 6456.18 2576.21   2
   1   4   6 3581.92 1813.98  15
  -2  -4  -6 62171.4 4042.60   7
   2   4  -6 71929.7 6499.89   7
  -2   4  -6 73364.6 6255.07   7
   2  -4  -6 73222.5 5612.20  12
   2  -4   6 69067.0 4751.50  12
  -2  -4   6 79144.1 5976.00  11
   2  -4   6 75333.7 5565.01  11
  -2  -4  -6 74733.2 5750.06   3
  -2   4  -6 75315.2 6504.68  10
  -2  -4   6 69775.7 6828.85   5
   2  -4   6 74464.3 5306.97   5
   2   4   6 69273.7 7330.72  15
  -2   4   6 64836.0 7874.53   2
   2  -4  -6 60820.6 5548.78   7
  -3  -4  -6 2228.58 657.288   7
   3  -4  -6 2072.33 911.260  12
  -3  -4   6 3662.22 1693.54   8
  -3   4   6 5585.47 3001.75   2
   3   4  -6 1831.67 1158.01   7
   3  -4   6 2133.87 968.941  12
  -3   4  -6 2639.95 1054.56   7
   3  -4   6 1523.07 630.182  11
  -3   4   6-1102.28 1901.46   9
  -3   4  -6 2534.92 1310.38  10
  -3  -4  -6 2208.28 1109.50   3
  -3  -4   6 219.637 1183.51   5
   3   4   6 3362.73 1725.78  15
   3  -4   6 2437.76 884.212   5
   3  -4  -6 1319.78 724.451   7
  -4  -4  -6 57163.5 7865.59  13
   4   4  -6 47661.6 5618.25   7
  -4  -4  -6 49082.7 3434.42   4
  -4   4  -6 50566.1 5205.10   7
   4  -4  -6 51354.1 4731.52  12
   4  -4   6 47804.7 4891.28  12
  -4  -4  -6 52615.5 4951.02   3
   4  -4   6 52493.4 4643.10  11
  -4   4  -6 58368.9 5789.75  10
  -4  -4   6 45782.0 5203.54   8
  -4  -4   6 33892.7 5433.52   5
   4  -4   6 52494.5 3979.25   5
  -4   4   6 39765.3 6689.24   9
   4   4   6 49952.7 6420.06  15
  -4   4   6 34291.1 6207.02   2
   5  -4   6 4663.39 1141.65   5
  -5  -4  -6 9605.74 4187.26  13
  -5  -4  -6 4102.36 1091.15   4
   5  -4  -6 3584.63 1127.34  12
   5   4  -6 3382.55 1546.36   7
  -5   4   6 2996.03 2114.27   2
   5  -4   6 2425.85 1291.29  12
  -5   4  -6 3145.60 1272.15   7
   5   4  -6 3878.44 1288.11   6
  -5   4  -6 5666.45 1798.06  10
  -5  -4  -6 3675.72 1235.42   3
   5   4   6 3774.31 1772.66  15
  -5  -4   6 702.810 769.500   5
  -5   4   6 2402.63 448.338   9
  -5  -4   6 3502.52 1590.36   8
  -6  -4  -6 60403.6 8812.76  13
   6   4  -6 55953.3 6643.66   7
  -6  -4  -6 61096.1 4503.26   4
   6  -4  -6 66303.7 5576.61  12
   6  -4   6 58011.7 6541.83  12
  -6  -4  -6 68836.6 5925.76   3
   6   4  -6 66065.9 5254.16   6
  -6   4  -6 70237.6 6645.41  10
   6   4   6 66985.7 7570.18  15
  -6  -4   6 37166.2 6296.75   5
  -6   4   6 66444.7 8385.13   9
   6   4   6 65173.3 6376.01   9
   6   4  -6 62638.4 5988.96  14
  -6  -4   6 51236.8 5441.91   8
  -6   4  -6 64945.9 6109.89   7
   6   4   6 66705.1 7086.07  14
  -6   4   6 49814.3 7808.69   2
  -7  -4  -6 13347.2 2357.24   4
  -7  -4  -6 13400.3 4420.66  13
   7  -4  -6 14082.7 2631.90  12
   7  -4   6 14353.6 4025.03  12
  -7  -4   6 7124.56 2574.66   5
   7   4  -6 11071.4 3083.59   7
  -7   4   6 9456.82 3486.69   2
  -7  -4  -6 14488.4 2805.70   3
   7   4  -6 14973.6 2468.73   6
  -7   4  -6 14969.2 3129.69  10
   7   4   6 14276.1 2576.12   9
   7   4   6 13924.5 3603.46  15
  -7   4   6 12717.3 3631.15   9
   7   4  -6 12108.9 2775.83  14
  -7  -4   6 12310.7 2521.53   8
   7   4   6 14528.9 3288.85  14
  -8   4   6 100305. 11252.6   2
  -8  -4  -6 66096.9 9997.71  13
   8   4  -6 80406.5 8649.97   7
  -8  -4  -6 100670. 6668.74   4
   8  -4  -6 111665. 7619.21  12
   8  -4   6 61956.3 8103.68  12
   8   4   6 116347. 9546.60  14
  -8  -4  -6 119264. 8370.64   3
   8   4  -6 117070. 7133.21   6
  -8   4  -6 120811. 9014.47  10
  -8  -4   6 49233.1 7881.17   5
  -8   4   6 116566. 11248.8   9
   8   4   6 120012. 10504.1  15
   8   4  -6 109218. 8582.04  14
  -8  -4   6 85006.7 7192.08   8
  -9  -4  -6-2089.68 2353.56  13
  -9  -4  -6 836.458 755.437   4
   9   4  -6-433.825 1290.31   7
   9  -4  -6 609.004 898.602  12
  -9   4   6 891.882 25.5697   2
   9  -4   6 1698.57 1530.18  12
   9   4  -6-41.7913 357.214   6
  -9  -4  -6 1551.88 1234.94   3
  -9  -4   6-1962.07 2780.95   5
  -9   4  -6 1231.78 1405.74  10
  -9   4   6 975.046 1645.50   9
   9   4   6 721.601 1360.00  15
   9  -4   6 1570.63 1332.02  15
   9   4  -6 1382.90 1286.20  14
  -9  -4   6 161.526 456.132   8
   9   4   6 2053.38 1319.16  14
 -10  -4  -6 36796.5 8062.02  13
  10   4  -6 53733.5 7587.04   7
 -10  -4  -6 85995.7 6932.73   4
  10  -4  -6 96738.6 7580.46  12
  10  -4   6 17383.2 4758.65  12
 -10  -4  -6 111366. 9187.13   3
 -10   4  -6 98562.7 8574.54  10
 -10   4   6 90835.0 10945.0   2
 -10  -4   6 40235.5 7593.55   5
 -10   4   6 99386.8 10118.2   9
  10   4   6 100290. 10064.1  15
 -10  -4   6 81493.7 7359.13   8
  10   4  -6 91782.3 8517.98  14
  10   4   6 110964. 9644.41  14
 -11  -4  -6 7589.96 3498.82  13
  11  -4  -6 11917.2 2680.67  12
 -11  -4  -6 10356.4 2502.52   4
  11  -4   6-2553.08 2869.86  12
 -11   4  -6 15147.6 3535.94  10
  11   4   6 14934.5 3907.60  15
 -11   4   6 12547.9 3621.18   9
 -11  -4   6 1739.29 972.586   5
  11   4  -6 10356.7 2976.30  14
 -11   4   6 7989.50 2945.80   2
  11   4   6 12553.3 3229.31  14
 -12  -4  -6 38730.0 5046.00   4
 -12  -4  -6 20775.9 6291.60  13
  12  -4  -6 40982.8 5234.07  12
  12   4  -6 15920.4 3948.30   7
  12  -4   6 643.578 3062.73  12
 -12   4  -6 46707.8 6223.52  10
 -12  -4   6 21843.8 5865.18   5
 -12   4   6 42205.4 6525.44   9
  12   4   6 41415.7 6760.98  15
  12   4  -6 38230.3 6036.56  14
  12   4   6 46362.8 6549.92  14
 -13  -4  -6 345.159 1615.58  13
 -13  -4  -6 604.884 820.005   4
  13   4  -6-5064.00 3336.86   7
  13  -4  -6 13.8929 67.6047  12
  13  -4   6-7663.39 5177.26  12
 -13  -4   6 1246.95 1096.37   5
 -13   4  -6 2089.86 1594.26  10
 -13   4   6-724.643 1245.12  10
 -13   4   6 1342.68 697.664   1
 -13   4   6-457.613 1416.85   9
  13   4   6 2029.63 1416.93  15
  13   4  -6 744.901 1081.20  14
 -13  -4   6-1591.28 1871.18   2
  13   4   6 1355.20 1527.28  14
 -14  -4  -6 17498.4 3754.89   4
 -14  -4  -6 20728.5 5140.31  13
 -14  -4   6 18753.0 4164.24   2
  14   4  -6 3058.79 1321.39   7
  14  -4   6 2177.41 4199.63  12
 -14   4  -6 20459.0 4455.76  10
 -14  -4   6 23413.5 6265.39   5
 -14   4   6 15035.5 3955.61  10
  14   4   6 23790.0 5167.73  15
 -14   4   6 18718.7 4248.50   9
 -14   4   6 15060.9 4225.60   1
  14   4  -6 19754.6 4672.52  14
  14   4   6 23802.1 4845.03  14
 -15  -4  -6 549.898 840.419   4
  15   4  -6-7631.19 4138.13   7
  15  -4   6-10499.7 5839.49  12
 -15  -4   6 4706.06 3165.03   5
 -15   4  -6 3065.54 2042.67  10
 -15   4   6 1222.04 888.533  10
 -15   4   6-1177.93 767.977   9
  15   4  -6 1815.82 1483.10  14
  15   4   6 2137.47 1484.79  14
 -16   4  -6 19820.3 4508.09  10
 -16   4   6 15251.5 4196.84  10
   0  -4  -7 329.449 583.972   7
   0   4  -7-504.517 443.992   7
   0  -4   7 26.7123 481.907  11
   0   4   7 1054.81 1042.92  15
   0  -4   7-136.774 481.898   5
   0  -4  -7-27.2698 396.304   3
   1  -4  -7 39842.9 4526.91   7
  -1  -4  -7 44039.9 3990.02   7
  -1  -4  -7 50970.9 6631.46  13
   1   4  -7 45936.7 5504.34   7
  -1   4  -7 48049.7 5358.89   7
  -1  -4   7 50653.2 4967.70  11
   1  -4   7 47669.2 4715.21  11
  -1  -4  -7 48015.5 4849.81   3
  -1   4  -7 45865.1 5307.07  10
   1  -4  -7 53196.6 5276.61   3
  -1  -4   7 42404.5 5336.43   5
   1  -4   7 45957.9 4886.25   5
   1   4   7 44174.3 6468.48  15
  -1   4   7 45921.5 6656.88  15
  -1  -4   7 48406.0 5670.25   8
   1   4   7 43474.8 6396.29   2
  -1   4   7 40305.6 6971.69   2
  -2  -4  -7 7268.45 3344.00  13
   2  -4  -7 2131.99 1189.67   7
  -2  -4  -7 1488.50 795.233   7
   2   4   7 4751.99 2431.78   2
   2  -4   7 1675.23 816.679  12
   2   4  -7 2127.58 1303.08   7
  -2   4   7 6668.79 3500.95   2
  -2   4  -7 809.005 451.671   7
   2  -4   7 959.395 763.190  11
  -2   4  -7 2248.23 1457.42  10
  -2  -4  -7 1494.51 920.845   3
  -2  -4   7 877.677 583.645   5
   2   4   7 1611.63 1488.30  15
   2  -4   7 1763.06 983.115   5
  -2  -4   7 3177.82 1766.49   8
  -3  -4  -7 82383.7 9379.24  13
   3   4  -7 87372.7 7899.12   7
  -3   4  -7 89944.2 7348.89   7
   3  -4  -7 94371.4 6594.12  12
   3  -4   7 82835.2 5866.55  12
   3  -4   7 95313.5 6529.29  11
  -3  -4  -7 95340.4 6877.24   3
  -3   4  -7 98039.6 7938.72  10
  -3  -4   7 77163.6 8278.50   5
   3  -4   7 94632.2 5930.02   5
   3   4   7 88574.1 9031.55  15
  -3  -4   7 94964.9 7775.95   8
   3   4   7 84946.5 7486.33   2
   3  -4  -7 78143.5 7040.27   7
  -4  -4  -7 17855.8 4942.72  13
   4   4  -7 18833.2 3861.43   7
  -4   4  -7 21390.8 3484.84   7
   4  -4  -7 20411.9 3033.66  12
   4  -4   7 17744.3 3020.66  12
  -4   4   7 11504.5 3900.97   2
  -4  -4  -7 21757.6 3225.23   3
   4  -4   7 21683.4 3050.43  11
   4  -4  -7 16626.8 3332.81   7
  -4   4  -7 22831.4 3789.18  10
   4  -4   7 22622.4 2632.85   5
   4   4   7 22711.3 4636.71  15
  -4  -4   7 12160.9 3492.56   5
  -4  -4   7 16632.9 3319.19   8
  -5   4   7 50890.9 8712.55   2
  -5  -4  -7 56738.0 8637.69  13
   5   4  -7 80763.5 8106.89   7
  -5   4  -7 86626.1 7269.07   7
   5  -4  -7 91265.2 6557.50  12
   5  -4   7 73147.6 6913.14  12
  -5  -4  -7 90299.8 6905.29   3
   5  -4   7 96613.5 6659.52  11
  -5   4  -7 98167.1 8106.51  10
  -5   4   7 82441.3 10458.9   9
  -5  -4   7 69856.1 6906.78   8
  -5  -4   7 53584.4 7751.14   5
   5   4   7 90702.6 9388.47  15
   5  -4  -7 71938.3 7167.73   7
   6   4   7-73.6418 459.344  14
  -6  -4  -7 236.003 784.301  13
   6  -4  -7 42.9144 360.305   7
   6  -4  -7-62.2324 440.368  12
   6   4  -7 561.986 855.035   7
  -6   4   7-653.969 1201.09   2
   6  -4   7 2595.55 1709.90  12
  -6   4  -7 969.531 889.021   7
  -6   4  -7 481.258 953.650  10
  -6  -4  -7 564.432 731.914   3
  -6  -4   7 1301.00 642.550   5
   6   4   7 450.299 840.066  15
  -6   4   7-848.288 1646.62   9
  -6  -4   7 227.928 530.589   8
   7   4  -7 42799.9 6382.36   7
  -7  -4  -7 50392.8 4408.39   4
  -7  -4  -7 19054.9 5285.90  13
   7  -4  -7 54660.4 5251.55  12
   7  -4   7 38949.6 5985.82  12
  -7  -4  -7 57611.0 5830.98   3
  -7   4  -7 56703.9 6419.54  10
  -7  -4   7 15792.2 4475.24   5
  -7   4   7 55041.2 8407.80   9
   7   4   7 56810.5 7612.23  15
  -7  -4   7 40739.9 5436.64   8
   7   4   7 54843.5 6991.68  14
   7  -4  -7 40131.0 5709.87   7
  -7   4   7 36178.8 7488.65   2
   8   4   7 6708.95 2309.71  14
  -8  -4  -7 8136.13 1894.70   4
  -8  -4  -7-1110.67 2849.20  13
   8  -4  -7 4699.90 1796.51   7
   8  -4  -7 6920.05 1881.53  12
   8   4  -7 4007.47 1702.51   7
  -8   4   7 3489.91 1820.38   2
   8  -4   7 3696.29 1921.83  12
   8   4   7 7543.30 2739.08  15
  -8  -4  -7 7782.63 2175.58   3
  -8   4  -7 7690.24 2439.75  10
  -8  -4   7 625.412 885.665   5
  -8   4   7 8892.83 3436.02   9
  -8  -4   7 4587.68 1682.29   8
   9   4  -7 31165.5 5776.78   7
  -9  -4  -7 43524.1 4642.69   4
  -9  -4  -7 17837.2 5552.47  13
   9  -4  -7 47243.9 5129.12  12
   9  -4   7 20132.8 4805.70  12
  -9  -4  -7 54842.5 6157.17   3
  -9   4  -7 51106.9 6251.41  10
  -9   4   7 54975.6 8098.58   9
   9   4   7 50894.8 7279.84  15
  -9  -4   7 38797.6 5511.78   8
   9   4   7 55699.0 7048.80  14
  -9   4   7 38776.9 7611.92   2
   9  -4  -7 35209.7 5590.31   7
 -10  -4  -7 929.015 1040.39  13
  10  -4  -7 1972.03 1217.89   7
 -10  -4  -7 4539.80 1621.84   4
  10  -4  -7 4879.59 1666.90  12
  10   4  -7-1249.94 1868.20   7
 -10   4   7 1633.89 393.408   2
  10  -4   7-879.918 1817.38  12
 -10  -4  -7 4870.19 1894.20   3
 -10   4  -7 4187.62 1820.88  10
  10   4   7 3878.37 1713.26  14
 -10  -4   7-2028.75 3054.70   5
 -10   4   7 3950.39 2052.72   9
  10   4   7 2882.97 1685.91  15
 -10  -4   7 2854.26 1420.90   8
 -11  -4  -7 31549.5 4403.86   4
 -11  -4  -7 20822.5 6317.92  13
  11   4  -7 16495.5 4363.66   7
  11  -4   7 379.850 2739.37  12
 -11   4  -7 36140.8 5504.30  10
 -11   4   7 37451.3 6532.35   9
  11   4   7 38251.2 6556.87  15
 -11  -4   7 10018.7 3375.30   5
 -11  -4   7 31127.5 5143.97   8
 -11   4   7 30354.3 6619.80   2
  11  -4  -7 26862.0 4900.63   7
  11   4   7 38899.4 6101.97  14
 -12  -4  -7 4053.07 3766.29  13
  12  -4  -7-426.379 947.459   7
 -12  -4  -7 1121.35 796.999   4
  12   4  -7-5464.75 3573.93   7
  12  -4   7-6776.91 5051.85  12
 -12   4  -7 1994.90 1423.38  10
 -12   4   7 2394.01 1399.15   9
 -12  -4   7-2998.36 3101.79   5
  12   4   7 1798.00 1486.94  15
 -12   4   7-1.23288 1848.34   2
  12   4   7 2737.91 1631.40  14
 -12  -4   7-2371.28 2223.79   2
 -13  -4  -7 26488.2 4405.90   4
 -13  -4  -7 12132.7 4221.89  13
 -13  -4   7 22918.7 4938.78   2
  13   4  -7 13135.7 3704.16   7
  13  -4   7 2234.08 3957.28  12
 -13   4  -7 32654.3 5500.89  10
 -13  -4   7 23075.7 6185.93   5
 -13   4   7 31708.1 5920.23   9
  13   4   7 32954.0 6329.41  15
  13   4   7 35886.4 6125.67  14
  13  -4  -7 22264.1 4962.95   7
 -14  -4  -7 6749.62 2256.89   4
  14   4  -7-2246.32 3119.68   7
  14  -4   7-5497.04 5482.42  12
 -14  -4   7 11872.3 4642.58   5
 -14   4  -7 9236.00 3253.87  10
 -14   4   7 5400.64 2364.99  10
 -14   4   7 8765.43 3216.89   9
 -14  -4   7 4586.84 1969.11   2
  14   4   7 9545.28 3236.50  14
 -15  -4  -7 32561.6 5178.34   4
  15   4  -7 15238.1 4005.56   7
 -15   4  -7 39215.3 6332.10  10
 -15   4   7 26649.3 5639.48  10
 -15   4   7 33214.6 6113.85   9
   0  -4  -8 30698.8 3774.74   7
   0   4  -8 32472.0 4781.23   7
   0  -4   8 36899.2 4442.49  11
   0  -4  -8 34578.0 4220.62   3
   0  -4   8 36570.2 4871.78   5
   0   4   8 32347.2 6251.18  15
   0  -4   8 36609.7 5345.62   8
   0   4   8 25777.5 5724.00   2
  -1  -4  -8 1057.49 908.135  13
   1  -4  -8 2809.62 1407.33   7
  -1  -4  -8 2658.42 1108.77   7
  -1  -4   8 3676.08 1715.41   8
   1   4   8 3759.12 2413.24   2
   1   4  -8 2898.29 1632.99   7
  -1   4   8 2817.87 2669.44   2
  -1   4  -8 2872.75 1587.80   7
   1  -4   8 2342.72 1155.48  11
  -1  -4  -8 2372.32 1087.37   3
  -1  -4   8 1418.07 200.518   5
   1   4   8 3533.96 2271.81  15
  -1   4   8 4068.07 2684.59  15
   1  -4   8 2533.31 1352.24   5
   1  -4  -8 1944.10 895.688   3
   1  -4   8 2628.62 1610.14   8
  -2   4   8 41751.3 7735.13   2
   2  -4  -8 81557.4 7007.71   7
  -2  -4  -8 37804.7 6373.67  13
   2   4  -8 88005.0 8151.29   7
  -2   4  -8 88210.8 7601.64   7
   2  -4   8 100844. 7035.24  11
  -2  -4  -8 91604.4 7019.90   3
   2  -4  -8 97778.8 7547.52   3
  -2  -4   8 93219.3 8297.94   8
  -2  -4   8 91412.4 8968.34   5
   2  -4   8 93775.3 6767.72   5
   2   4   8 97757.7 10348.1  15
   2  -4   8 101173. 8543.39   8
   2   4   8 83800.7 8953.61   2
  -3  -4  -8-699.068 1468.89  13
   3  -4  -8 1506.68 1372.89   7
  -3  -4   8-664.000 1357.51   5
   3   4   8 2225.34 1851.12   2
   3   4  -8 1150.54 1287.65   7
  -3   4   8-287.623 1229.68   2
  -3   4  -8 1296.19 1250.82   7
   3  -4   8 3706.01 2044.96   8
   3  -4   8 1533.26 1075.73  11
  -3  -4  -8 710.419 788.395   3
   3   4   8 2979.36 2296.28  15
  -3  -4   8 1072.44 1183.11   8
   4  -4  -8 95535.8 8214.25   7
  -4   4   8 36861.2 7954.06   2
  -4  -4  -8 40197.9 7249.01  13
   4   4  -8 102814. 9368.33   7
  -4   4  -8 112161. 8579.17   7
  -4  -4  -8 116021. 7835.79   3
   4  -4   8 129577. 7925.83  11
  -4   4  -8 124282. 9495.70  10
  -4  -4   8 88672.1 9910.08   5
   4   4   8 117230. 11201.5  15
  -4  -4   8 97618.7 8605.72   8
   4  -4   8 129460. 9658.70   8
  -5  -4  -8-1245.87 2423.40  13
   5  -4  -8 4549.73 1605.44  12
   5  -4  -8 4182.61 2086.21   7
   5   4  -8 4429.18 2144.04   7
  -5   4   8 44.9283 1003.71   2
  -5   4  -8 4679.54 1885.00   7
   5  -4   8 4355.09 1506.27  11
  -5   4  -8 5052.68 2018.45  10
  -5  -4  -8 3901.54 1559.30   3
  -5  -4   8 1797.63 766.728   5
   5   4   8 5141.15 2668.23  15
  -5  -4   8 1204.90 689.132   8
   6  -4  -8 32420.9 5093.47   7
  -6  -4   8 17806.7 4660.37   5
   6   4  -8 33133.2 5727.04   7
  -6  -4  -8 11077.9 3497.10  13
  -6   4  -8 39286.9 5135.11   7
   6  -4  -8 40449.7 4515.55  12
   6  -4   8 33738.7 4980.59  12
  -6  -4  -8 41642.9 4964.92   3
  -6   4   8 23560.0 6204.91   2
   6  -4   8 44730.1 4673.28  11
  -6   4  -8 43609.4 5706.63  10
   6   4   8 42869.3 6793.63  15
  -6  -4   8 27208.1 4752.38   8
   7   4   8-873.172 1347.34  14
  -7  -4  -8 172.109 1704.03  13
   7  -4  -8 1048.08 974.178   7
   7  -4  -8 1192.15 763.113  12
   7   4  -8 617.634 897.402   7
  -7   4   8-814.738 2280.38   2
   7  -4   8 797.826 496.237  12
  -7  -4   8-406.358 1052.27   8
  -7   4  -8 1408.16 1107.82   7
   7  -4   8-350.345 1019.59  11
  -7   4  -8 1899.62 1424.17  10
  -7  -4  -8 1319.15 940.210   3
  -7  -4   8-1717.22 2526.90   5
   7   4   8 220.671 941.342  15
  -7   4   8 149.924 1587.31   9
   8  -4  -8 17561.6 4120.26   7
   8   4  -8 16787.7 4334.81   7
  -8  -4  -8 9883.43 4123.91  13
  -8  -4  -8 25422.5 4125.05   3
  -8   4   8 14885.6 5037.18   2
   8  -4   8 13697.7 3578.44  12
   8  -4   8 22792.3 3249.63  11
  -8   4  -8 25514.7 4536.48  10
   8   4   8 21941.1 4972.79  15
  -8  -4   8-1148.89 2559.28   5
  -8   4   8 24335.5 5860.21   9
  -8  -4   8 15967.6 3797.63   8
   8   4   8 20950.9 4477.01  14
  -9  -4  -8 1379.96 2292.70  13
   9  -4  -8 802.259 1004.01   7
  -9  -4   8-3062.11 3670.26   5
   9   4  -8-917.131 1040.06   7
  -9   4   8-337.842 1486.98   2
   9  -4   8-1286.92 2027.59  12
  -9  -4  -8 744.610 854.803   3
  -9   4  -8 982.255 916.965  10
   9   4   8 2267.45 1468.59  15
  -9   4   8 592.987 1650.35   9
  -9  -4   8 462.343 410.521   8
   9   4   8 104.065 741.537  14
 -10  -4  -8 16450.9 5583.72  13
 -10  -4  -8 23542.7 4424.84   3
  10   4  -8 12279.3 3837.85   7
 -10   4   8 14793.2 4933.73   2
  10  -4   8 8983.37 2710.86  12
 -10   4  -8 20917.1 4374.31  10
  10   4   8 22227.6 5187.03  15
  10  -4  -8 16027.2 3905.91   7
 -10   4   8 23108.8 5546.98   9
 -10  -4   8 16202.8 3972.43   8
  10   4   8 23493.4 4866.01  14
  11   4   8 1677.87 1145.15  15
 -11  -4  -8-7135.45 4783.72  13
  11  -4  -8 953.213 884.668   7
  11   4  -8-210.362 1553.96   7
 -11   4   8-2231.65 2813.90   2
  11  -4   8-3884.91 3688.03  12
 -11   4  -8 1657.93 1351.44  10
 -11   4   8 2396.54 1197.59   9
 -11  -4   8-7183.90 5013.72   5
 -11  -4   8 3368.18 1949.31   8
  11   4   8 1307.34 970.981  14
 -12  -4  -8 5408.40 1414.66  13
 -12   4   8 17604.8 5008.50   2
  12   4  -8 14425.4 4343.45   7
  12  -4   8 5129.49 2108.91  12
  12   4   8 22404.5 5315.80  15
 -12   4  -8 24714.8 4986.41  10
 -12  -4   8 4041.80 2395.32   5
 -12   4   8 24857.1 5514.87   9
  12   4   8 24617.7 5159.18  14
 -12  -4   8 13873.0 3801.65   2
  12  -4  -8 17597.2 4270.77   7
  13   4  -8-4303.68 2953.21   7
  13  -4   8-6979.95 5308.11  12
 -13   4  -8 1292.44 1289.60  10
 -13  -4   8-243.156 972.379   2
 -13   4   8 1166.18 1320.51   9
  13   4   8 2083.11 1778.98  14
 -14  -4   8 32775.3 6159.86   2
   0  -4  -9 1220.61 886.106   7
   0   4   9-240.060 1076.57   2
   0   4  -9 1531.10 1394.49   7
   0  -4  -9 161.245 291.043   3
   0   4   9 3809.65 2453.96  15
   0  -4   9 1049.71 985.912   5
   0  -4   9 139.403 660.518   8
   1  -4  -9 36585.1 4471.24   7
   1   4  -9 41038.2 5679.95   7
  -1   4  -9 43227.8 5720.65   7
  -1  -4   9 35991.0 5656.09   8
  -1   4   9 16491.1 4888.30   2
   1  -4   9 44719.4 4892.14  11
  -1  -4  -9 39331.8 4725.25   3
   1  -4  -9 38996.1 4741.96   3
  -1  -4   9 44999.5 6094.25   5
   1  -4   9 45521.8 5435.25   5
   1   4   9 43655.5 7547.26  15
  -1   4   9 42095.9 7705.07  15
   1  -4   9 44392.5 5980.15   8
   1   4   9 29327.6 6106.27   2
   2  -4  -9 16681.3 3273.06   7
   2   4  -9 17581.8 3924.54   7
  -2   4  -9 17267.3 3532.12   7
   2  -4   9 19860.7 3333.71  11
  -2  -4  -9 17660.6 3280.65   3
   2  -4  -9 15699.0 3108.21   3
  -2  -4   9 17752.3 4125.59   5
   2   4   9 20362.9 5311.29  15
  -2  -4   9 15223.7 3658.71   8
   2  -4   9 20966.9 4374.88   8
   2   4   9 15748.5 4395.04   2
   3  -4  -9 76936.0 7214.45   7
   3   4  -9 84976.5 8584.06   7
  -3   4  -9 84915.4 7913.12   7
   3  -4   9 98954.8 9080.40   8
  -3  -4  -9 88130.1 7085.12   3
   3  -4   9 99940.2 7203.61  11
   3  -4  -9 96060.4 7859.18   3
  -3  -4   9 82417.7 9539.97   5
   3   4   9 96562.5 11080.6  15
  -3  -4   9 77955.5 8227.63   8
   3   4   9 89906.1 9199.77   2
  -4  -4  -9 3712.89 2357.41  13
   4  -4  -9 2473.21 1704.86   7
   4   4  -9 2015.09 1609.32   7
  -4   4   9-2915.01 3138.84   2
  -4   4  -9 1997.23 1258.95   7
   4  -4   9 1804.17 1340.72  11
  -4  -4  -9 1737.29 1098.80   3
  -4  -4   9-1622.82 1990.63   5
   4   4   9 4863.88 2836.96  15
  -4  -4   9-68.0341 768.490   8
   4  -4   9 3306.10 1973.78   8
   5  -4  -9 42855.2 5874.03   7
  -5  -4  -9 21537.8 5277.34  13
   5   4  -9 42735.8 6524.56   7
  -5   4  -9 49638.1 5945.85   7
  -5  -4  -9 48572.9 5457.01   3
  -5   4   9 15094.7 4778.39   2
  -5  -4   9 31186.0 6315.97   5
   5   4   9 50410.0 7984.64  15
  -5  -4   9 39650.4 5919.83   8
   5  -4   9 66627.7 7392.18   8
  -6  -4  -9 6032.05 3108.79  13
   6  -4  -9 1187.74 1440.73   7
   6   4  -9 483.055 712.246   7
  -6   4   9-2363.40 2462.26   2
  -6   4  -9 647.719 756.373   7
   6   4   9 179.094 670.491  15
  -6  -4  -9 1365.54 1209.13   3
  -6  -4   9-2977.07 3118.50   5
  -6  -4   9-1332.28 1439.98   8
   6  -4   9 2037.61 1606.83   8
   7  -4  -9 21752.1 4525.71   7
   7   4  -9 22475.6 5076.64   7
  -7  -4  -9 14079.7 4063.48  13
  -7   4  -9 25927.9 4294.13   7
  -7  -4  -9 24837.0 4064.55   3
  -7   4   9 13445.1 4730.01   2
   7   4   9 24874.2 5563.92  15
  -7  -4   9 5293.79 2009.94   5
  -7   4   9 24132.1 6448.78   9
  -7  -4   9 19510.3 4509.24   8
   7  -4   9 29377.6 5021.47   8
   7   4   9 23008.2 5127.24  14
   8   4   9-881.172 1026.54  14
   8  -4  -9 1128.20 939.710   7
   8   4  -9 152.279 438.766   7
  -8   4   9-1143.47 2529.06   2
  -8   4  -9 1726.23 1539.77  10
  -8  -4  -9 974.482 986.460   3
  -8  -4   9-3218.81 3741.75   5
   8   4   9 309.141 1007.50  15
  -8   4   9 902.097 1873.38   9
  -8  -4   9-76.6623 756.278   8
   8  -4   9 1418.06 1645.80   8
   9  -4  -9 36205.8 6146.86   7
   9   4  -9 33983.9 6811.07   7
  -9  -4  -9 18127.2 4126.20  13
  -9  -4  -9 50145.7 6438.22   3
   9  -4   9 53831.1 6851.03   8
  -9   4  -9 48768.9 6614.13  10
  -9   4   9 53101.8 9068.23   9
   9   4   9 49014.8 7929.32  15
  -9  -4   9-1007.89 3871.12   5
  -9  -4   9 36082.1 6322.07   8
   9   4   9 44146.2 6841.14  14
  -9   4   9 31407.6 7654.30   2
  10  -4  -9 2475.78 1974.03   7
 -10  -4  -9 969.565 1272.25   3
  10   4  -9 1293.78 1718.56   7
 -10   4   9-619.674 1926.36   2
 -10   4  -9 522.028 644.560  10
  10   4   9 2309.29 2161.23  15
 -10   4   9 2520.17 2572.05   9
 -10  -4   9-146.676 563.215   8
  10  -4   9 1817.40 1541.25   8
  10   4   9-762.164 656.789  14
  11   4  -9 23194.6 5894.05   7
 -11  -4  -9 15299.2 4511.24  13
 -11   4  -9 26222.8 5104.31  10
 -11  -4   9 22832.2 4980.06   8
 -11   4   9 25347.9 6010.09   9
  11  -4   9 34085.1 5573.95   8
  11   4   9 27996.3 5576.46  14
  11  -4  -9 21442.5 4915.53   7
 -11  -4   9 16132.2 4297.90   2
   0   4 -10 26930.4 4849.33   7
   0   4  10 14380.4 4490.82   2
   0  -4 -10 28511.4 4110.77   3
   0   4  10 34445.3 7312.58  15
   0  -4  10 27032.9 5090.66   8
   1  -4 -10 1609.89 1086.12   7
   1   4  10-57.2540 1533.87   2
   1   4 -10 2124.93 1501.16   7
  -1   4  10-2594.27 2905.97   2
  -1   4 -10 2181.24 1458.27   7
  -1  -4 -10 1664.75 1062.35   3
   1  -4 -10 861.994 799.790   3
  -1  -4  10 1178.66 686.866   5
   1   4  10 5583.06 3180.54  15
  -1   4  10 6142.72 3687.19  15
  -1  -4  10 272.765 455.505   8
   1  -4  10 1007.88 917.927   8
   2  -4 -10 40752.1 5159.77   7
   2   4 -10 42160.9 6320.53   7
  -2   4 -10 41427.2 5729.23   7
  -2  -4 -10 42849.4 5112.37   3
   2  -4 -10 41312.2 5144.41   3
  -2  -4  10 43818.3 6802.11   5
   2   4  10 48726.5 8536.19  15
  -2  -4  10 41383.4 6303.83   8
   2  -4  10 45031.1 6645.79   8
   2   4  10 37322.0 6815.26   2
   3  -4 -10 1790.54 1385.30   7
   3  -4  10 1543.97 1293.31   8
   3   4 -10 1943.47 1652.30   7
  -3   4 -10 917.612 739.424   7
  -3  -4 -10 1420.00 927.901   3
  -3  -4  10-12.4948 1480.44   5
   3  -4 -10 872.775 482.828   3
  -3  -4  10 1297.30 418.761   8
   3   4  10 5163.36 3016.99  15
   4  -4 -10 29784.9 4815.58   7
   4   4 -10 32258.5 5670.63   7
  -4   4 -10 34156.2 5141.62   7
  -4  -4 -10 33489.4 4562.14   3
   4   4  10 37959.5 7587.72  15
  -4  -4  10 30228.7 5508.98   8
   4  -4 -10 33061.4 4809.92   3
  -4  -4  10 30541.3 6439.97   5
   4  -4  10 38695.4 6123.47   8
   5  -4 -10 677.495 945.079   7
   5  -4  10 1413.92 1297.91   8
   5   4 -10 1018.39 1269.38   7
  -5   4  10-2364.35 2636.03   2
  -5   4 -10 1495.07 1171.58   7
   5  -4 -10 183.104 815.780   3
  -5  -4 -10-24.7303 214.877   3
  -5  -4  10-1928.61 2520.40   5
   5   4  10 1619.62 1461.23  15
  -5  -4  10 1094.95 892.395   8
   6  -4 -10 18364.7 3995.65   7
   6   4 -10 17811.3 4667.25   7
  -6   4 -10 19036.2 3791.18   7
  -6  -4 -10 19578.0 3701.20   3
  -6   4  10 7202.70 3187.14   2
   6   4  10 19968.4 5409.73  15
  -6  -4  10 10218.4 3460.41   5
   6  -4  10 22175.7 4592.69   8
  -6  -4  10 13652.6 4120.17   8
   7   4  10 1704.73 1269.76  14
  -7  -4 -10-2459.26 3065.45  13
   7  -4 -10 1607.59 1465.99   7
   7   4 -10 85.7107 407.250   7
  -7   4  10-2191.57 3005.69   2
  -7   4 -10 1373.24 1036.80   7
   7   4  10 2347.69 1988.71  15
  -7  -4 -10 804.881 897.093   3
  -7  -4  10-4634.18 3857.61   5
  -7  -4  10 523.460 874.375   8
   7  -4  10-1034.92 1058.71   8
  -8   4  10 44979.5 9668.69   2
   8  -4 -10 49432.1 6884.18   7
  -8  -4 -10 45072.8 7841.77  13
   8   4 -10 47359.1 7922.63   7
  -8  -4 -10 60639.4 6985.97   3
  -8   4  10 57697.4 10527.1   9
   8   4  10 59787.9 9247.90  15
  -8  -4  10 24099.1 6585.86   5
  -8  -4  10 50451.8 7928.17   8
   8  -4  10 66800.5 7932.40   8
   8   4  10 57257.5 8205.19  14
  -9  -4 -10 886.665 1172.97  13
   9  -4 -10 2027.85 1774.73   7
   9  -4  10-65.7218 825.289   8
  -9  -4 -10 912.666 1112.18   3
  -9  -4  10 1066.95 1314.06   8
   9   4  10 1281.57 1191.41  14
 -10  -4 -10 62124.0 9789.03  13
 -10  -4  10 60767.4 8803.72   8
  10  -4  10 86177.2 9193.11   8
   0   4  11-3833.60 3306.12   2
   0   4 -11 452.598 742.800   7
   0  -4  11-1827.36 1812.83   8
   0  -4 -11 398.401 687.684   3
   0   4  11 2861.38 3169.33  15
   1   4 -11 33116.8 5739.18   7
  -1   4 -11 33363.5 5596.05   7
  -1   4  11 18608.5 5563.73   2
  -1  -4 -11 29794.4 4481.83   3
   1  -4 -11 28510.3 4399.39   3
   1   4  11 35973.7 7957.69  15
  -1   4  11 33314.2 8085.25  15
  -1  -4  11 28972.4 6082.02   8
   1  -4  11 35054.0 6230.61   8
   1   4  11 29203.6 6624.20   2
   2   4 -11 2765.67 1893.39   7
  -2   4  11-3511.26 2994.16   2
  -2   4 -11 2208.28 1504.68   7
  -2  -4 -11 1021.77 830.600   3
   2  -4 -11 1478.16 1067.98   3
   2   4  11 6090.15 3466.82  15
  -2  -4  11 214.291 1280.94   8
   2  -4  11 743.244 479.978   8
   3  -4 -11 33797.4 5063.15   7
   3   4 -11 38789.2 6564.48   7
  -3   4 -11 43842.7 6236.10   7
   3  -4  11 47283.4 7139.47   8
  -3  -4 -11 39246.5 5053.03   3
  -3   4  11 12743.1 4100.09   2
   3  -4 -11 33836.9 4888.34   3
  -3  -4  11 37809.5 7149.72   5
   3   4  11 40604.7 8480.79  15
  -3  -4  11 39668.8 7107.94   8
   4  -4 -11 3161.59 1640.71   7
   4   4 -11 3180.98 1988.52   7
  -4   4 -11 2932.54 1664.53   7
  -4  -4  11 1924.15 1689.17   8
  -4  -4 -11 1913.46 983.497   3
  -4  -4  11 997.141 1408.90   5
   4   4  11 5968.53 3680.04  15
   4  -4  11 1444.32 1425.88   8
  -5  -4  11 9992.55 3820.80   5
   5  -4 -11 11760.8 3256.65   7
  -5  -4 -11 14738.9 3339.49   3
  -5   4  11-3291.10 4358.24   2
  -5   4 -11 13891.1 3395.16   7
   5   4  11 17105.9 5285.16  15
  -5  -4  11 11762.9 4256.70   8
   5  -4  11 12376.4 3806.47   8
   6  -4 -11 1785.33 1419.70   7
  -6  -4  11-212.559 2466.63   5
  -6   4 -11 938.765 997.994   7
  -6  -4 -11 1072.53 1101.86   3
  -6  -4  11 1680.38 1567.05   8
   6  -4  11 685.682 1037.02   8
   7  -4 -11 20267.1 4446.92   7
  -7   4 -11 21442.7 4231.84   7
  -7  -4 -11 25445.2 4520.09   3
  -8  -4 -11 779.737 1101.48   3
   0   4  12 13699.5 4470.45   2
  -1   4  12-1331.77 2786.38   2
  -2   4  12 36609.2 9032.75  15
   5  -4 -12 1238.14 1405.47   7
   0   5   0-207.581 338.443  14
   0  -5   0-65.4198 322.522  12
   0   5   0-228.237 596.010  10
  -1  -5   0 1469.76 792.713   5
  -1   5   0 1411.11 778.421   1
  -1  -5   0 1239.32 452.215  12
   1  -5   0 1462.05 832.334  12
  -1  -5   0 644.973 218.391  11
  -1   5   0 1366.68 715.438   6
   1   5   0 506.540 177.805  10
  -1   5   0 1319.76 809.647  10
  -1  -5   0 748.560 488.940   3
   1   5   0 1023.45 555.245  14
  -2  -5   0 2392.65 966.943   5
  -2   5   0 1785.48 880.279   1
  -2  -5   0 2576.75 992.415  12
   2  -5   0 2394.74 1002.48  12
  -2  -5   0 2100.92 675.900  11
  -2   5   0 2216.97 877.475   6
   2   5   0 1884.12 557.272  10
  -2   5   0 2219.65 1114.94  10
  -2  -5   0 2134.20 841.078   3
   2   5   0 2515.18 980.523  14
   3  -5   0 492.925 456.591  12
  -3  -5   0 371.256 486.020  11
  -3   5   0 567.851 618.421   6
   3   5   0 358.012 346.896  14
   3   5   0 20.1299 248.394  10
  -3   5   0 715.878 839.385  10
  -3   5   0 234.584 470.359   1
  -3  -5   0 465.847 421.841   3
   3  -5   0 151.829 88.0027  15
  -3  -5   0 324.585 320.370   5
   4   5   0 24908.1 2406.05   7
   4  -5   0 26825.3 3649.82  12
  -4  -5   0 26694.7 2908.50   3
  -4  -5   0 26300.5 2857.20  11
  -4   5   0 28420.7 3393.91   1
   4   5   0 26904.2 2440.09  10
  -4   5   0 26178.3 3646.74  10
  -4  -5   0 25333.8 3099.90   5
   4  -5   0 12619.9 1194.44  15
   4   5   0 25224.0 3325.11  14
   5  -5   0 1149.43 982.580  12
  -5   5   0 278.454 405.522   1
  -5  -5   0 613.451 559.087  11
   5   5   0 644.111 439.620   7
  -5  -5   0 115.757 100.519   3
   5   5   0 303.372 362.459  10
  -5   5   0 540.560 554.348  10
  -5  -5   0 85.9102 137.187   5
   5   5   0 28.6658 182.059  14
  -6   5   0 211.397 472.895   1
   6  -5   0 326.906 982.658  12
   6   5   0 410.568 271.922   7
  -6  -5   0 263.932 530.285   3
   6   5   0-105.717 193.855  10
  -6   5   0 70.4419 230.458  10
  -6  -5   0 281.984 414.414   5
   6   5   0 222.007 423.935  14
  -7   5   0-225.368 494.477   1
   7   5   0 360.355 517.239  14
   7  -5   0 253.459 736.568  12
   7   5   0 491.859 411.122   7
  -7  -5   0 136.505 263.527   3
  -7   5   0-259.617 495.415  10
  -7  -5   0-719.550 727.672   5
   8   5   0 19782.7 2069.27   7
   8  -5   0 23985.4 4172.88  12
  -8  -5   0 24058.5 3620.67   3
  -8   5   0 23079.4 3690.20   1
  -8   5   0 22113.9 3742.72  10
   8   5   0 23199.7 3776.69  14
  -8  -5   0 22827.4 3272.94   5
  -9   5   0-3.78162 277.473   1
   9  -5   0 218.555 282.794  12
  -9   5   0-1251.79 1114.64  10
  -9  -5   0-631.582 832.456   5
   9   5   0-52.9155 262.785  14
 -10   5   0 5466.35 2084.41   1
  10  -5   0 5951.71 2251.06  12
  10   5   0 4853.32 1834.42  14
 -10   5   0 4510.20 1536.24  10
 -10  -5   0 4088.68 1479.15   5
  11  -5   0 393.037 664.225  12
 -11   5   0 1094.31 1020.76   1
 -11  -5   0-689.948 817.869   5
 -11   5   0 74.8372 472.542  10
  11   5   0-310.277 344.654  14
  12  -5   0 4238.16 1885.93  12
 -12   5   0 6480.06 2370.59   1
 -12   5   0 5081.43 1632.05  10
 -12  -5   0 4915.56 1683.33   5
  12   5   0 7168.57 2374.19  14
  13  -5   0-475.210 1105.23  12
 -13   5   0 267.842 730.021   1
 -13   5   0 26.5512 275.876  10
 -13  -5   0-880.799 989.512   5
  13   5   0 107.416 706.543  14
 -14  -5   0 12597.3 4553.19  13
  14  -5   0 8540.70 2963.59  12
 -14   5   0 10693.5 3523.66   1
 -14   5   0 10704.7 3031.68  10
 -14  -5   0 9690.09 2526.28   5
  14   5   0 10176.7 3048.36  14
 -15  -5   0 251.317 682.387  13
  15  -5   0 23.1283 1148.81  12
 -15   5   0 1341.16 988.884  10
 -15   5   0-55.9352 938.798   1
 -15  -5   0-806.941 821.981   5
  15   5   0 276.416 673.929  14
  16  -5   0 617.136 781.696  12
 -16   5   0 1875.65 1454.57  10
  16   5   0 1202.82 1202.49  14
 -16   5   0 1795.33 1780.49   1
 -17  -5   0-7591.98 4509.45  13
 -17   5   0 19.1444 731.852  10
   0  -5   1 4687.07 1292.62   5
   0  -5  -1 4466.52 1328.94  12
   0  -5   1 5109.04 1335.47  12
   0   5   1 4139.68 936.621   1
   0   5  -1 4810.24 1307.29   6
   0   5  -1 4252.30 1213.87  10
   0   5   1 3999.43 1372.10  10
   0   5  -1 4480.05 1042.94  14
   1   5  -1 5952.62 1368.25   7
  -1  -5  -1 7111.56 1679.45  12
  -1  -5   1 5758.87 1397.52  12
   1  -5  -1 6435.67 1726.73  12
   1  -5   1 7289.33 1636.02  12
  -1   5   1 6509.49 1278.70   1
  -1  -5   1 6700.98 1384.26  11
  -1  -5   1 6428.87 1297.19   3
  -1  -5  -1 6103.51 1530.47   3
   1   5  -1 6313.52 1419.44  10
  -1   5  -1 7058.76 1539.41   6
  -1   5  -1 7283.68 1677.57  10
   1   5   1 6703.03 1617.56  10
   1   5  -1 6775.36 1634.66   6
   1   5   1 6230.37 1042.42   1
  -1   5   1 6047.13 1752.43  10
   1   5  -1 6356.75 1380.20  14
  -1   5  -1 6431.74 1256.55  14
   1   5   1 7267.79 1723.25  14
  -1  -5   1 6369.28 1494.34   5
  -2   5  -1 1751.13 581.725  14
   2   5   1 2116.58 833.848  14
  -2  -5  -1 1847.74 944.782  12
  -2  -5   1 2491.24 875.910  12
   2  -5  -1 2718.05 1023.64  12
   2  -5   1 2215.98 980.162  12
   2   5  -1 2062.51 797.278   7
  -2  -5   1 2071.23 795.661  11
  -2  -5  -1 1701.00 684.423  11
  -2   5  -1 2331.30 978.039   6
  -2   5   1 2418.62 857.784   6
   2   5  -1 2074.08 963.555  10
  -2   5  -1 1434.78 738.134  10
   2   5   1 1415.95 873.973  10
  -2   5   1 2471.15 1207.93  10
  -2  -5   1 2478.61 847.027   3
  -2  -5  -1 1818.45 825.852   3
  -2   5   1 1908.03 857.315   1
  -2  -5   1 2525.34 958.430   5
   2   5  -1 2518.45 941.112  14
  -3  -5  -1 524.006 456.931   5
  -3  -5   1 14.6247 83.5448   5
   3  -5  -1 300.856 362.409  12
   3  -5   1 171.896 255.280  12
   3   5  -1 231.924 176.287   7
  -3  -5   1 357.442 437.714  11
  -3  -5  -1 121.159 373.567  11
  -3   5  -1 975.996 724.390   6
  -3   5   1 226.457 110.284   6
  -3  -5   1 225.754 70.0511   1
   3   5  -1 790.385 624.362  10
  -3   5  -1-122.060 388.858  10
   3   5   1 13.4500 155.719  10
  -3   5   1 34.7213 605.836  10
  -3  -5   1 421.343 413.441   3
  -3   5   1-206.872 438.997   1
  -3  -5  -1 382.558 461.806   3
   3   5  -1 413.148 454.922  14
   3   5   1 378.461 465.887  14
   4   5  -1 7677.63 1496.99   7
   4  -5   1 9811.56 2242.60  12
   4  -5  -1 7102.30 1920.87  12
  -4  -5   1 4154.89 719.103   1
  -4  -5   1 7319.51 1510.80   3
  -4  -5   1 7842.43 1693.85  11
  -4  -5  -1 8998.01 1603.77  11
  -4  -5  -1 8358.44 1714.05   3
  -4   5   1 7155.29 1632.85   6
   4   5  -1 6088.38 1144.66  10
  -4   5  -1 8717.69 2014.91  10
   4   5   1 9094.17 1524.61  10
  -4   5   1 6561.68 1554.56   1
  -4   5  -1 8433.46 2000.46   1
  -4   5   1 7214.40 1953.88  10
  -4  -5  -1 8605.89 1816.83   5
   4  -5   1 6185.28 971.906  15
   4   5  -1 6914.23 1641.37  14
   4   5   1 8690.21 1944.84  14
  -4  -5   1 6530.42 1644.90   5
  -5  -5  -1 4758.57 1319.37   5
   5  -5  -1 5072.60 1631.87  12
   5  -5   1 5459.70 1823.64  12
  -5  -5   1 5037.40 1351.99   3
   5   5  -1 4988.49 1174.09   7
  -5  -5  -1 4795.31 1244.71  11
  -5  -5   1 5580.21 1526.87  11
  -5  -5   1 1589.73 443.169   1
   5   5  -1 4291.82 871.680  10
  -5   5   1 3976.64 1390.01   1
  -5  -5  -1 5236.79 1453.60   3
  -5   5  -1 3797.63 1341.46  10
   5   5   1 4864.67 952.504  10
  -5   5   1 4501.96 1619.52  10
  -5   5  -1 4684.64 1538.64   1
   5  -5   1 2202.90 471.051  15
  -5   5  -1 4667.67 955.514  14
  -5  -5   1 5133.89 1399.45   5
   5   5  -1 5019.28 1453.70  14
   5   5   1 4891.95 1634.15  14
   6   5  -1 1043.23 834.564  14
   6  -5  -1-341.331 167.092  12
   6  -5   1-10.7895 234.275  12
   6   5  -1-51.8102 247.279   7
  -6   5  -1 282.029 545.116   1
  -6  -5   1 301.379 497.529   3
   6   5  -1 358.771 330.699  10
  -6  -5  -1 309.283 328.339   3
  -6   5   1-236.344 663.936   1
   6   5   1 109.153 146.512  10
  -6   5  -1 218.503 189.758  10
  -6   5   1 248.495 304.912  10
  -6  -5   1 422.784 362.957   5
   6   5   1 127.164 68.4290  14
  -6  -5  -1-219.457 320.022   5
   7   5  -1 6225.51 1379.46   7
  -7   5  -1 7876.38 2109.25   1
   7  -5  -1 8232.69 2450.39  12
   7  -5   1 6720.15 2144.62  12
  -7  -5  -1 6445.57 1788.45   3
  -7  -5   1 5374.28 1641.84   3
  -7   5   1 4760.57 1543.59   1
  -7   5  -1 5928.25 1886.98  10
  -7  -5   1 8099.01 2092.35   5
  -7   5   1 4701.08 1786.66  10
   7   5   1 6258.49 1890.25  14
   7   5  -1 6281.51 1885.67  14
  -7  -5  -1 6301.01 1605.54   5
  -8   5  -1 4190.64 1668.05   1
   8  -5  -1 3830.94 1887.55  12
   8  -5   1 5089.20 2048.05  12
   8   5  -1 3701.84 1205.55   7
  -8  -5  -1 3817.58 1479.10   3
  -8   5  -1 3642.32 1432.58  10
  -8   5   1 5456.64 2129.75  10
  -8   5   1 3255.15 1277.91   1
  -8  -5   1 4949.49 1872.54   5
   8   5  -1 3323.13 1354.14  14
  -8  -5  -1 4121.13 1352.67   5
   8   5   1 4130.17 1517.57  14
  -9   5  -1 1065.35 956.570   1
   9  -5  -1 810.666 1084.93  12
   9  -5   1-39.7916 408.423  12
   9   5  -1 871.337 638.054   7
  -9  -5  -1 405.887 750.430   3
   9   5  -1 636.012 532.270  14
  -9   5  -1 419.658 683.552  10
  -9   5   1 868.393 1042.73  10
   9   5   1 567.475 644.196  14
  -9   5   1-168.957 1130.76   1
  -9  -5   1 638.049 946.227   5
  -9  -5  -1 504.692 431.786   5
 -10   5  -1 5996.57 2070.25   1
  10  -5  -1 5965.85 2403.75  12
  10  -5   1 3680.27 2035.88  12
 -10   5   1 5360.89 2067.38   1
 -10   5  -1 3852.96 1485.95  10
 -10   5   1 6732.10 2362.17  10
 -10  -5   1 5117.90 1927.31   5
  10   5  -1 4964.33 1903.22  14
 -10  -5  -1 3860.52 1413.67   5
  10   5   1 4265.23 1777.17  14
 -11   5  -1 4906.82 2053.43   1
  11   5  -1 4438.29 1792.46  14
  11  -5  -1 4908.02 2250.76  12
  11  -5   1 3707.68 1784.69  12
 -11   5  -1 4565.38 1771.12  10
 -11   5   1 5481.49 2075.41  10
 -11   5   1 4627.49 2019.56   1
 -11  -5   1 5333.28 2090.94   5
 -11  -5  -1 3608.36 1237.44   5
  11   5   1 6022.55 2257.47  14
 -12   5  -1 185.466 511.128   1
  12  -5  -1 597.074 814.033  12
  12  -5   1-906.597 1423.57  12
 -12   5  -1 471.299 710.051  10
 -12   5   1-246.765 1123.50  10
 -12   5   1 144.747 898.306   1
 -12  -5   1-249.684 669.485   5
  12   5  -1 885.300 875.278  14
 -12  -5  -1 3.25732 548.249   5
  12   5   1 461.080 780.288  14
 -13   5   1 773.426 354.908   1
  13   5  -1 891.394 879.754  14
  13  -5  -1 1483.90 1123.29  12
  13  -5   1 181.401 845.018  12
 -13   5  -1 1636.07 1418.81   1
 -13   5  -1 924.840 835.825  10
 -13   5   1 487.866 465.077  10
 -13  -5   1 443.913 374.288   5
 -13  -5  -1 1290.05 797.498   5
  13   5   1 1993.19 1343.68  14
 -14   5   1 1179.06 1006.84   1
 -14  -5  -1 3636.36 2144.07  13
  14   5  -1 1924.24 1409.55  14
  14  -5  -1 2467.60 1488.91  12
  14  -5   1-154.534 1608.19  12
 -14   5  -1 1491.91 1152.93   1
 -14   5  -1 412.190 225.459  10
 -14   5   1 1357.66 1226.05  10
 -14  -5   1 1216.47 1072.79   5
  14   5   1 132.415 470.784  14
 -14  -5  -1 1241.36 890.142   5
  15   5  -1 347.714 434.308  14
 -15  -5  -1-1290.40 2122.46  13
 -15  -5   1 993.820 1793.85  13
 -15   5   1 1671.97 1314.67   1
  15  -5  -1 370.569 346.215  12
  15  -5   1-12.4504 1234.41  12
 -15   5  -1 1343.44 1046.72  10
 -15   5  -1 595.157 709.186   1
 -15   5   1 614.176 986.303  10
 -15  -5   1 380.472 825.110   5
  15   5   1 514.067 194.823  14
 -16   5  -1 727.255 1028.48   1
  16  -5  -1 1231.50 935.307  12
  16  -5   1-28.5384 194.592  12
 -16   5   1 1099.67 1204.64   1
 -16   5  -1 1113.31 1252.52  10
 -16   5   1 318.856 869.522  10
  16   5   1 568.108 343.296  14
 -16  -5   1 521.349 351.622   5
  16   5  -1 291.823 616.994  14
 -17   5  -1 1622.74 1578.61  10
 -17   5   1 789.604 1266.76  10
   0   5   2 198.778 400.106   1
   0  -5  -2-128.464 472.365  12
   0  -5   2 698.824 558.214  12
   0   5  -2 53.3903 218.127   7
   0  -5   2-17.8614 562.116  11
   0   5  -2 697.960 446.074   6
   0   5  -2 309.561 634.609  10
   0   5   2-117.178 464.513  10
   0   5  -2 445.079 356.712  14
   0  -5   2 209.799 116.167   5
   1   5  -2 7127.93 1601.86   7
  -1   5  -2 7892.97 1759.45   7
  -1  -5  -2 8059.19 1765.58  12
  -1  -5   2 6834.48 1472.44  12
   1  -5   2 8018.63 1691.36  12
  -1   5   2 7036.30 1489.13   1
   1  -5  -2 6868.43 1643.82  12
   1   5   2 7758.70 1195.38   1
  -1  -5   2 8051.91 1499.96  11
  -1   5  -2 9697.37 1961.18   6
  -1  -5   2 7006.14 1238.08   3
  -1  -5  -2 7964.11 1738.30   3
  -1   5  -2 7491.40 1878.74  10
   1   5  -2 8088.13 1775.67   6
   1   5  -2 6071.63 1441.99  10
   1  -5   2 8463.20 1739.14   5
  -1   5   2 7028.62 1884.04  10
   1   5   2 7096.74 1720.06  10
   1   5  -2 6097.57 1212.32  14
  -1   5  -2 7651.88 1135.02  14
  -1  -5   2 7039.65 1547.40   5
   2   5  -2 26531.2 3109.70   7
  -2  -5  -2 25813.4 3323.70  12
  -2  -5   2 25524.3 2897.85  12
   2  -5  -2 27452.5 3555.36  12
   2  -5   2 27389.2 3376.01  12
  -2   5   2 23469.4 2994.75   1
   2   5   2 21785.2 1610.13   1
  -2  -5   2 28385.1 3157.51  11
  -2  -5  -2 26221.3 2465.27  11
  -2  -5   2 24349.9 2367.67   3
  -2   5  -2 27661.1 3373.12   6
  -2  -5  -2 27582.3 3236.00   3
  -2   5   2 26529.7 2971.30   6
   2   5  -2 29199.5 3461.85   6
   2   5  -2 22189.3 2815.11  10
  -2   5  -2 26253.9 3410.20  10
  -2   5   2 23901.7 3758.61  10
   2   5   2 22034.6 3059.93  10
  -2  -5   2 25586.9 3231.20   5
   2  -5   2 27130.1 3090.22   5
   2   5  -2 26027.2 2844.90  14
  -2   5  -2 25329.0 1841.93  14
  -3   5   2 4798.41 1534.44   1
   3   5  -2 6441.42 1523.38   7
  -3  -5   2 6324.58 1430.09  12
   3  -5  -2 7434.39 1862.54  12
   3  -5   2 6473.18 1657.15  12
  -3  -5   2 5783.06 1116.85   3
  -3  -5   2 7312.39 1720.27  11
  -3  -5  -2 7227.06 1277.42  11
  -3  -5  -2 8097.60 1739.00   3
   3   5  -2 5362.06 1271.95  10
  -3   5  -2 7050.18 1927.96  10
  -3   5   2 6153.34 1394.93   6
   3   5   2 6432.82 1492.27  10
  -3   5   2 5425.61 1684.24  10
   3   5  -2 6511.80 1479.28  14
  -3   5  -2 5519.42 763.882  14
   3   5   2 7497.06 1898.70  14
  -3  -5   2 6268.90 1586.15   5
   4   5   2 153.416 127.796  14
  -4   5   2 662.539 798.084   1
   4  -5  -2 266.640 516.511  12
  -4  -5  -2 188.689 130.400   7
   4  -5   2 1015.15 1027.33  12
   4   5  -2 317.297 372.174   7
  -4  -5  -2 290.438 436.665  11
  -4  -5   2 619.630 483.393  11
  -4   5  -2 94.0006 114.832  14
  -4   5   2 427.299 209.136   6
   4   5  -2 126.224 316.277  10
  -4  -5   2 153.825 259.226   3
  -4   5  -2 235.772 207.464  10
  -4  -5  -2 406.293 464.117   3
   4   5   2 80.1079 13.6598  10
  -4   5   2-26.5770 697.726  10
  -4  -5   2 445.798 384.747   5
  -4   5  -2 198.748 145.412  14
   4   5  -2 353.316 267.399  14
  -5  -5  -2 4529.08 629.511   7
  -5   5   2 4968.15 1646.87   1
   5  -5  -2 5390.20 1716.77  12
   5  -5   2 6854.72 1949.09  12
   5   5  -2 4413.26 1250.16   7
  -5  -5   2 5070.59 1462.05  11
  -5  -5   2 4460.89 1175.48   3
   5   5   2 6114.02 1250.32  10
   5   5  -2 3633.95 960.657  10
  -5   5  -2 5520.19 1695.90  10
  -5  -5  -2 6201.92 1513.89   3
  -5   5   2 4954.43 1784.74  10
  -5   5  -2 2400.12 421.729  14
   5   5   2 6512.38 1841.91  14
  -5  -5   2 5087.43 1762.31   5
   5   5  -2 4210.75 1315.84  14
  -6  -5  -2 1195.35 821.452   5
  -6   5   2 997.298 682.694   1
   6  -5  -2 943.693 671.114  12
   6  -5   2 785.036 939.632  12
   6   5  -2 870.919 692.923   7
   6   5  -2 986.724 498.361  10
  -6  -5   2 814.484 700.187   3
  -6  -5  -2 539.347 501.354   3
  -6   5  -2 953.767 888.179  10
   6   5   2 568.218 420.703  10
  -6   5   2 788.664 961.197  10
  -6  -5   2 946.307 944.409   5
   6   5  -2 266.551 98.5131  14
   6   5   2 303.332 383.360  14
  -7  -5  -2 3377.29 1238.62   5
  -7   5   2 2392.05 1378.35   1
   7  -5  -2 2521.33 1179.63  12
   7  -5   2 2827.84 1202.39  12
   7   5  -2 2725.76 1193.03   7
  -7  -5  -2 3295.30 1334.90   3
  -7   5  -2 2779.22 1340.44  10
   7   5   2 2615.28 692.989  10
  -7   5   2 2377.96 1199.49  10
  -7  -5   2 3216.35 1549.22   5
   7   5  -2 1919.85 984.316  14
   7   5   2 3451.19 1386.04  14
  -8  -5  -2 3450.18 1237.13   5
  -8   5  -2 3704.33 1844.09   1
  -8   5   2 4430.02 1869.59   1
   8  -5  -2 4689.16 1808.76  12
   8   5  -2 3447.77 1315.37   7
   8  -5   2 3106.92 1704.62  12
  -8  -5  -2 3574.46 1481.94   3
  -8   5  -2 3484.07 1496.02  10
  -8   5   2 3319.96 1533.51  10
  -8  -5   2 4305.17 1775.13   5
   8   5  -2 3259.97 1368.50  14
   8   5   2 3367.11 1486.73  14
  -9  -5  -2 560.513 565.585   5
  -9   5  -2 1350.34 1290.11   1
   9  -5  -2 1504.87 1236.63  12
   9   5  -2 275.210 432.211   7
   9  -5   2-492.088 1200.33  12
  -9   5   2-235.482 402.428   1
  -9  -5   2 1769.03 1378.19   5
  -9  -5  -2 419.795 619.480   3
  -9   5  -2-31.3314 350.677  10
  -9   5   2 431.245 448.340  10
   9   5  -2-191.905 535.346  14
  -9  -5   2 519.097 705.424   8
   9   5   2 600.368 780.555  14
  10   5  -2 219.250 381.460   7
  10  -5  -2 1012.78 1125.09  12
  10  -5   2 345.586 1029.27  12
 -10   5   2 465.918 997.444   1
 -10  -5  -2 353.682 460.331   3
 -10   5  -2 891.578 918.202  10
 -10   5   2 582.994 727.384  10
 -10  -5   2 1008.04 970.482   5
  10   5  -2 923.621 996.683  14
  10   5   2 1264.37 1082.49  14
 -10   5  -2 1382.91 1091.02   1
 -10  -5  -2 570.923 286.336   5
  11  -5  -2 1549.58 1579.19  12
  11  -5   2-1044.21 1826.73  12
 -11   5   2 516.958 935.250   1
 -11  -5  -2 777.415 667.331   5
 -11   5  -2 2095.87 1250.42  10
 -11   5   2 2250.15 1543.66  10
 -11   5  -2 1018.55 883.749   1
 -11  -5   2 293.064 898.619   5
  11   5  -2 700.444 497.168  14
  11   5   2 1388.95 1003.13  14
  12  -5  -2 362.545 780.779  12
  12  -5   2-905.210 1813.92  12
  12   5   2 1149.33 1179.71  14
 -12   5   2 462.610 592.803   1
 -12   5  -2 979.136 963.575  10
 -12   5   2 1322.64 1228.09  10
 -12   5  -2 1009.16 1444.92   1
 -12  -5   2-336.638 1002.87   5
  12   5  -2 893.156 737.419  14
 -12  -5  -2-107.302 330.928   5
 -13  -5  -2 2555.50 2687.19  13
 -13   5  -2-297.376 715.391   1
  13  -5  -2-2.34756 966.262  12
  13  -5   2-2626.65 2695.22  12
 -13   5  -2 1653.91 1271.86  10
 -13   5   2-397.327 1128.08   1
 -13   5   2 1926.62 1505.96  10
 -13  -5   2-563.287 1085.08   5
  13   5  -2-258.229 628.636  14
  13   5   2 490.957 1078.96  14
 -13  -5  -2 13.5853 121.360   5
 -14  -5  -2-271.242 1197.67  13
 -14   5  -2 762.201 1021.70   1
  14  -5  -2 93.8561 398.718  12
  14  -5   2-2048.27 2555.23  12
 -14   5  -2 1663.24 1220.28  10
 -14   5   2-586.939 154.358  10
 -14   5   2 166.535 391.792   1
 -14  -5   2 701.568 460.980   5
  14   5  -2 535.870 626.029  14
  14   5   2 1289.20 1211.80  14
 -15  -5  -2-2945.99 3504.71  13
 -15  -5   2 1164.63 1359.20  13
 -15   5   2 3550.30 2122.86   1
  15  -5  -2 2156.12 1551.10  12
  15  -5   2 2010.13 549.455  12
 -15   5  -2 3903.50 1900.05  10
 -15   5  -2 6267.58 2579.70   1
 -15   5   2 1456.36 928.997  10
 -15  -5   2 4027.60 1748.86   5
  15   5  -2 3347.58 1809.91  14
  15   5   2 4247.09 2051.81  14
 -16   5   2 3591.50 2066.15   1
 -16  -5   2-2774.97 2990.86  13
  16  -5  -2 1630.62 1289.38  12
  16  -5   2 1935.04 1797.31  12
 -16   5  -2 137.094 592.271  10
 -16   5   2 1742.48 820.288  10
 -16  -5   2 608.565 494.640   5
  16   5  -2 3720.24 2060.27  14
  16   5   2 3515.91 1867.94  14
 -17   5  -2-1648.00 1593.92  10
 -17   5   2-127.752 792.693  10
 -17  -5   2-2436.81 2039.99   5
   0  -5  -3 3580.52 1218.95  12
   0  -5   3 4090.91 1109.97  12
   0   5  -3 4342.21 1343.12   7
   0  -5   3 4154.41 1124.66  11
   0   5  -3 4867.05 1483.38   6
   0   5  -3 3456.19 1223.02  10
   0   5   3 4880.44 1800.57   9
   0   5   3 4157.96 1424.08  15
   0  -5   3 2857.73 728.067   3
   0   5  -3 3381.68 798.378  14
   0  -5   3 3824.33 1136.04   5
   1   5  -3 7149.26 1752.86   7
  -1   5  -3 7215.69 1781.50   7
  -1  -5  -3 7971.36 1998.18  12
  -1  -5   3 6354.28 1411.89  12
   1  -5   3 6999.75 1587.87  12
   1  -5  -3 7185.48 1756.59  12
  -1  -5   3 6391.83 1085.61   3
  -1   5  -3 8898.92 2034.86   6
  -1  -5   3 7983.42 1725.03  11
   1   5  -3 8077.20 1888.04   6
   1  -5   3 6431.66 1416.67  11
  -1  -5  -3 7900.29 1861.59   3
   1   5   3 7307.87 2006.92  15
   1   5  -3 7270.66 1644.48  10
  -1   5  -3 7662.67 1768.51  10
   1  -5   3 7363.44 1594.99   5
  -1   5   3 7333.39 2247.04   9
  -1   5   3 7981.12 1869.53  15
  -1   5  -3 6975.48 975.787  14
   1   5  -3 6552.03 1238.56  14
  -1  -5   3 7025.61 1673.00   5
   2  -5   3 544.256 419.797   5
  -2   5   3 470.564 556.617   1
   2  -5  -3 115.203 146.990   4
  -2  -5   3 864.314 458.109  12
  -2   5   3 832.133 577.801  15
   2  -5  -3 161.349 699.912  12
   2  -5   3 299.548 371.768  12
   2   5  -3 183.811 86.4514   7
  -2   5  -3 716.068 613.337   7
  -2  -5   3 787.774 737.609  11
  -2  -5  -3 465.448 359.134  11
   2   5  -3 796.801 663.513   6
   2   5  -3 673.164 661.642  10
  -2   5  -3 367.964 408.861  10
  -2  -5   3 330.976 250.631   3
  -2   5   3 411.126 730.413   9
   2   5   3 583.657 511.280  15
  -2  -5  -3 688.079 532.093   3
  -2   5  -3 421.178 164.436  14
  -2  -5   3 730.162 538.405   5
   2   5  -3 545.710 375.002  14
   3   5   3 5290.73 826.193   1
   3   5  -3 7384.76 1752.19   7
   3  -5  -3 9589.15 2275.96  12
   3  -5   3 7913.76 1983.95  12
  -3  -5   3 6862.07 1169.60   3
  -3  -5   3 9462.12 1990.07  11
  -3  -5  -3 7154.03 1239.19  11
  -3  -5  -3 7918.75 1800.92   3
  -3   5   3 7032.94 1436.72   6
   3   5  -3 6496.96 1535.89  10
   3   5  -3 7683.91 1801.04   6
  -3   5  -3 4646.42 1385.96  10
  -3  -5   3 8404.25 2084.12   5
   3  -5   3 8080.29 1722.69   5
  -3   5   3 5657.63 1788.30   1
  -3   5   3 9344.45 2497.64   9
  -3   5   3 8333.56 1684.91  15
   3   5  -3 7545.99 1613.84  14
   3   5   3 6701.45 2017.12  15
   4   5   3 481.746 625.524  14
   4  -5  -3 859.287 753.641  12
  -4   5   3 954.039 517.276  15
   4   5   3-7.13554 213.118  15
   4  -5   3 1097.21 929.298  12
   4   5  -3 1044.94 747.937   7
  -4  -5  -3 690.593 469.336  11
  -4  -5   3 1158.93 753.646  11
  -4   5   3 787.619 410.906   6
  -4  -5   3 949.012 511.903   3
   4   5  -3 100.263 709.202   6
   4   5  -3 840.814 599.115  10
  -4   5  -3-126.473 271.412  10
  -4  -5  -3 1069.79 783.797   3
  -4   5   3 1831.58 1294.39   9
  -4   5   3 425.179 400.577   1
  -4  -5   3 2048.93 1319.07   5
   4   5  -3 843.482 562.691  14
   5   5   3 3351.56 1365.76  14
  -5   5   3 3393.31 901.293  15
   5  -5  -3 3440.04 1369.27  12
   5  -5   3 4593.64 1763.38  12
   5   5  -3 3682.73 1427.01   7
   5   5  -3 2361.51 908.812  10
  -5   5  -3 4450.99 1584.24  10
  -5  -5  -3 3993.80 1248.65   3
  -5  -5   3 4656.42 1763.59   5
  -5   5   3 2806.58 1229.04  10
  -5   5   3 4996.80 2002.63   9
   5   5   3 3623.23 1643.64  15
  -5   5   3 2474.93 1306.42   1
   5   5  -3 4101.04 1346.11  14
   6  -5  -3 6345.30 1904.02  12
   6  -5   3 6426.63 2071.92  12
   6   5  -3 5581.87 1737.31   7
   6   5  -3 4920.49 1604.54  14
  -6   5  -3 6302.06 1999.06  10
  -6  -5  -3 6711.88 1705.15   3
  -6   5   3 4680.19 1733.53  10
   6   5   3 6508.74 2136.44  15
  -6  -5   3 6341.74 2148.07   5
  -6   5   3 4684.00 1807.45   1
   6   5   3 6106.83 1883.34  14
   7   5   3 428.213 326.467  15
   7  -5  -3 1336.48 542.087  12
   7   5  -3 1426.09 1020.49   7
   7  -5   3 204.648 521.046  12
  -7  -5  -3 1606.46 973.803   3
  -7   5  -3 1341.55 1094.01  10
  -7   5   3-73.5542 335.022  10
   7   5   3 561.908 515.158  14
  -7  -5   3 1058.09 1055.80   5
  -7   5   3 738.883 572.458   1
   7   5  -3 717.995 681.782  14
   8  -5  -3 6359.33 2033.41  12
   8   5  -3 4457.78 1619.18   7
   8  -5   3 2609.73 1050.79  12
  -8  -5  -3 5128.23 1871.18   3
  -8   5  -3 7518.05 2146.65  10
  -8   5   3 5435.80 2049.25  10
  -8  -5   3 6251.72 2171.67   5
  -8  -5   3 7414.41 1675.41   8
   8   5  -3 7154.08 2126.96  14
   8   5   3 6395.05 2125.22  14
  -8   5   3 6132.55 2183.28   1
  -9   5   3-59.2151 634.989   1
   9  -5  -3-157.424 621.485  12
   9   5  -3 309.507 607.482   7
   9  -5   3-1160.30 1752.08  12
  -9  -5  -3 472.458 610.472   3
  -9   5  -3 461.812 484.045  10
  -9   5   3-687.594 427.215  10
  -9  -5   3 185.156 783.036   5
   9   5  -3-370.666 724.566  14
  -9  -5   3-8.48927 224.524   8
   9   5   3 893.238 877.405  14
 -10   5   3 7529.85 2734.79   1
 -10  -5  -3 9534.90 2661.06   3
  10   5  -3 4436.73 1566.89   7
  10  -5  -3 8571.81 2486.95  12
  10  -5   3 4507.76 1360.33  12
 -10   5  -3 10077.7 2567.43  10
 -10   5   3 6904.17 2487.63  10
 -10  -5   3 7894.21 2659.44   5
  10   5  -3 7096.57 2328.21  14
  10   5   3 9859.67 2833.90  14
 -11   5   3-120.247 257.400   1
  11   5  -3-386.779 712.131   7
  11  -5  -3 1002.57 751.650  12
  11  -5   3-2184.30 2651.56  12
 -11   5  -3-1005.16 751.415  10
 -11   5   3 39.0302 743.538  10
 -11  -5   3-301.762 424.190   5
  11   5  -3-34.0224 328.819  14
  11   5   3 1179.00 1060.33  14
 -12   5   3 1796.34 1184.47   1
  12  -5  -3 859.147 809.540  12
 -12   5  -3-478.802 976.097  10
 -12   5   3 1119.05 679.982  10
 -12  -5   3 63.6110 218.062   5
  12   5  -3-139.565 340.341  14
  12   5   3 867.133 674.549  14
 -13  -5  -3 2912.65 2227.04  13
  13  -5  -3 3907.05 1970.74  12
  13  -5   3-1439.88 2264.51  12
 -13   5   3 1934.97 1427.63   1
 -13   5  -3 2626.47 1172.91  10
 -13   5   3 3621.21 1877.90  10
 -13  -5   3 2043.21 1245.49   5
  13   5  -3 3910.62 1914.87  14
  13   5   3 5080.65 2150.27  14
 -14  -5  -3-3108.79 3202.31  13
  14  -5  -3 425.198 351.896  12
  14  -5   3-3005.13 3063.72  12
 -14   5   3 1769.69 1615.41   1
 -14   5  -3-778.120 909.036  10
 -14   5   3 1191.65 992.401  10
 -14  -5   3-1924.84 1620.69   5
  14   5  -3-128.720 824.402  14
  14   5   3-615.719 618.466  14
  15  -5  -3 1882.90 1243.69  12
  15  -5   3-1817.63 2041.77  12
 -15   5   3 543.949 584.679   1
 -15   5  -3 914.803 392.179  10
 -15   5   3 2236.32 1963.65  10
  15   5   3-892.460 1030.07  14
 -15  -5   3-1394.60 1652.08   5
  15   5  -3 307.926 1097.80  14
 -16   5  -3-297.292 100.540  10
 -16  -5   3 466.049 230.700   5
  16   5  -3 199.745 385.238  14
 -17   5  -3 3089.52 1379.42  10
 -17   5   3 1641.08 1552.35  10
 -17  -5   3 1718.19 1187.83   5
   0  -5  -4 900.256 781.842  12
   0  -5   4 690.865 414.737  12
   0   5  -4 637.984 572.289   7
   0   5  -4 1161.49 1056.61   6
   0  -5   4 1075.55 861.644  11
   0   5  -4 665.759 878.950  10
   0  -5   4 437.791 246.036   3
   0   5   4 1535.78 1441.29   9
   0   5   4 1002.18 847.766  15
   0   5  -4 591.530 310.702  14
   0  -5  -4 471.013 126.968   3
   0  -5   4 572.715 487.043   5
   1  -5  -4 112.234 230.551  12
  -1  -5   4-240.076 328.552  12
   1  -5   4 128.993 282.430  12
   1   5  -4 178.248 341.486   7
  -1   5  -4 115.898 226.077   7
  -1  -5   4-276.459 246.206  11
   1  -5   4-544.449 665.420  11
   1   5  -4 82.2977 568.452   6
   1   5   4 225.382 580.549  15
   1   5  -4 278.039 649.670  10
  -1   5  -4 283.686 491.212  10
  -1  -5   4-27.9890 179.364   3
   1   5   4 155.524 923.107   9
  -1   5   4 308.828 1111.84   9
  -1   5   4 44.3795 497.465  15
  -1  -5  -4 118.639 390.617   3
  -1  -5   4 289.678 509.474   5
   1   5  -4 344.943 356.970  14
   1  -5   4 210.673 44.9559   5
  -2  -5   4 1778.10 685.993  12
   2  -5  -4 763.841 473.830  12
   2  -5   4 367.370 254.599  12
   2   5  -4 1024.86 757.800   7
  -2   5  -4 1403.23 806.297   7
  -2  -5   4 1722.61 985.362  11
  -2  -5  -4 1348.19 435.502  11
   2  -5   4-42.3510 454.471  11
   2   5  -4 1137.86 530.156   6
  -2  -5   4 896.710 349.424   3
   2   5  -4 1128.25 837.208  10
  -2   5  -4 697.100 497.089  10
   2   5   4 1729.18 1379.47   9
  -2   5   4 1932.27 1276.89   9
   2   5   4 1026.78 794.356  15
  -2   5   4 827.124 662.374  15
  -2  -5  -4 1330.68 682.954   3
  -2  -5   4 1904.84 1171.78   5
   2   5  -4 1951.62 862.518  14
   2  -5   4 908.836 514.407   5
   3  -5   4 3317.78 1094.46   5
   3  -5  -4 3433.19 1217.30  12
   3  -5   4 4160.65 1475.56  12
   3   5  -4 3398.72 1366.99   7
  -3  -5   4 3293.90 1131.75  11
  -3  -5  -4 3524.26 829.639  11
  -3   5  -4 2478.91 1225.42   7
   3   5   4 3302.22 1575.48  15
   3   5  -4 3778.88 1354.23   6
  -3   5   4 2255.77 700.471   6
   3   5  -4 3230.16 1234.74  10
  -3   5  -4 2733.86 1107.26  10
  -3  -5  -4 3206.83 1257.75   3
   3   5   4 4124.53 1654.29   9
  -3   5   4 3276.41 1763.72   9
  -3   5   4 4331.19 1452.86  15
  -3  -5   4 4418.77 1745.26   5
   3   5  -4 3435.93 1198.83  14
   4   5   4 7480.05 2217.63  14
   4  -5  -4 7974.40 2104.26  12
   4  -5   4 8810.81 2222.49  12
   4   5  -4 6603.32 1848.93   7
  -4  -5  -4 8590.78 1941.67   3
  -4  -5   4 7492.73 2013.64  11
  -4   5   4 7030.33 1367.85   6
   4   5  -4 8216.97 1912.31   6
   4   5  -4 5610.20 1535.16  10
  -4   5  -4 8012.30 2019.15  10
   4   5   4 9345.72 2127.08   9
  -4   5   4 7608.39 1820.70  15
  -4   5   4 8466.38 2779.77   9
   4   5   4 8508.52 2507.94  15
   4   5  -4 7123.27 1720.02  14
  -4  -5   4 6661.86 2062.68   5
  -4  -5  -4 5261.93 798.286   7
   5   5   4 6671.74 2223.60  14
   5  -5  -4 6975.80 1977.71  12
   5  -5   4 7451.93 2070.55  12
   5   5  -4 6247.64 1842.36   7
  -5  -5  -4 7205.18 1813.59   3
   5   5   4 8372.10 2581.51  15
  -5   5   4 5732.14 1299.50   6
   5   5  -4 6814.85 1779.33   6
  -5   5  -4 6968.26 1956.72  10
  -5   5   4 7063.28 1668.64  15
  -5   5   4 8032.27 2792.85   9
   5   5  -4 6957.30 1884.62  14
  -5  -5   4 7896.91 2533.03   5
   6   5   4 1899.56 1314.35  14
   6   5   4 1648.40 878.850  15
   6  -5  -4 2557.19 1314.10  12
   6   5  -4 1053.72 783.250   7
   6  -5   4 682.684 718.558  12
   6   5  -4 768.568 433.113   6
  -6   5  -4 931.353 559.444  10
  -6  -5  -4 1617.58 922.019   3
  -6   5   4 2276.02 1357.22   9
  -6  -5   4 1234.53 1104.42   5
   6   5  -4 2386.62 1200.92  14
  -7   5   4 1092.91 502.153   1
   7  -5  -4 3149.75 1412.39  12
   7   5  -4 1314.47 936.311   7
   7  -5   4-199.367 822.266  12
  -7  -5  -4 1912.69 961.353   3
  -7   5  -4 2415.80 1076.35  10
  -7   5   4 1912.13 1592.34   9
   7   5   4 2727.93 1589.98  15
  -7  -5   4 1838.61 1413.04   5
   7   5  -4 1842.12 990.108  14
  -7  -5   4 3423.58 1418.78   8
   7   5   4 2037.45 1190.50  14
   8  -5  -4 842.863 544.553  12
   8   5  -4 122.144 310.991   7
   8  -5   4-2068.43 1983.25  12
  -8   5   4 64.6987 723.586   1
  -8  -5  -4 370.113 455.247   3
  -8   5  -4-867.783 1100.79  10
  -8   5   4-676.730 1154.10  10
  -8   5   4 226.438 297.461   9
   8   5   4 849.058 950.510  15
  -8  -5   4 79.4472 345.991   5
   8   5  -4 1206.32 905.556  14
  -8  -5   4 482.924 592.295   8
   8   5   4 252.518 331.878  14
  -9  -5  -4 23427.2 6128.98  13
   9  -5  -4 14541.7 3164.87  12
   9   5  -4 6374.06 2071.36   7
  -9  -5  -4 12677.6 2933.30   3
   9  -5   4 4977.11 1319.51  12
  -9   5  -4 13002.4 2983.04  10
  -9   5   4 11097.4 3121.77  10
  -9   5   4 15849.4 3603.69   9
   9   5   4 15288.4 3689.65  15
  -9  -5   4 9508.29 2973.57   5
  -9   5   4 11166.3 3427.28   1
   9   5  -4 12465.8 2931.50  14
  -9  -5   4 9544.12 1939.47   8
   9   5   4 14463.1 3385.19  14
  10  -5  -4 543.169 473.545  12
  10   5  -4-1782.34 1525.54   7
  10  -5   4-3283.56 2997.52  12
 -10  -5  -4 337.360 783.639   3
 -10   5  -4-342.113 808.111  10
  10   5   4 542.952 811.934  15
 -10   5   4-198.767 689.147  10
 -10  -5   4 105.750 449.053   5
  10   5  -4 787.501 746.363  14
 -10   5   4-670.404 1176.89   1
  10   5   4 91.5092 432.789  14
 -11  -5  -4 3883.41 2989.79  13
 -11  -5  -4 560.055 797.194   3
  11   5  -4-2563.46 1948.41   7
  11  -5  -4-1079.37 1298.86  12
  11  -5   4-5216.75 3673.19  12
 -11   5  -4-239.095 682.631  10
 -11   5   4 502.178 440.348  10
 -11  -5   4-902.002 1789.45   5
  11   5  -4 1488.68 1358.38  14
  11   5   4 90.7663 213.288  14
 -11   5   4 824.342 1463.10   1
 -12   5   4 148.763 599.568   1
 -12  -5  -4 2387.41 2169.03  13
  12   5  -4-3461.55 2425.14   7
  12  -5  -4 265.893 372.785  12
  12  -5   4-4706.93 4078.67  12
 -12   5  -4-1658.16 1281.24  10
 -12   5   4-594.941 873.369  10
 -12  -5   4 415.271 506.056   5
  12   5  -4-133.893 758.423  14
  12   5   4 561.974 113.554  14
 -13  -5  -4 2493.35 1191.38  13
 -13   5   4 5589.57 2567.87   1
  13  -5  -4 4285.42 1574.17  12
  13  -5   4-2278.40 3531.00  12
 -13   5  -4 6050.52 2166.38  10
 -13   5   4 4331.84 2279.43  10
 -13  -5   4 4070.16 2392.79   5
  13   5  -4 6919.75 2769.93  14
  13   5   4 6047.98 2390.86  14
 -14   5   4 182.234 438.660   1
  14  -5  -4-871.959 986.567  12
  14  -5   4-2261.80 2659.64  12
 -14   5  -4 26.8088 708.590  10
 -14   5   4 1061.08 1324.02  10
 -14  -5   4 295.381 538.442   5
  14   5  -4 505.738 1083.18  14
  14   5   4 2034.64 1531.67  14
 -15  -5  -4 244.725 727.514   4
  15  -5  -4 669.748 812.044  12
  15  -5   4-2982.82 2279.51  12
 -15   5   4 176.229 896.623   1
 -15   5  -4 408.604 484.420  10
 -15   5   4-290.805 1186.58  10
 -15  -5   4 186.150 790.620   5
  15   5  -4 1239.95 1663.17  14
  15   5   4 552.199 1230.60  14
 -16  -5  -4-1.15328 1171.47   4
  16  -5  -4 102.792 1412.93  12
 -16   5  -4 830.193 291.715  10
 -16   5   4 1405.68 1212.93  10
 -16  -5   4-956.113 1903.40   5
   0  -5   5 486.101 446.880  12
   0   5  -5-332.264 519.398   7
   0  -5   5-80.5053 338.350  11
   0   5  -5 181.430 487.970  10
   0   5   5-77.4043 396.772   9
   0   5   5 337.557 747.976  15
   0  -5  -5 80.5351 513.600   3
   0  -5   5 429.479 714.547   5
   1  -5  -5 3733.88 1418.87  12
  -1  -5   5 2781.19 789.385  12
   1  -5   5 2513.21 805.895  12
   1   5  -5 3499.25 1299.51   7
  -1   5  -5 3461.47 1391.51   7
  -1  -5   5 4312.59 1550.74  11
   1  -5   5 2571.55 1060.30  11
   1   5  -5 2976.66 1177.62  10
  -1   5  -5 2643.51 1296.41  10
   1   5   5 2387.56 1363.52   9
  -1   5   5 2714.69 1378.03   9
   1   5   5 2193.11 1063.65  15
  -1   5   5 3164.06 1482.26  15
  -1  -5  -5 3266.55 1189.15   3
  -1  -5   5 4303.41 1522.99   5
   1  -5   5 2645.21 983.254   5
  -2  -5  -5 2851.91 624.539   4
  -2  -5   5 3238.04 862.285  12
   2  -5  -5 3312.06 1248.13  12
   2  -5   5 2952.23 968.934  12
  -2   5   5 2645.81 1433.60   9
   2   5  -5 3194.74 1395.75   7
  -2   5  -5 2286.05 1016.40   7
  -2  -5   5 4996.77 1689.73  11
  -2  -5  -5 2984.12 652.500  11
   2  -5   5 2881.12 1028.95  11
   2   5  -5 4568.62 1546.35   6
   2   5  -5 2343.16 1145.98  10
  -2   5  -5 3360.49 1435.56  10
   2   5   5 4459.95 1745.73   9
  -2  -5  -5 3006.20 1181.36   3
   2   5   5 3557.90 1547.80  15
  -2   5   5 3584.89 1629.95  15
  -2  -5   5 4950.36 1878.06   5
   2   5  -5 2678.39 951.618  14
   2  -5   5 3600.41 1178.45   5
  -2  -5  -5 2421.51 756.760   7
  -3  -5  -5 5497.94 997.711   4
   3  -5  -5 5722.61 1631.92  12
   3  -5   5 6120.42 1669.84  12
   3   5  -5 5779.38 1815.53   7
  -3   5  -5 6694.35 1953.98   7
  -3  -5   5 6149.49 1874.88  11
   3  -5   5 6411.63 1592.29  11
   3   5  -5 6245.16 1746.25   6
   3   5  -5 4052.27 1353.55  10
  -3   5  -5 6625.82 1960.56  10
  -3   5   5 6140.47 2140.65  15
   3  -5   5 7626.40 1676.84   5
  -3  -5  -5 7383.08 1824.00   3
   3   5   5 6270.29 2102.20   9
  -3   5   5 5496.98 2185.35   9
   3   5   5 6855.09 2282.93  15
  -3  -5   5 7078.49 2217.61   5
   3   5  -5 5465.17 1492.54  14
  -3  -5  -5 5457.62 1057.68   7
   4  -5   5 491.965 248.462   5
  -4  -5  -5 528.157 262.839   4
   4  -5  -5 230.873 411.987  12
   4  -5   5 806.275 637.253  12
   4   5  -5 904.542 923.398   7
  -4  -5   5 730.702 823.618  11
  -4   5  -5 184.287 553.307   7
  -4   5   5-117.150 764.178   9
   4   5  -5 308.421 149.580   6
  -4   5   5 161.093 350.441   6
  -4   5  -5 601.907 851.733  10
  -4  -5  -5 941.029 729.992   3
   4   5   5 931.794 941.929   9
  -4   5   5 1242.47 857.492  15
  -4  -5   5 170.460 582.198   5
   4   5  -5 386.211 520.525  14
   4   5   5 719.617 627.657  15
   5   5   5-183.452 651.438  14
  -5  -5  -5-78.0582 335.767   4
   5  -5  -5 469.497 605.544  12
   5  -5   5 50.7496 489.973  12
   5   5  -5 225.161 512.288   7
   5   5  -5 73.1213 269.112   6
  -5   5  -5 865.638 625.901  10
  -5  -5  -5-367.198 611.832   3
   5   5   5 961.611 1013.42  15
   5   5   5 331.598 872.788   9
  -5   5   5 512.093 1252.50   9
  -5   5   5 487.171 729.839  15
  -5  -5   5 402.221 909.264   5
   5   5  -5 582.960 646.845  14
   6   5   5 8850.18 2635.85  14
  -6  -5  -5 7035.09 1498.19   4
   6  -5  -5 9445.58 2257.06  12
   6   5  -5 7471.61 2308.62   7
   6  -5   5 8077.48 2209.60  12
  -6  -5  -5 8785.15 2177.21   3
   6   5  -5 9332.07 2157.98   6
  -6   5  -5 9263.49 2381.67  10
   6   5   5 8613.16 2108.58   9
  -6   5   5 8934.94 3026.80   9
   6   5   5 8521.06 2692.83  15
  -6  -5   5 8124.60 2693.90   5
  -6  -5   5 8152.78 2241.40   8
   6   5  -5 8025.55 2084.14  14
   7   5   5 5448.89 2036.60  14
  -7  -5  -5 4003.81 1154.45   4
   7  -5  -5 5014.89 1708.06  12
   7   5  -5 3725.00 1632.59   7
   7  -5   5 3271.11 1065.70  12
   7   5  -5 4491.81 1468.16   6
  -7   5  -5 4778.23 1698.34  10
  -7  -5  -5 6248.21 1827.58   3
  -7   5   5 4805.46 1950.53   9
   7   5   5 5652.94 2183.04  15
  -7  -5   5 2796.60 1494.63   5
   7   5  -5 5140.02 1785.05  14
  -7  -5   5 4532.82 1546.29   8
  -8  -5  -5-215.074 498.956   4
   8  -5  -5 464.361 515.741  12
   8   5  -5 66.5852 407.579   7
   8   5  -5-284.257 746.682  14
   8   5  -5-312.099 814.503   6
  -8  -5  -5-23.4100 108.444   3
  -8   5  -5 224.963 479.909  10
  -8   5   5 56.4556 982.057   9
   8   5   5 352.089 797.614  15
  -8  -5   5-1370.95 1701.98   5
  -8  -5   5 123.700 475.896   8
   8   5   5 616.380 717.783  14
  -9   5   5 212.368 904.450   1
  -9  -5  -5 914.811 692.620   4
   9  -5  -5 30.5973 205.057  12
   9   5  -5-109.554 735.389   7
  -9  -5  -5 83.7045 594.890   3
   9   5  -5 449.683 552.642   6
  -9   5  -5 1019.95 820.807  10
  -9   5   5 226.989 298.625   9
   9   5   5 979.422 1020.84  15
  -9  -5   5-269.632 1142.45   5
   9   5  -5 705.807 590.914  14
  -9  -5   5 154.547 673.153   8
   9   5   5 784.497 1060.11  14
 -10  -5  -5 1265.95 624.340   4
 -10  -5  -5 4903.29 3159.27  13
  10  -5  -5 2092.82 1228.93  12
  10   5  -5-162.643 1267.95   7
  10  -5   5-4239.02 3649.71  12
 -10   5   5 2437.20 1800.58   9
 -10  -5  -5 2126.89 1347.16   3
 -10   5  -5 1549.36 1055.15  10
 -10   5   5 577.325 68.5419  10
 -10   5   5 865.264 156.834   1
  10   5   5 1618.99 1165.66  15
 -10  -5   5-1184.85 2031.96   5
  10   5  -5 975.566 989.882  14
  10   5   5 2533.98 1687.33  14
 -11  -5  -5 2566.36 1371.50   4
 -11  -5  -5 3144.09 2005.85  13
  11  -5  -5 3839.74 1725.03  12
  11   5  -5-1429.46 1685.02   7
 -11  -5  -5 3502.45 1668.71   3
 -11   5  -5 2873.66 1659.58  10
  11   5   5 3255.82 1972.72  15
 -11   5   5 2392.82 1458.03  10
 -11   5   5 1793.90 1251.62   9
 -11  -5   5 1202.44 474.735   5
 -11   5   5 1434.43 262.422   1
  11   5  -5 2445.35 1302.25  14
  11   5   5 3256.55 1867.26  14
 -12  -5  -5-3344.32 3392.22  13
 -12  -5  -5 4759.96 1740.30   4
  12   5  -5-2163.46 2096.48   7
  12  -5  -5 5825.14 2048.21  12
  12  -5   5-4752.87 4369.14  12
 -12   5  -5 6624.01 2365.23  10
 -12   5   5 6621.50 2785.64  10
 -12  -5   5 2849.87 2064.51   5
 -12   5   5 5518.91 2469.86   1
  12   5  -5 6695.98 2553.95  14
  12   5   5 7091.70 2577.68  14
 -13   5   5-377.411 530.362   1
 -13  -5  -5-5619.68 4560.19  13
 -13  -5  -5 221.743 606.101   4
  13   5  -5-2507.85 2526.41   7
  13  -5  -5-243.808 589.408  12
  13  -5   5-5416.03 4537.66  12
 -13   5  -5 12.9441 306.439  10
 -13   5   5 827.409 1503.81  10
 -13  -5   5-73.7620 736.140   5
  13   5  -5 200.219 409.316  14
  13   5   5 235.111 451.241  14
 -14   5   5 328.642 847.789   1
 -14  -5  -5 823.672 1073.31   4
  14  -5  -5-1009.26 508.095  12
  14   5   5 25.3929 673.024  14
 -14   5  -5 1467.16 1125.74  10
 -14   5   5-757.673 626.685  10
 -14  -5   5-458.701 627.631   5
  14   5  -5 21.2197 497.472  14
 -15  -5  -5 1652.38 846.962   4
  15  -5  -5 1230.42 335.673  12
 -15   5  -5 841.861 1121.89  10
 -15   5   5 1136.84 1489.23  10
 -15  -5   5-58.6921 966.454   5
  15   5  -5 752.778 247.780  14
  16  -5  -5-120.587 506.963  12
 -16   5  -5 3494.99 2048.01  10
   0  -5  -6-193.919 510.030   7
   0  -5   6 546.687 476.686  12
   0   5  -6-55.4000 449.617   7
   0  -5   6 656.454 897.697  11
   0   5  -6-260.221 531.565  10
   0   5   6-839.887 1839.04   9
   0   5   6-6.80884 482.318  15
   0  -5  -6-592.639 583.432   3
   0  -5   6 393.104 867.088   5
  -1  -5  -6 5858.48 1502.30   7
   1  -5   6 6117.40 1311.98  12
   1   5  -6 7735.24 2162.69   7
  -1   5  -6 7195.32 1947.69   7
  -1  -5   6 8640.93 2125.56  11
   1  -5   6 8410.74 1985.37  11
   1   5   6 4364.55 1143.72   9
   1   5  -6 5568.82 1947.30  10
  -1   5  -6 7599.99 2162.12  10
  -1   5   6 5912.06 1833.65   9
  -1   5   6 7918.63 2478.05  15
  -1  -5  -6 7695.92 1992.09   3
  -1  -5   6 8306.16 2377.16   5
   1  -5   6 7380.46 1886.75   5
   1  -5  -6 8190.15 2143.58   3
   1   5   6 7517.75 2595.77  15
  -2  -5  -6 551.048 608.178   7
   2  -5  -6 879.932 952.493  12
   2  -5   6 28.5771 255.542  12
   2   5  -6 707.778 946.952   7
  -2   5  -6 745.394 751.722   7
  -2  -5   6 796.995 865.383  11
   2  -5   6 59.9389 315.545  11
   2   5  -6 1394.18 939.726  10
  -2   5  -6 205.100 608.520  10
  -2  -5  -6 787.665 820.532   3
   2   5   6 272.777 1227.64   9
  -2   5   6-1488.20 1936.90   9
   2   5   6-36.9150 651.767  15
  -2   5   6 300.481 677.681  15
  -2  -5   6 469.906 752.089   5
   2  -5   6 199.879 386.619   5
   3   5  -6 13624.3 3094.44   7
  -3   5  -6 13749.9 2913.65   7
   3  -5  -6 15972.5 2846.56  12
   3  -5   6 13505.8 2422.73  12
  -3  -5   6 14052.1 2908.43  11
   3  -5   6 15694.1 2685.62  11
  -3  -5  -6 15300.4 2809.17   3
  -3   5  -6 14857.5 3134.03  10
  -3  -5   6 13809.5 3245.78   5
   3  -5   6 16870.0 2546.13   5
   3   5   6 14713.2 3561.48  15
  -3   5   6 13888.8 3447.78  15
   3   5   6 11729.8 2940.53   9
  -3   5   6 10717.5 3216.68   9
   4  -5  -6 1546.43 546.071  12
   4  -5   6 1503.60 966.200  12
   4   5  -6 1399.25 1167.09   7
  -4   5  -6 944.429 618.323   7
   4   5  -6 1041.23 838.281   6
   4  -5   6 568.422 310.834  11
  -4   5  -6 1436.28 1158.39  10
  -4  -5  -6 1029.94 842.595   3
   4   5   6-132.018 532.450   9
  -4   5   6 517.035 391.680   9
   4   5   6 1244.68 1196.38  15
  -4   5   6 222.974 698.698  15
  -4  -5   6 1001.36 1255.75   5
  -4  -5   6 2818.15 1595.71   8
   4  -5   6 935.416 530.752   5
   5  -5  -6-132.201 811.365  12
   5  -5   6-42.4404 152.481  12
   5   5  -6 180.514 301.423   7
  -5   5  -6 128.611 406.773   7
   5   5   6-412.930 859.697  15
   5   5  -6 371.132 587.152   6
  -5   5  -6 789.389 1098.50  10
  -5  -5  -6-48.8470 604.010   3
   5   5   6 173.916 476.950   9
  -5   5   6 1054.60 1154.17   9
  -5   5   6-166.917 849.652  15
  -5  -5   6-820.211 1289.75   5
   5   5  -6-111.360 292.826  14
  -5  -5   6 1636.69 1277.04   8
   6   5   6 2763.74 1569.70  14
  -6  -5  -6 2694.59 987.790   4
   6  -5  -6 2698.21 1180.39  12
   6   5  -6 1959.76 1128.79   7
   6  -5   6 1910.22 692.494  12
  -6  -5   6 1900.85 1080.20   8
   6   5  -6 2553.01 1037.58   6
  -6   5  -6 2994.56 1544.19  10
  -6  -5  -6 3003.57 1326.33   3
   6   5   6 3421.06 1552.58   9
  -6   5   6 3392.10 2148.91   9
   6   5   6 3842.78 1763.82  15
  -6  -5   6 572.462 801.089   5
   6   5  -6 2900.11 1339.22  14
   7   5   6 2855.95 1475.57  14
  -7  -5  -6 2238.60 820.899   4
   7  -5  -6 3573.71 1397.79  12
   7   5  -6 1931.04 1232.75   7
   7  -5   6 107.232 1494.36  12
   7   5  -6 2620.67 1114.21   6
  -7   5  -6 2238.58 990.860  10
  -7  -5  -6 2542.48 1202.13   3
  -7   5   6 2199.38 984.502   9
   7   5   6 2539.83 1456.20  15
  -7  -5   6-1327.16 2085.81   5
   7   5  -6 2377.20 1318.01  14
  -7  -5   6 1299.43 629.138   8
  -8  -5  -6 4381.88 3038.66  13
  -8  -5  -6 391.673 532.908   4
   8  -5  -6 219.295 263.204  12
   8   5  -6 63.7985 479.145   7
   8  -5   6-3345.70 2734.42  12
   8   5  -6 704.252 753.070   6
  -8  -5  -6 666.669 405.445   3
  -8   5  -6 1989.70 1425.69  10
  -8   5   6-318.394 1119.37   9
   8   5   6 1223.79 939.992  15
  -8  -5   6-2658.42 2738.52   5
   8   5  -6 1439.18 910.588  14
  -8  -5   6 515.944 404.347   8
   8   5   6-267.444 260.864  14
  -9  -5  -6 971.699 1929.05  13
  -9  -5  -6 501.248 647.535   4
   9  -5  -6 99.7378 376.737  12
   9   5  -6-989.255 1443.05   7
   9   5  -6 185.005 313.549   6
  -9  -5  -6 198.569 837.524   3
  -9   5  -6-6.40844 397.363  10
  -9   5   6-190.818 832.957   9
   9   5   6-47.0650 112.841  15
  -9  -5   6-2013.41 2797.57   5
   9   5  -6 229.303 342.990  14
  -9  -5   6-2046.96 1513.76   8
   9   5   6 109.896 25.1680  14
 -10  -5  -6 1028.79 1504.04  13
 -10  -5  -6 1184.90 916.742   4
  10   5  -6 617.794 111.599  14
  10  -5  -6 1400.94 1195.20  12
  10   5  -6-266.688 692.809   7
 -10  -5  -6 346.211 842.455   3
  10   5  -6 138.812 84.5884   6
 -10   5  -6 1295.19 765.079  10
 -10   5   6 1743.30 1140.24   9
  10   5   6-150.205 151.576  15
 -10  -5   6-26.1463 823.537   8
  10   5   6-272.111 895.283  14
 -11   5   6 1186.87 935.112   1
 -11  -5  -6 544.568 710.670   4
  11  -5  -6 894.377 591.221  12
  11   5  -6-2325.07 1934.20   7
 -11  -5  -6 1159.62 959.010   3
 -11   5  -6 421.281 301.009  10
 -11   5   6 1603.42 513.017   9
  11   5   6 2204.38 1722.24  15
 -11  -5   6-1577.13 2274.76   5
  11   5  -6 631.694 886.713  14
  11   5   6 223.820 578.607  14
 -12  -5  -6 1029.90 764.166   4
  12  -5  -6 1995.08 1240.55  12
  12   5  -6-1853.13 2231.89   7
 -12   5  -6 1079.79 892.012  10
  12   5   6-43.4962 986.759  15
 -12   5   6 563.918 807.966  10
 -12   5   6 592.724 999.650   9
 -12   5   6 318.727 1014.16   1
 -12  -5   6-482.047 1049.78   5
  12   5  -6 1176.14 1183.46  14
  12   5   6 2238.53 1607.09  14
 -13  -5  -6-4380.58 4293.35  13
 -13  -5  -6-116.113 626.475   4
  13  -5  -6 163.963 636.168  12
  13   5  -6-1615.92 1829.89   7
 -13   5  -6 125.765 436.505  10
 -13   5   6-560.350 988.535  10
 -13   5   6-163.266 1607.13   9
  13   5   6 463.548 1080.22  15
 -13  -5   6 293.438 1051.27   5
 -13   5   6-1156.72 897.625   1
  13   5  -6 445.143 1036.35  14
  13   5   6-50.3985 590.539  14
 -14  -5  -6 120.726 312.967   4
  14  -5  -6-1481.76 1251.85  12
 -14   5  -6-24.4150 280.305  10
 -14   5   6 1427.82 948.583  10
 -14  -5   6 511.159 1503.14   5
  14   5  -6 451.533 439.395  14
  14   5   6 409.715 633.602  14
 -15  -5  -6 2986.44 1864.72   4
   0  -5  -7 17126.6 2819.31   7
   0   5  -7 21203.9 3749.37   7
   0  -5   7 22684.6 3523.31  11
   0  -5  -7 21226.1 3437.44   3
   0   5  -7 17920.1 3368.57  10
   0  -5   7 21665.6 3663.48   5
   0   5   7 20935.3 4563.05  15
   0   5   7 11857.9 2961.19   9
   1  -5  -7 399.085 567.061   7
  -1  -5  -7 635.344 680.596   7
   1   5  -7 416.241 563.655   7
  -1   5  -7 103.610 497.513   7
  -1  -5   7 127.426 461.338  11
   1  -5   7 933.906 1054.45  11
  -1   5  -7 511.632 394.714  10
  -1  -5  -7 417.403 823.409   3
  -1   5   7-2523.78 3160.43   9
   1   5   7-2796.36 3607.08   9
   1   5   7-107.095 315.996  15
  -1   5   7-125.624 410.943  15
  -1  -5   7 138.472 684.451   5
   1  -5  -7 191.106 575.235   3
   1  -5   7 624.139 770.770   5
   2  -5  -7-208.383 673.735   7
   2   5  -7 223.393 273.887   7
  -2   5  -7 848.011 604.996   7
  -2  -5   7 1695.40 1363.11  11
   2  -5   7 426.921 347.542  11
  -2   5  -7 262.707 763.878  10
  -2  -5  -7 298.515 368.094   3
  -2   5   7-2684.15 3207.12   9
   2   5   7-2752.18 3064.93   9
   2   5   7 1198.19 1147.23  15
  -2   5   7 19.3579 416.262  15
  -2  -5   7 501.351 953.789   5
   2  -5   7-450.582 690.757   5
   2  -5  -7 454.179 304.502   3
  -2  -5   7 1378.84 1428.79   8
   3  -5  -7 487.638 364.540   7
   3  -5  -7 623.272 716.346  12
   3   5  -7 1476.84 1161.40   7
  -3   5  -7 1004.29 836.723   7
   3  -5   7 366.409 158.821  11
  -3   5  -7 1005.78 832.013  10
  -3  -5  -7 1473.39 1141.11   3
  -3   5   7-2293.22 2283.73   9
   3   5   7-444.210 2245.48   9
   3   5   7-59.7098 1080.62  15
  -3   5   7 940.050 994.587  15
  -3  -5   7 573.452 949.130   5
   3  -5   7 17.1043 575.043   5
  -3  -5   7 2612.23 1473.29   8
  -4  -5  -7 13238.9 4385.04  13
   4  -5  -7 3949.96 1291.86   7
   4  -5  -7 6484.56 1901.14  12
   4  -5   7 5626.62 1703.69  12
   4   5  -7 6370.36 2246.15   7
  -4   5  -7 5048.84 1885.47   7
   4  -5   7 6218.28 1660.92  11
  -4   5  -7 6349.85 2061.83  10
  -4  -5  -7 5700.61 1709.42   3
  -4   5   7 3660.30 2069.54  15
   4   5   7 3425.67 1337.44   9
  -4   5   7 2183.96 512.840   9
   4   5   7 4730.96 2147.13  15
  -4  -5   7 3314.34 1242.07   5
  -4  -5   7 5759.26 2187.43   8
  -5  -5  -7 5193.90 3370.31  13
   5  -5  -7 1064.58 930.790  12
   5  -5   7 671.054 323.563  12
   5   5  -7 752.788 1043.84   7
  -5   5  -7 1043.36 948.718   7
   5  -5   7 945.002 288.502  11
   5   5   7-375.538 1607.84   9
  -5   5  -7 904.229 448.585  10
  -5  -5  -7 610.234 558.762   3
   5  -5  -7-416.778 903.219   7
  -5   5   7-37.3040 1520.75   9
   5   5   7 1111.55 840.606  15
  -5   5   7-542.648 1003.39  15
  -5  -5   7-246.066 934.592   5
  -5   5   7 1940.41 2347.73   2
  -5  -5   7 1216.88 1067.64   8
   6   5   7-297.239 903.308  14
   6  -5  -7-310.448 495.305  12
   6   5  -7-212.160 304.354   7
   6  -5   7-624.475 1067.57  12
  -6   5  -7 610.030 584.589   7
   6  -5   7-511.631 977.638  11
  -6   5  -7 302.329 389.580  10
  -6  -5  -7-81.5911 590.519   3
   6   5   7-434.657 1154.36   9
  -6   5   7 253.909 949.847   9
   6   5   7 1653.68 1228.78  15
  -6  -5   7-2854.78 2437.43   5
  -6  -5   7-380.610 670.180   8
   7   5   7-7.05855 526.903  14
  -7  -5  -7 1312.53 1917.05  13
   7  -5  -7 117.070 527.158  12
   7   5  -7 585.010 1054.25   7
   7  -5   7-981.329 1434.38  12
   7   5  -7 1618.55 1286.03   6
  -7   5  -7-130.337 432.543  10
  -7  -5  -7 330.855 232.717   3
  -7   5   7-1146.77 1764.92   9
   7   5   7-191.776 943.161  15
  -7  -5   7-3024.45 2903.29   5
  -7  -5   7-557.894 964.688   8
   8   5   7 311.589 473.065  14
  -8  -5  -7-1252.46 1864.51  13
   8  -5  -7-189.665 562.082  12
   8   5  -7-653.305 1250.12   7
   8  -5   7-3180.04 2476.28  12
   8   5  -7 19.3566 472.282   6
  -8  -5  -7 1459.69 1165.71   3
  -8   5  -7 580.129 820.135  10
  -8   5   7 132.510 1076.27   9
   8   5   7-273.390 863.218  15
  -8  -5   7-4301.68 3675.10   5
  -8  -5   7-1489.93 1629.54   8
  -9  -5  -7-2447.70 3237.41  13
   9  -5  -7 126.340 385.054  12
   9   5  -7-486.321 724.658   7
   9  -5   7-4396.71 3280.23  12
   9   5   7 254.704 528.088  15
  -9  -5  -7 379.679 617.699   3
  -9   5  -7 3094.20 1788.73  10
  -9   5   7-154.567 1503.03   9
  -9  -5   7-1481.04 1510.03   8
   9   5   7 112.145 790.013  14
 -10  -5  -7-4443.50 4642.90  13
  10  -5  -7 985.059 915.597  12
  10   5  -7-1506.45 1698.91   7
  10  -5   7-6571.87 4322.38  12
 -10  -5  -7 113.447 522.702   3
 -10   5  -7 1204.50 818.980  10
 -10   5   7-625.589 796.618   9
  10   5   7-208.139 675.280  15
 -10  -5   7-3416.50 3120.07   5
  10   5  -7-126.932 495.314  14
 -10  -5   7-1383.57 1466.95   8
  10   5   7 278.891 789.368  14
 -11  -5  -7-3113.49 3762.95  13
  11  -5  -7 5.14226 507.655  12
  11   5  -7-1790.73 1976.29   7
 -11  -5  -7 1736.24 1385.99   3
 -11   5  -7 3157.93 1861.50  10
 -11   5   7 996.461 1425.03   9
  11   5   7 1959.22 1615.25  15
 -11  -5   7-1623.67 2455.08   5
  11   5  -7 1293.10 1107.64  14
  11   5   7 1438.05 1159.79  14
 -12   5   7 987.752 883.023   1
  12   5  -7-651.843 1040.25   7
 -12   5  -7 877.725 609.140  10
 -12   5   7-1168.91 1526.34   9
  12   5   7 549.083 407.797  15
 -12  -5   7 1016.75 1499.40   5
  12   5  -7-330.692 610.225  14
  12  -5  -7-448.013 1140.47   7
  12   5   7 269.482 792.889  14
 -13  -5   7-3946.09 2649.96   2
  13   5  -7 856.726 1105.37   7
 -13   5  -7 106.818 711.855  10
 -13   5   7-1404.96 1668.32  10
 -13   5   7-1979.81 1985.22   9
  13   5  -7-361.901 781.204  14
  13   5   7 1582.64 1397.01  14
  14   5  -7 3014.76 2325.45   7
 -14  -5   7-2239.65 1987.05   2
   0  -5  -8-200.283 326.308   7
   0   5  -8-450.785 921.146   7
   0  -5   8 576.204 712.268  11
   0  -5  -8 180.645 531.768   3
   0   5   8-413.977 547.417  15
   0  -5   8-7.39423 399.436   5
   0  -5   8 1283.17 1411.98   8
  -1  -5  -8 8543.70 3525.75  13
   1  -5  -8 364.480 561.403   7
   1   5  -8 560.178 461.151   7
  -1   5  -8 1085.78 991.231   7
  -1  -5   8 2535.25 1535.67  11
   1  -5   8 1186.09 979.010  11
  -1  -5  -8 763.222 579.371   3
  -1   5   8-4783.93 4519.87   9
   1   5   8 975.411 1247.05  15
  -1   5   8 185.717 407.834  15
   1  -5  -8 573.788 384.823   3
  -1  -5   8 1153.51 879.981   5
   1  -5   8 1212.67 1023.11   5
  -1  -5   8 2407.39 1675.38   8
   1  -5   8 2861.60 1956.91   8
  -2  -5  -8 5122.58 3062.41  13
   2  -5  -8 5.65248 454.351   7
   2   5  -8 514.736 783.709   7
  -2   5  -8 138.683 292.424   7
   2  -5   8 1331.88 1005.68  11
  -2   5  -8 190.355 632.029  10
  -2  -5  -8 489.692 771.582   3
  -2   5   8-3942.61 4252.12   9
   2   5   8-5572.68 4960.53   9
   2   5   8 67.5910 1060.59  15
  -2   5   8-549.683 773.012  15
  -2  -5   8 483.392 381.952   5
   2  -5  -8 428.833 520.212   3
   2  -5   8-361.262 620.032   5
  -2   5   8 7917.58 4154.37   2
  -2  -5   8 1997.39 1731.86   8
  -3   5   8-2596.47 3222.39   9
  -3  -5  -8 6441.88 3270.06  13
   3  -5  -8 901.690 865.669   7
   3   5  -8 2174.59 1350.74   7
  -3   5  -8 1698.76 1225.32   7
   3  -5   8 2754.15 1435.46  11
  -3   5  -8 2365.91 1480.12  10
  -3  -5  -8 2713.09 1359.63   3
   3   5   8-3241.70 4283.29   9
   3   5   8 1229.12 1351.48  15
  -3   5   8 638.704 1054.50  15
  -3  -5   8 400.917 340.581   5
   3  -5  -8 1809.70 924.575   3
  -3   5   8 6965.80 3842.82   2
  -3  -5   8 2846.93 1623.23   8
  -4  -5  -8 2092.19 1869.41  13
   4  -5  -8 1220.11 580.717   7
   4   5  -8 2678.34 1693.62   7
  -4   5  -8 1423.97 734.100   7
   4  -5   8 2262.02 1172.99  11
  -4   5  -8 730.958 657.295  10
  -4  -5  -8 1187.27 829.055   3
  -4   5   8-3027.98 2854.14   9
   4   5   8-2782.51 3124.82   9
   4   5   8 221.204 570.669  15
  -4   5   8 381.129 363.857  15
  -4  -5   8 837.602 370.635   5
  -4  -5   8 1186.07 1126.02   8
  -4   5   8 3254.52 2529.57   2
  -5  -5  -8 712.156 1216.31  13
   5  -5  -8 411.658 865.866   7
   5  -5  -8 1261.86 858.193  12
   5   5  -8 678.567 744.033   7
  -5   5  -8 1118.23 740.808   7
   5  -5   8-409.880 964.666  11
  -5   5  -8 1104.20 167.449  10
  -5  -5  -8 748.749 631.331   3
  -5   5   8-1605.40 2612.30   9
   5   5   8-2077.27 2965.03   9
   5   5   8-587.951 1151.47  15
  -5  -5   8-879.543 1713.66   5
  -5  -5   8-633.412 649.608   8
  -5   5   8-1516.64 2413.85   2
   6   5   8 3525.67 2067.51  14
  -6  -5   8 3627.15 1768.27   8
  -6  -5  -8-264.007 2433.35  13
   6  -5  -8 2605.20 1469.68   7
   6  -5  -8 4588.80 1691.05  12
   6   5  -8 4030.02 2176.89   7
  -6   5  -8 3644.81 1627.81   7
   6  -5   8 4247.47 1511.06  11
  -6   5  -8 4526.61 1896.03  10
  -6  -5  -8 4296.72 1663.48   3
  -6   5   8 2243.30 1540.76   9
   6   5   8 4732.14 2283.06  15
  -6  -5   8 84.9657 1782.67   5
  -6   5   8-1659.81 2763.96   2
   7   5   8 831.059 1085.47  14
  -7  -5  -8-3016.83 3372.61  13
   7  -5  -8 723.917 595.041   7
   7  -5  -8 2033.81 1111.86  12
   7   5  -8 578.490 1098.18   7
   7  -5   8 1396.01 433.363  11
  -7   5  -8 1359.43 885.109  10
  -7  -5  -8 2151.80 1330.78   3
  -7   5   8 1828.61 905.478   9
   7   5   8 363.058 930.736  15
  -7  -5   8-3753.18 3660.43   5
  -7  -5   8-1010.56 1366.38   8
  -7   5   8-3783.94 3582.82   2
   8   5   8 7282.05 2855.83  14
   8  -5  -8 2980.61 1632.20   7
   8  -5  -8 4730.50 1814.44  12
   8   5  -8 2085.02 1538.00   7
   8  -5   8 4292.14 1369.41  11
  -8  -5  -8 7268.44 2368.09   3
  -8   5  -8 5952.75 2231.89  10
  -8   5   8 5481.65 2997.70   9
   8   5   8 6168.98 2859.32  15
  -8  -5   8-4467.51 4028.44   5
  -8  -5   8 784.780 692.631   8
  -8   5   8-1310.17 3053.51   2
   9  -5  -8 2320.78 1288.05   7
   9   5  -8 1861.42 1280.94   7
   9  -5   8-1807.22 2606.98  12
  -9  -5  -8 3812.53 1881.03   3
  -9   5  -8 3674.95 1812.34  10
  -9   5   8 2480.11 1902.78   9
   9   5   8 4265.11 2193.11  15
  -9  -5   8 3067.38 1456.60   8
   9   5   8 3549.61 1970.48  14
 -10  -5  -8-131.254 1952.23  13
  10  -5  -8 733.648 542.391   7
  10   5  -8 270.498 720.994   7
  10  -5   8-3559.51 3459.07  12
 -10  -5  -8 2673.97 1462.16   3
 -10   5  -8-79.7312 571.312  10
 -10   5   8 959.588 788.379   9
  10   5   8 3237.78 1425.52  15
 -10  -5   8-69.9937 97.9688   8
  10   5   8 3101.21 2014.23  14
 -11  -5  -8-536.604 1369.35  13
  11  -5  -8 23.3825 312.675   7
 -11  -5  -8 1068.94 1116.84   3
  11   5  -8-730.582 937.357   7
 -11   5  -8 1405.84 785.503  10
 -11   5   8-1103.73 1916.23   9
  11   5   8-23.0239 665.565  15
 -11  -5   8-2386.62 2666.80   5
  11   5   8 446.072 228.451  14
  12   5  -8 1793.69 1852.99   7
  12  -5   8-3715.65 3650.59  12
 -13  -5   8-3607.91 2757.52   2
   0   5  -9 534.823 193.889   7
   0  -5   9 909.369 1192.15  11
   0  -5  -9 15.2992 483.912   3
   0   5   9 1798.80 1964.95  15
   0  -5   9 1119.71 1044.02   5
   0   5   9 1485.24 1892.70   2
   0  -5   9 1363.40 1526.61   8
   1   5  -9 1299.76 839.627   7
  -1   5  -9 478.634 364.585   7
   1  -5   9 2201.16 1333.66  11
  -1  -5  -9 1554.49 1120.14   3
   1   5   9 1814.01 1281.63  15
   1  -5  -9 1645.56 1072.01   3
  -1   5   9 1364.03 1715.08  15
  -1  -5   9 2148.22 1242.25   5
  -1   5   9 3198.88 2687.76   2
  -1  -5   9 2073.20 1587.58   8
   1  -5   9 2486.31 1924.77   8
   2  -5  -9 2097.41 1382.39   7
   2   5  -9 2316.53 1564.60   7
  -2   5  -9 2047.61 1448.10   7
   2  -5   9 3133.11 1502.58  11
  -2  -5  -9 2224.07 1382.04   3
  -2   5   9-4501.92 4495.66   9
   2   5   9 598.053 491.004  15
  -2   5   9 1081.24 1160.51  15
  -2  -5   9 1140.62 1023.49   5
   2  -5  -9 1237.15 1066.57   3
  -2  -5   9 2509.96 1670.63   8
  -2   5   9 2859.74 2554.45   2
   2  -5   9 3610.65 2082.79   8
   3  -5  -9 59.7554 931.900   7
  -3   5   9 2432.77 2659.26   2
   3   5  -9-494.260 750.659   7
  -3   5  -9 48.5697 709.504   7
   3  -5   9 563.639 771.921  11
  -3  -5  -9 155.806 103.693   3
  -3   5   9-3291.32 3821.21   9
   3   5   9-1347.74 1641.59  15
  -3   5   9-239.639 676.812  15
  -3  -5   9-483.652 1058.01   5
   3  -5  -9 49.6724 584.482   3
  -3  -5   9-92.1627 585.232   8
   3  -5   9 1749.40 1605.47   8
  -4  -5  -9-3548.76 2959.41  13
   4  -5  -9 1326.76 1374.99   7
  -4   5   9-355.006 1260.06   2
   4   5  -9 243.947 530.793   7
  -4   5  -9 977.099 913.235   7
   4  -5   9 643.187 680.914  11
  -4  -5  -9-188.565 643.140   3
  -4   5   9-2126.39 2864.25   9
   4   5   9-6037.58 5043.49   9
   4   5   9-967.292 1302.38  15
  -4   5   9 1041.53 1469.62  15
  -4  -5   9-398.231 848.457   5
   4  -5  -9 101.198 423.451   3
  -4  -5   9-509.755 998.819   8
   4  -5   9 1926.62 1440.51   8
  -5  -5  -9-4713.62 3519.75  13
   5  -5  -9 1028.59 1175.77   7
  -5   5   9-4765.34 3999.11   2
   5   5  -9 1571.38 1469.39   7
  -5   5  -9 1654.89 1149.44   7
   5  -5   9 636.756 138.445  11
  -5   5  -9 1367.22 1544.65  10
  -5  -5  -9 361.224 484.539   3
  -5   5   9 7.77254 1932.31   9
   5   5   9-811.814 1654.76  15
  -5  -5   9-264.589 1467.26   5
  -5  -5   9-912.449 1373.40   8
   5  -5   9 2101.10 1687.67   8
   6   5   9 1931.80 1667.58  14
  -6  -5  -9-1987.51 2438.84  13
   6  -5  -9 2441.13 1761.26   7
   6   5  -9 2861.65 1630.02   7
  -6   5  -9 3969.80 1815.20   7
  -6   5  -9 4337.69 1842.13  10
  -6  -5  -9 3254.47 1530.74   3
  -6   5   9 1010.28 827.861   9
   6   5   9 1833.11 1251.02  15
  -6  -5   9-650.001 1951.29   5
  -6  -5   9 1502.14 1238.38   8
   6  -5   9 4377.06 2359.30   8
   7   5   9 1476.64 1395.99  14
  -7  -5  -9-3171.28 3172.21  13
   7  -5  -9 1656.94 1307.71   7
  -7   5   9-6996.60 5223.10   2
   7   5  -9 657.998 781.862   7
  -7   5  -9 686.552 1079.68  10
  -7  -5  -9 2148.74 1259.38   3
   7   5   9 2176.16 1731.70  15
  -7  -5   9-2800.45 2812.87   5
  -7  -5   9-1999.91 1864.25   8
  -7   5   9 3103.19 2488.41   9
   7  -5   9 4231.04 2242.92   8
   8   5   9 938.931 1320.45  14
  -8  -5  -9-751.560 1454.22  13
   8  -5  -9 80.6370 625.832   7
   8   5  -9-347.945 198.173   7
  -8  -5  -9 1340.21 1357.70   3
  -8   5  -9 1294.72 1303.54  10
  -8   5   9 240.631 1306.20   9
   8   5   9-29.8358 622.444  15
  -8  -5   9-813.858 870.016   8
   8  -5   9 2375.74 1774.00   8
  -9  -5  -9 1916.28 1201.00  13
   9  -5  -9 1128.85 1229.94   7
   9   5  -9-1041.51 1433.75   7
  -9  -5  -9 972.419 1069.19   3
  -9   5  -9-259.896 519.030  10
  -9   5   9-165.832 1623.20   9
   9   5   9-251.616 883.366  15
  -9  -5   9-367.884 1047.98   8
   9  -5   9 1305.73 1361.69   8
   9   5   9-238.117 302.108  14
 -10  -5  -9 3949.66 482.052  13
  10  -5  -9 62.3758 638.485   7
 -10  -5  -9 72.6135 504.665   3
 -10  -5   9-961.708 1077.66   8
  10  -5   9 2319.18 1950.30   8
  11  -5   9 3108.13 1813.90   8
   0   5 -10-387.674 833.087   7
   0  -5 -10 347.987 659.904   3
   0   5  10 230.427 1578.29  15
   0   5  10-2134.02 2804.56   2
   0  -5  10 1628.57 1394.97   8
   1   5 -10 398.162 745.523   7
  -1   5 -10 890.399 1000.73   7
  -1  -5 -10 1254.84 1175.46   3
   1  -5 -10 1001.97 742.323   3
   1   5  10-547.514 944.634  15
  -1   5  10 1463.97 1651.90  15
  -1  -5  10 958.928 1075.12   5
  -1  -5  10 244.460 329.635   8
   1  -5  10 736.050 912.526   8
  -1   5  10-1839.10 2470.32   2
  -2   5  10-3660.48 3402.29   2
   2   5 -10 2435.80 1584.83   7
  -2   5 -10 3794.95 1657.82   7
  -2  -5 -10 3631.60 1595.93   3
  -2   5  10-3525.99 4227.90   9
   2   5  10 4436.50 2612.15  15
   2  -5 -10 2780.32 1299.87   3
  -2   5  10 4004.89 2640.65  15
  -2  -5  10 2096.93 1628.32   5
  -2  -5  10 2616.19 1535.82   8
   2  -5  10 5294.97 2252.58   8
   3   5 -10 519.028 773.003   7
  -3   5 -10-454.606 451.557   7
  -3  -5 -10-122.915 620.657   3
  -3   5  10-507.877 2937.23   9
   3   5  10-406.355 1366.30  15
  -3   5  10 1404.73 2605.90  15
  -3  -5  10-1436.74 1292.81   5
   3  -5 -10 241.680 380.450   3
  -3  -5  10-450.979 1011.86   8
   3  -5  10-244.350 595.960   8
   4  -5  10 1196.07 1183.54   8
   4  -5 -10 2019.99 1513.97   7
   4   5 -10 1645.06 1372.91   7
  -4   5 -10 1836.57 1287.14   7
  -4  -5 -10 890.817 573.038   3
  -4   5  10 293.440 1944.79   9
   4   5  10 18.1108 1042.06  15
  -4  -5  10 422.964 391.048   5
   4  -5 -10 752.416 138.193   3
  -4  -5  10-1970.23 2012.14   8
   5  -5 -10 1732.65 1524.32   7
   5   5 -10 1277.44 1485.29   7
  -5   5 -10 1845.21 1282.20   7
  -5  -5 -10 1131.98 1073.42   3
  -5   5  10 771.111 751.970   9
   5   5  10-331.164 1376.39  15
  -5  -5  10 595.510 983.643   5
   5  -5 -10 58.7838 602.704   3
  -5  -5  10-1525.20 1897.82   8
   5  -5  10 733.100 982.478   8
   6   5  10 1464.59 1357.37  14
   6  -5 -10 3275.73 1643.83   7
   6   5 -10 2947.32 1603.23   7
  -6   5 -10 2541.18 1306.52   7
  -6  -5 -10 3084.30 1583.37   3
  -6   5  10 1096.45 544.948   9
   6   5  10 1343.56 562.026  15
  -6  -5  10-1101.54 2049.17   5
  -6  -5  10-200.412 1115.71   8
   6  -5  10 4036.75 2278.19   8
   7   5  10-363.416 359.915  14
   7  -5 -10 1215.85 1164.06   7
  -7   5 -10 292.608 711.949   7
  -7  -5 -10 1042.74 1075.95   3
  -7  -5  10 572.193 899.363   8
  -7  -5  10-1431.59 2377.12   5
   7  -5  10 2494.39 1789.10   8
   8  -5 -10 1702.93 1554.39   7
  -8  -5 -10 294.189 580.726   3
  -8  -5  10 459.329 316.659   8
   8  -5  10 1096.61 1459.08   8
  -9  -5 -10-8127.02 5294.53  13
  -9  -5  10 165.764 958.290   8
   0  -5 -11 2102.08 1289.32   3
   0   5  11 2307.47 1925.76  15
  -1   5 -11 3408.53 1789.18   7
  -1  -5 -11 2669.71 1368.26   3
   1  -5 -11 2784.10 1525.32   3
  -1   5  11-1478.38 2732.72   9
   1   5  11 3191.70 2294.82  15
  -1   5  11 3386.99 3132.83  15
  -2   5 -11 698.135 873.638   7
  -2  -5 -11 366.596 525.813   3
   2  -5 -11-237.820 670.245   3
   2   5  11 1588.31 1589.78  15
  -2   5  11 1901.38 1754.47  15
  -3  -5 -11-350.697 603.666   3
   3  -5 -11 2043.68 1154.28   3
   3   5  11-841.329 1714.23  15
  -3   5  11 1536.42 2198.65  15
  -3  -5  11-847.826 1703.63   5
  -4  -5 -11 379.236 506.264   3
   4  -5 -11-112.531 342.703   3
  -4  -5  11-1180.00 1661.12   5
   5  -5 -11 2383.53 1547.46   7
  -5  -5 -11 2896.08 1572.69   3
  -5  -5  11-204.218 1179.35   5
   5  -5 -11 1301.18 601.043   3
   6  -5 -11 1567.87 1409.25   7
   6  -5 -11 189.337 837.677   3
   0  -6   0 35886.3 3922.91  12
   0   6   0 34237.3 3953.97   6
   0   6   0 33729.4 3843.26  10
   0   6   0 40094.1 3839.30  14
  -1   6   0 75.7435 129.284  14
  -1  -6   0-205.176 163.260  12
   1  -6   0 290.155 462.019  12
  -1  -6   0-199.740 548.473  11
  -1  -6   0-33.2897 430.718   3
  -1   6   0-585.947 615.172   6
   1   6   0-427.990 751.999  10
  -1   6   0-221.355 856.731  10
   1   6   0 76.5306 351.835  14
  -2  -6   0 119594. 7129.54  12
   2  -6   0 119073. 7620.51  12
  -2  -6   0 117311. 6356.24  11
  -2  -6   0 117760. 6561.25   3
  -2   6   0 121515. 7313.09   6
   2   6   0 117080. 6557.76  10
  -2   6   0 116889. 7856.33  10
  -2   6   0 114217. 6510.14   1
  -2  -6   0 110223. 7005.43   5
   2   6   0 126687. 7264.93  14
  -3  -6   0 1753.27 1067.26   5
   3  -6   0 2156.02 1164.94  12
  -3  -6   0 1876.33 846.986  11
  -3   6   0 1709.84 953.848   6
  -3   6   0 1314.57 938.791   1
   3   6   0 1147.04 449.949  10
  -3   6   0 809.856 583.633  10
  -3  -6   0 1826.61 886.257   3
   3   6   0 1380.59 803.215  14
   4  -6   0 169243. 10053.3  12
  -4  -6   0 168551. 7985.89   3
  -4  -6   0 173475. 8002.24  11
   4   6   0 166445. 7010.36  10
  -4   6   0 167583. 10080.6  10
  -4   6   0 182189. 9239.62   1
  -4  -6   0 162060. 8787.48   5
   4   6   0 175590. 9297.36  14
   5  -6   0 1263.55 922.690  12
  -5  -6   0 859.491 685.438  11
   5   6   0 492.218 442.459  10
  -5  -6   0 233.164 472.611   3
  -5   6   0-231.014 1077.49  10
  -5   6   0 292.234 564.271   1
   5   6   0 505.164 648.515  14
  -5  -6   0 615.139 580.440   5
   6  -6   0 53844.3 6090.96  12
  -6  -6   0 56281.3 4954.64   3
  -6   6   0 58303.4 6239.65  10
  -6   6   0 53813.5 5717.58   1
  -6  -6   0 53639.4 5250.56   5
   6   6   0 56348.7 5646.04  14
   7  -6   0 1385.82 934.219  12
  -7  -6   0 488.111 647.191   3
  -7   6   0-180.022 1145.54  10
  -7   6   0 410.822 410.321   1
   7   6   0 991.460 853.997  14
  -7  -6   0 935.748 791.467   5
   8  -6   0 68123.4 7593.38  12
  -8  -6   0 69513.8 6104.47   3
  -8   6   0 60199.7 6516.26   1
  -8   6   0 64676.1 6895.44  10
  -8  -6   0 62732.7 5959.11   5
   8   6   0 65235.4 6612.00  14
   9  -6   0 1970.39 1938.09  12
  -9  -6   0 1106.38 800.441   3
  -9   6   0 956.205 1013.73   1
  -9   6   0-459.289 1317.58  10
   9   6   0 1381.55 1091.21  14
  -9  -6   0 1184.48 1070.74   5
  10  -6   0 82151.4 9090.74  12
 -10   6   0 79078.0 8025.09  10
 -10   6   0 87310.8 8458.14   1
 -10  -6   0 75315.3 6895.00   5
  10   6   0 89072.6 8419.64  14
  11  -6   0 2026.64 2099.65  12
 -11   6   0 56.7233 733.062  10
 -11   6   0-125.976 1123.16   1
 -11  -6   0 1125.44 829.063   5
  11   6   0 538.903 831.045  14
  12  -6   0 27413.4 5586.84  12
 -12   6   0 26983.3 4800.06  10
 -12   6   0 31171.3 5633.73   1
 -12  -6   0 25676.4 4185.93   5
  12   6   0 30196.6 5198.18  14
  13  -6   0 303.093 910.659  12
 -13   6   0-1550.37 1364.18  10
 -13   6   0 337.197 1437.10   1
  13   6   0 356.493 659.225  14
 -13  -6   0-626.385 987.203   5
 -14  -6   0 53110.6 8959.80  13
  14  -6   0 38799.1 7135.79  12
 -14   6   0 46367.8 6678.24  10
 -14   6   0 49981.5 7537.55   1
 -14  -6   0 43090.1 5730.77   5
  14   6   0 49470.3 7087.40  14
 -15   6   0 3024.06 2057.93   1
  15  -6   0 1351.79 1715.36  12
 -15   6   0 943.372 831.582  10
  15   6   0 1756.40 1695.72  14
 -15  -6   0 689.755 846.420   5
 -16  -6   0 22324.8 6161.02  13
 -16   6   0 36616.6 6247.78  10
   0  -6   1 1229.10 912.372   5
   0  -6  -1 424.756 350.879  12
   0  -6   1-363.267 737.979  12
   0  -6   1-8.84265 503.164  11
   0   6  -1-16.5308 415.288   6
   0   6   1 708.548 629.315   1
   0   6  -1 456.589 419.616  10
   0   6   1 777.665 899.756  10
   0  -6   1 289.832 263.191   3
   0   6  -1 265.279 219.969  14
  -1  -6  -1 71614.7 5737.88  12
  -1  -6   1 70439.9 5377.51  12
   1  -6  -1 68097.1 5710.29  12
   1  -6   1 71668.4 5670.04  12
  -1  -6   1 63543.1 4841.38  11
  -1  -6  -1 62897.4 4481.13  11
  -1   6  -1 69656.7 5713.11   6
  -1  -6   1 58422.6 4368.65   3
  -1  -6  -1 68491.3 5239.50   3
  -1   6   1 64150.9 5321.40   6
   1   6  -1 65509.4 5614.39   6
   1   6  -1 64758.1 5113.85  10
  -1   6  -1 67116.4 5648.62  10
   1   6   1 67316.8 5584.60  10
  -1   6   1 65594.3 5860.07  10
  -1   6   1 66502.7 4529.12   1
  -1  -6   1 63661.9 5336.06   5
   1   6  -1 69957.2 4939.42  14
  -1   6  -1 76327.9 4679.39  14
   1   6   1 73288.9 5813.84  14
   2   6   1 1350.33 853.715  14
  -2  -6   1 2529.69 1135.68   5
  -2  -6  -1 2314.72 1261.84  12
  -2  -6   1 2320.36 940.163  12
   2  -6  -1 2503.59 1244.75  12
   2  -6   1 1559.78 886.674  12
  -2   6   1 1884.87 793.152   1
  -2  -6   1 1800.06 855.326  11
  -2  -6  -1 1123.27 429.428  11
  -2   6  -1 2144.85 1248.67   6
  -2   6   1 1328.86 582.222   6
   2   6  -1 2141.02 929.788  10
  -2   6  -1 1827.50 934.719  10
   2   6   1 2138.25 1144.10  10
  -2   6   1 2305.18 1220.69  10
  -2  -6   1 1962.96 859.319   3
  -2  -6  -1 1688.24 801.357   3
   2   6  -1 2122.29 921.859  14
  -2   6  -1 1995.40 692.752  14
   3   6  -1 152720. 7361.31   7
   3  -6  -1 163393. 9392.86  12
   3  -6   1 165918. 9468.77  12
  -3  -6   1 164035. 8048.91  11
  -3  -6  -1 156831. 7177.86  11
  -3  -6   1 158324. 7256.10   3
  -3  -6  -1 169143. 8230.12   3
  -3   6   1 148850. 7881.61   1
  -3   6  -1 162908. 8695.08   6
  -3   6   1 165039. 8302.08   6
   3   6  -1 151923. 7178.29  10
  -3   6  -1 159143. 9292.22  10
   3   6   1 165058. 7813.27  10
  -3   6   1 155799. 9757.52  10
  -3  -6   1 148874. 8493.28   5
   3   6  -1 165248. 8310.50  14
   3   6   1 174964. 9407.95  14
  -3   6  -1 173787. 6587.64  14
  -4  -6  -1 3857.86 1539.16   5
  -4   6   1 1779.77 841.039   1
   4  -6  -1 1972.09 1095.81  12
   4  -6   1 1888.17 1061.43  12
   4   6  -1 3156.02 1098.46   7
  -4  -6   1 3139.27 1436.86  11
  -4  -6  -1 2438.33 1113.09  11
  -4   6   1 2521.98 1026.95   6
   4   6  -1 2092.57 675.879  10
  -4   6  -1 1756.77 894.765  10
  -4  -6   1 2420.56 971.391   3
   4   6   1 1285.71 121.291  10
  -4   6   1 2577.39 1468.47  10
  -4  -6  -1 2571.05 1246.40   3
   4   6  -1 2644.68 1194.54  14
  -4  -6   1 3215.18 1305.33   5
   4   6   1 2484.71 1246.60  14
   5   6  -1 89071.8 5538.03   7
   5  -6  -1 91980.8 7703.01  12
   5  -6   1 85865.8 7509.21  12
  -5  -6   1 87773.3 5805.35   3
  -5  -6  -1 90529.5 6221.67   3
  -5  -6  -1 88385.2 5546.07  11
  -5  -6   1 89306.6 6185.31  11
  -5   6   1 77892.4 6626.99   1
   5   6  -1 80030.5 4551.31  10
  -5   6  -1 84266.6 7207.91  10
   5   6   1 85996.4 4825.91  10
  -5   6   1 88943.0 7810.95  10
  -5  -6   1 84760.3 6664.21   5
  -5  -6  -1 84056.0 6266.78   5
  -5   6  -1 96336.5 7175.34   1
   5   6  -1 89662.3 6787.53  14
   5   6   1 91669.0 7140.62  14
  -6  -6  -1 4747.03 1528.17   5
  -6   6   1 4207.51 1553.37   1
   6  -6  -1 5917.17 2100.47  12
   6  -6   1 6596.75 2334.80  12
   6   6  -1 5076.84 1351.07   7
  -6  -6   1 4649.29 1454.43   3
  -6  -6  -1 4653.57 1433.26   3
  -6   6  -1 4521.09 1528.68  10
  -6   6   1 5591.42 2158.54  10
  -6   6  -1 4423.86 1915.49   1
  -6  -6   1 4666.50 1592.96   5
   6   6  -1 5535.33 1791.71  14
   6   6   1 5953.69 2054.30  14
   7   6  -1 54662.8 4297.82   7
   7  -6  -1 60099.1 6724.47  12
   7  -6   1 59533.8 6919.87  12
  -7  -6   1 57331.1 5316.19   3
  -7  -6  -1 62743.9 5625.54   3
  -7   6   1 61289.0 6453.62   1
  -7   6  -1 59784.2 6361.70  10
  -7   6   1 62818.9 6950.09  10
  -7   6  -1 61088.1 6391.04   1
  -7  -6   1 54311.9 5690.43   5
  -7  -6  -1 54950.3 5267.65   5
   7   6  -1 59834.3 6080.86  14
   7   6   1 58770.6 6175.51  14
  -8   6   1 3410.22 1627.32   1
   8  -6  -1 3900.19 1556.85  12
   8  -6   1 5210.31 2453.45  12
   8   6  -1 3180.22 1056.53   7
  -8  -6   1 3174.06 1420.11   3
  -8  -6  -1 5054.73 1737.54   3
   8   6  -1 3570.00 1704.01  14
  -8   6  -1 5150.86 1908.43  10
  -8   6   1 5411.68 2233.95  10
  -8   6  -1 4445.80 2144.67   1
  -8  -6   1 4061.41 1451.78   5
   8   6   1 4998.07 1841.03  14
  -8  -6  -1 5462.75 1726.89   5
   9  -6  -1 79010.1 8254.44  12
   9  -6   1 70803.1 8279.68  12
  -9  -6  -1 81068.0 7116.46   3
  -9   6   1 66424.7 7399.73   1
  -9   6  -1 75892.6 7591.88  10
  -9   6   1 78001.0 8116.34  10
  -9   6  -1 87947.4 8051.79   1
  -9  -6   1 70068.7 6913.46   5
  -9  -6  -1 68951.9 6203.19   5
   9   6  -1 73324.1 7317.48  14
   9   6   1 79395.9 7617.41  14
 -10   6   1 1246.14 1149.88   1
 -10  -6  -1 1408.02 1110.21   3
  10  -6  -1 5556.72 2701.22  12
  10  -6   1 3214.32 2274.76  12
 -10   6  -1 691.291 467.920  10
 -10   6   1 1701.16 1081.60  10
 -10   6  -1 1198.91 950.363   1
 -10  -6   1 1153.79 357.360   5
  10   6  -1 2323.53 1414.87  14
  10   6   1 1883.00 1200.59  14
 -10  -6  -1 1626.69 1068.79   5
  11  -6  -1 41338.2 6625.32  12
  11  -6   1 39835.9 6860.61  12
 -11   6   1 43167.2 6267.92   1
 -11   6  -1 41109.8 5852.13  10
 -11   6   1 40664.8 6008.05  10
 -11   6  -1 46996.1 6415.10   1
 -11  -6   1 36038.0 5306.06   5
 -11  -6  -1 37592.9 4825.38   5
  11   6  -1 43726.5 5992.94  14
  11   6   1 46426.6 6328.89  14
 -12   6   1 3179.36 2020.78   1
  12  -6  -1 3176.79 2187.08  12
  12  -6   1 3837.91 2584.69  12
 -12   6  -1 1670.15 1395.69  10
 -12   6   1 90.1239 1406.58  10
 -12   6  -1 2331.21 1796.33   1
 -12  -6   1 1391.05 1128.33   5
  12   6  -1 1554.83 1394.88  14
  12   6   1 2602.02 1473.66  14
 -12  -6  -1 2417.61 1296.70   5
 -13  -6  -1 46572.2 8334.50  13
  13  -6  -1 34850.6 6376.99  12
  13  -6   1 29432.6 6173.13  12
 -13   6   1 33188.5 6248.44   1
 -13   6  -1 33360.4 5651.94  10
 -13   6   1 31634.5 5583.22  10
 -13   6  -1 35552.7 6320.46   1
 -13  -6   1 30353.3 5053.45   5
 -13  -6  -1 30872.3 4534.35   5
  13   6  -1 34748.6 5893.73  14
  13   6   1 39102.0 6198.99  14
 -14   6  -1 223.253 895.751   1
  14  -6  -1 519.427 1277.68  12
  14  -6   1 1941.68 1831.54  12
 -14   6   1 162.527 668.135   1
 -14   6  -1-241.308 761.021  10
 -14   6   1-1936.46 1682.05  10
 -14  -6   1-178.971 633.904   5
  14   6  -1 458.465 1014.20  14
  14   6   1 438.579 918.297  14
 -14  -6  -1 575.840 801.078   5
 -15  -6  -1 33929.9 7651.24  13
 -15  -6   1 41101.2 8067.85  13
  15  -6  -1 43983.7 7645.11  12
  15  -6   1 41849.2 7800.22  12
 -15   6   1 54260.9 8336.04   1
 -15   6  -1 41429.6 6599.82  10
 -15   6   1 43574.6 6736.73  10
 -15  -6   1 45292.2 6592.07   5
 -15   6  -1 57056.3 8322.55   1
  15   6  -1 50677.7 7746.15  14
  15   6   1 49169.8 7394.93  14
 -16  -6   1 2170.36 1890.41  13
 -16   6  -1 2241.80 1331.45  10
 -16   6   1 345.756 861.842  10
 -16  -6   1 2157.47 1577.77   5
   0  -6  -2 95122.0 6852.27  12
   0  -6   2 92178.9 6158.21  12
   0   6   2 79771.6 4627.43   1
   0  -6   2 89840.4 6070.84  11
   0   6  -2 92452.8 6742.05   6
   0  -6   2 70839.0 4683.50   3
   0  -6  -2 90274.8 6439.46   3
   0   6  -2 86814.8 6354.59  10
   0   6   2 87104.5 7001.10  10
   0  -6   2 87444.5 6298.49   5
   0   6  -2 88685.8 4932.01  14
   1  -6   2 1675.19 1018.26   5
  -1  -6  -2 1155.50 919.221  12
  -1  -6   2 319.510 334.636  12
   1  -6  -2 723.886 467.574  12
   1  -6   2 1062.30 849.269  12
   1   6   2 1401.25 690.603   1
   1   6  -2 1934.63 1044.35   7
  -1  -6   2 1195.23 811.720  11
  -1  -6  -2 1022.99 681.502  11
  -1   6  -2 2212.92 1156.78   6
   1   6  -2 1588.72 1035.98   6
   1   6  -2 1958.62 1112.59  10
  -1   6  -2 1919.19 1217.99  10
  -1   6   2 1687.52 979.786   1
   1   6   2 1284.94 1093.40  10
  -1   6   2 2330.43 1368.74  10
  -1  -6   2 253.904 315.538   3
  -1  -6  -2 1313.60 824.326   3
   1   6  -2 845.549 706.401  14
  -1   6  -2 1095.27 585.720  14
  -1  -6   2 1998.04 1127.35   5
   2   6  -2 121823. 7302.80   7
  -2  -6  -2 140423. 8259.46  12
  -2  -6   2 128826. 7070.32  12
   2  -6  -2 133233. 8380.14  12
   2  -6   2 140597. 8228.96  12
  -2   6   2 112361. 6712.96   1
  -2  -6   2 137378. 7582.35  11
  -2  -6  -2 128609. 6242.04  11
  -2  -6   2 114353. 5803.19   3
  -2   6  -2 135442. 8276.91   6
  -2  -6  -2 134217. 7684.62   3
  -2   6   2 125474. 7369.92   6
   2   6  -2 132837. 8305.15   6
   2   6  -2 126778. 7146.08  10
  -2   6  -2 132059. 8284.11  10
   2   6   2 133592. 7942.71  10
  -2   6   2 130456. 9203.95  10
   2   6   2 99784.8 3684.43   1
  -2  -6   2 122943. 7819.67   5
   2   6  -2 127023. 6829.38  14
  -2   6  -2 132854. 4999.53  14
   2   6   2 139857. 8792.48  14
   3   6   2 1866.02 1142.30  14
  -3  -6   2 1982.07 917.678  12
   3  -6  -2 2972.68 1475.73  12
   3  -6   2 2159.47 1134.17  12
   3   6  -2 2377.99 1152.31   7
  -3  -6   2 2144.74 1199.38  11
  -3  -6  -2 1573.54 784.958  11
  -3   6   2 1903.70 1150.56   1
  -3   6   2 1689.43 793.392   6
   3   6  -2 2249.24 895.016   6
   3   6  -2 1784.31 874.356  10
  -3   6  -2 2847.18 1471.32  10
  -3  -6   2 1440.97 656.320   3
   3   6   2 3147.19 1305.73  10
  -3   6   2 1842.91 1226.16  10
  -3  -6  -2 2369.71 1089.19   3
   3   6  -2 2229.87 934.233  14
  -3  -6   2 2477.15 1153.51   5
  -3   6  -2 1665.20 532.342  14
   4   6  -2 84179.4 5975.62   7
   4  -6  -2 96190.2 7557.75  12
   4  -6   2 94694.0 7537.97  12
  -4   6   2 81921.5 6746.16   1
  -4  -6   2 82963.2 5196.92   3
  -4  -6   2 96088.9 6541.92  11
  -4  -6  -2 90246.3 5274.57  11
  -4  -6  -2 96158.3 6558.85   3
  -4   6   2 85673.5 5869.48   6
   4   6  -2 83316.7 5207.57  10
  -4   6  -2 93823.2 7435.09  10
   4   6   2 87917.0 5801.24  10
  -4   6   2 87640.1 7965.71  10
  -4  -6   2 85152.0 6867.62   5
   4   6  -2 85115.9 6248.30  14
   4   6   2 95175.3 7511.74  14
   5  -6  -2 2015.38 1359.88  12
   5  -6   2 1206.41 963.240  12
  -5  -6  -2 1025.79 700.719  11
   5   6  -2 1162.09 732.074   7
  -5  -6   2 1421.39 1036.27  11
  -5   6   2 1576.56 1090.78   1
  -5  -6   2 1053.14 616.765   3
   5   6  -2 1128.39 654.122  10
  -5   6  -2 1519.01 1088.85  10
  -5  -6  -2 1089.70 701.477   3
   5   6   2 1724.40 822.097  10
  -5   6   2 1023.41 812.045  10
  -5  -6   2 806.928 512.980   5
   5   6  -2 885.250 689.883  14
   5   6   2 1038.32 746.186  14
   6   6  -2 28739.9 3546.45   7
   6  -6  -2 34568.6 4889.16  12
   6  -6   2 33190.7 4966.56  12
  -6  -6   2 29233.6 3587.37   3
  -6   6   2 27184.7 4356.13   1
  -6  -6  -2 32828.5 4019.18   3
   6   6  -2 23910.8 2494.78  10
  -6   6  -2 30273.2 4561.30  10
  -6   6   2 30568.3 4983.79  10
  -6  -6   2 28021.0 4243.02   5
   6   6  -2 27764.9 3925.32  14
   6   6   2 29505.2 4393.55  14
  -7  -6   2 2997.67 1301.22   3
   7  -6  -2 2680.58 1390.37  12
   7  -6   2 5043.16 2442.45  12
   7   6  -2 1807.65 861.454   7
  -7   6   2 2290.89 1279.30   1
  -7  -6  -2 2551.74 1167.65   3
  -7   6  -2 2506.92 1304.71  10
  -7   6   2 1911.11 1043.96  10
  -7  -6   2 3711.86 1795.35   5
   7   6  -2 2804.61 1339.49  14
   7   6   2 2270.16 1322.11  14
   8   6  -2 71529.1 5694.92   7
   8  -6  -2 84422.2 8232.79  12
   8  -6   2 77759.2 8471.88  12
  -8  -6  -2 88087.6 7058.59   3
  -8   6   2 85840.9 8258.85   1
  -8   6  -2 82670.8 7785.47  10
  -8   6   2 81356.5 8362.76  10
  -8  -6   2 78890.5 7642.84   5
  -8  -6  -2 79555.8 6365.84   5
   8   6  -2 82569.2 7391.73  14
   8   6   2 88608.0 8022.69  14
  -9  -6  -2 2012.25 1100.64   5
   9  -6  -2 1487.52 1252.77  12
   9  -6   2 3397.06 2262.30  12
   9   6  -2 2422.56 1232.72   7
  -9  -6  -2 1570.74 1099.02   3
  -9   6   2 1223.81 964.915   1
  -9   6  -2 1839.34 941.418  10
  -9   6   2 1382.90 1002.01  10
  -9  -6   2 3874.93 1902.43   5
   9   6  -2 2008.53 1108.39  14
   9   6   2 2360.96 1522.64  14
  10  -6  -2 90933.4 9066.61  12
  10  -6   2 76227.8 9249.10  12
 -10  -6  -2 101831. 8622.93   3
 -10   6   2 88295.2 9156.89   1
 -10   6  -2 89973.3 8642.97  10
 -10   6   2 94214.6 9383.07  10
 -10  -6   2 90116.7 8748.07   5
 -10  -6  -2 87321.1 6883.33   5
  10   6  -2 96073.7 8554.83  14
  10   6   2 97303.8 9005.74  14
 -11  -6  -2 3980.78 1593.38   5
  11  -6  -2 3911.05 1905.44  12
  11  -6   2 2825.63 1803.63  12
 -11   6  -2 3046.03 1693.47  10
 -11   6   2 4259.06 1946.25  10
 -11   6   2 2746.72 1427.88   1
 -11  -6   2 5003.99 2234.32   5
  11   6  -2 3595.02 1669.31  14
  11   6   2 3520.87 1850.41  14
 -12  -6  -2 38517.3 7632.06  13
  12  -6  -2 25333.0 5123.91  12
  12  -6   2 19204.3 4994.03  12
 -12   6   2 23269.0 4971.51   1
 -12   6  -2 26872.8 4917.37  10
 -12   6   2 25782.6 5195.06  10
 -12  -6   2 21615.7 4472.14   5
 -12  -6  -2 23558.6 3698.44   5
  12   6  -2 23970.1 4775.65  14
  12   6   2 25498.5 4992.12  14
 -13  -6  -2 319.958 295.415   5
  13  -6  -2 2651.23 1563.38  12
  13  -6   2-1123.56 1240.90  12
 -13   6  -2 592.448 1265.88  10
 -13   6   2 638.581 334.505  10
 -13   6   2-426.823 466.156   1
 -13  -6   2 785.990 1091.15   5
  13   6  -2 1080.70 1087.65  14
  13   6   2-368.008 1162.60  14
 -14  -6  -2 21872.7 6105.71  13
 -14  -6   2 33604.4 7026.75  13
  14  -6  -2 23485.9 5172.20  12
  14  -6   2 16479.3 4837.78  12
 -14   6   2 26322.2 5673.09   1
 -14   6  -2 25476.8 5115.31  10
 -14  -6   2 21153.2 4696.74   5
 -14   6   2 19361.1 4481.52  10
  14   6  -2 23091.2 5060.21  14
  14   6   2 27463.1 5353.64  14
 -15  -6  -2 1618.81 1514.64  13
  15  -6  -2 1256.04 700.331  12
  15  -6   2-602.973 1501.91  12
 -15   6  -2 1863.43 1358.39  10
 -15   6   2-2010.38 2033.17  10
 -15  -6   2 1243.68 656.729   5
  15   6  -2 1934.23 1595.79  14
  15   6   2 2226.37 1653.26  14
 -16  -6   2 23890.0 6074.90  13
 -16   6  -2 30225.2 5655.53  10
 -16   6   2 29213.9 5765.25  10
 -16  -6   2 33516.2 6195.67   5
   0   6   3 1521.13 916.884   1
   0  -6  -3 1083.04 835.268  12
   0  -6   3 1409.72 1055.06  12
   0   6  -3 1040.74 888.268   7
   0  -6   3 859.896 347.860  11
   0   6  -3 1880.93 1140.26   6
   0   6  -3 889.020 931.098  10
   0   6   3 890.202 677.884  10
   0   6   3 1993.58 1219.26  15
   0  -6   3-16.4932 246.480   3
   0  -6  -3 952.496 679.825   3
   0   6  -3 1295.77 554.104  14
   0  -6   3 1386.91 1050.40   5
   1   6  -3 98825.7 7054.18   7
  -1   6  -3 101871. 7263.68   7
  -1  -6  -3 110028. 7454.13  12
   1  -6  -3 102558. 7360.66  12
  -1  -6   3 100202. 6118.91  12
   1  -6   3 105295. 6659.80  12
  -1   6   3 90011.7 6072.77   1
   1   6   3 94043.2 4957.93   1
  -1  -6   3 105156. 6902.67  11
   1  -6   3 103547. 6831.06  11
  -1  -6   3 82424.8 4499.09   3
  -1   6  -3 110581. 7554.72   6
   1   6  -3 106302. 7416.23   6
  -1  -6  -3 110313. 7269.38   3
   1   6   3 112553. 8435.58  15
   1   6  -3 104526. 6865.10  10
  -1   6  -3 112610. 7484.79  10
  -1   6   3 90511.5 7964.91  10
   1   6   3 98706.6 7753.89  10
  -1  -6   3 100597. 7105.64   5
   1  -6   3 106046. 6936.44   5
  -1   6   3 103225. 7349.97  15
  -1   6  -3 99801.8 4219.67  14
   1   6  -3 94439.4 5190.70  14
   2  -6   3 4579.36 1532.14   5
  -2   6   3 2814.39 1446.42   1
  -2  -6   3 2028.57 815.048  12
   2  -6  -3 1804.45 622.060  12
   2  -6   3 4021.45 1371.34  12
   2   6  -3 4033.45 1457.28   7
  -2  -6   3 2876.25 1435.37  11
   2   6   3 2886.71 713.838   1
  -2  -6  -3 3027.45 792.841  11
   2   6  -3 2563.30 1099.64   6
  -2   6   3 2159.22 772.204   6
   2   6  -3 3188.65 1249.19  10
  -2   6  -3 3983.22 1408.70  10
  -2  -6   3 2857.29 798.646   3
  -2   6   3 2664.73 1373.22  10
   2   6   3 3547.75 1581.75  10
  -2  -6  -3 4149.70 1464.94   3
   2   6   3 4681.07 1835.89  15
   2   6  -3 2952.50 1000.94  14
  -2  -6   3 2625.93 1150.83   5
   3   6  -3 85753.6 6504.69   7
   3  -6  -3 90627.1 7137.30  12
   3  -6   3 93210.6 6954.86  12
  -3   6   3 83159.2 6783.46   1
  -3  -6   3 79102.9 4532.09   3
  -3  -6   3 97619.8 6777.28  11
  -3  -6  -3 92457.0 5014.32  11
  -3  -6  -3 98193.7 6796.41   3
  -3   6   3 88479.8 5899.78   6
   3   6  -3 98994.8 7392.19   6
   3   6  -3 77290.1 5576.25  10
  -3   6  -3 86958.5 6999.78  10
  -3   6   3 83637.7 8039.16  10
   3   6   3 87220.6 6724.48  10
  -3  -6   3 85888.6 6970.16   5
   3   6  -3 82839.1 5648.77  14
   3   6   3 98307.1 7864.14  14
   4   6   3 2228.25 981.724  14
  -4   6   3 3718.25 1767.10   1
   4  -6  -3 5224.38 1949.21  12
   4  -6   3 3078.80 1283.58  12
   4   6  -3 4962.00 1570.79   7
  -4  -6  -3 3448.53 876.841  11
  -4  -6   3 5286.80 1610.84  11
  -4   6   3 4153.24 1164.46   6
   4   6  -3 4478.69 1421.72   6
  -4  -6   3 3111.47 983.416   3
   4   6  -3 4951.23 1539.86  10
  -4   6  -3 3407.01 1506.80  10
  -4   6   3 4578.09 1711.28  10
   4   6   3 3052.05 1184.40  10
  -4  -6  -3 4869.96 1546.07   3
  -4  -6   3 4673.83 1701.83   5
   4   6  -3 3799.21 1276.93  14
   5   6  -3 46758.2 4887.98   7
   5  -6  -3 53818.9 5842.50  12
   5  -6   3 54340.4 6045.62  12
  -5   6   3 43394.2 5596.22   1
  -5  -6   3 46945.1 4081.29   3
  -5  -6   3 51403.0 5239.90  11
  -5  -6  -3 50265.4 4971.12   3
  -5   6   3 47733.2 4212.16   6
   5   6  -3 38829.1 3683.86  10
  -5   6  -3 49941.4 5672.34  10
   5   6   3 47384.5 4525.89  10
  -5   6   3 46200.9 6279.59  10
  -5  -6   3 51665.9 5907.12   5
   5   6  -3 44627.2 4710.67  14
   5   6   3 50458.8 5874.69  14
  -6   6   3 782.122 1032.92   1
   6  -6  -3 1424.22 1121.55  12
   6  -6   3 2475.98 1753.36  12
   6   6  -3 448.995 587.423   7
   6   6  -3 1182.62 742.813  10
  -6   6  -3 1497.31 986.177  10
  -6  -6  -3 56.8389 469.081   3
  -6   6   3 828.573 881.441  10
  -6  -6   3 2622.22 1792.19   5
   6   6  -3 1115.62 947.475  14
   6   6   3 181.300 577.859  14
   7   6  -3 49089.0 5261.91   7
   7  -6  -3 55771.9 6428.92  12
   7  -6   3 53079.0 6631.46  12
  -7   6   3 51130.2 6587.60   1
  -7  -6  -3 57429.7 5745.38   3
  -7   6  -3 56099.7 6311.95  10
  -7   6   3 48980.6 6654.04  10
  -7  -6   3 53168.6 6505.95   5
   7   6  -3 52044.3 5581.54  14
   7   6   3 61077.2 6655.74  14
  -8   6   3 1728.77 1338.39   1
   8  -6  -3 1771.82 1365.48  12
   8  -6   3 2735.01 1967.24  12
   8   6  -3 2479.27 1602.73   7
  -8  -6  -3 599.656 872.308   3
  -8   6  -3 1896.12 1425.29  10
  -8   6   3 465.356 831.949  10
  -8  -6   3 3037.37 2036.66   5
   8   6  -3 1403.82 1208.75  14
   8   6   3 1295.87 1210.73  14
   9   6  -3 75569.6 6848.58   7
   9  -6  -3 98398.9 8957.65  12
   9  -6   3 75779.3 9086.29  12
  -9   6   3 88014.2 9218.94   1
  -9  -6  -3 103983. 8085.23   3
  -9   6  -3 95580.4 8646.04  10
  -9   6   3 92337.2 9380.48  10
  -9  -6   3 89528.0 9139.33   5
   9   6  -3 94614.9 8196.01  14
   9   6   3 107263. 9346.52  14
  10  -6  -3 1479.47 1185.12  12
  10  -6   3 1559.65 1432.19  12
  10   6  -3 3411.99 1765.76   7
 -10   6   3 2005.43 1529.93   1
 -10  -6  -3 1715.97 1301.87   3
 -10   6  -3 622.848 609.051  10
 -10   6   3 647.856 549.208  10
 -10  -6   3 2319.15 2007.69   5
  10   6  -3 1767.59 1181.25  14
  10   6   3 2432.50 1675.67  14
  11  -6  -3 46462.2 6642.81  12
  11  -6   3 32576.8 6448.43  12
 -11  -6  -3 50646.3 6559.52   3
 -11   6   3 48302.6 7182.89   1
 -11   6  -3 41894.9 5979.61  10
 -11   6   3 45660.3 7039.63  10
 -11  -6   3 42838.2 6786.32   5
  11   6  -3 47771.4 6484.99  14
  11   6   3 51210.7 6805.52  14
  12  -6  -3-448.751 1078.73  12
  12  -6   3-579.714 1451.50  12
 -12   6   3 990.899 1376.13   1
 -12   6  -3 14.3924 276.972  10
 -12   6   3-168.445 192.556  10
 -12  -6   3-448.021 968.044   5
  12   6  -3 238.757 172.308  14
  12   6   3 498.924 990.585  14
 -13  -6  -3 19599.0 6020.61  13
  13  -6  -3 17641.2 4166.82  12
  13  -6   3 11240.7 3792.61  12
 -13   6  -3 17976.2 4083.06  10
 -13   6   3 19491.2 4658.31  10
 -13   6   3 16371.9 4566.77   1
  13   6   3 23649.9 4843.63  14
  13   6  -3 18174.8 4442.88  14
 -13  -6   3 17550.9 4439.54   5
 -14  -6  -3 3422.19 2649.72  13
  14  -6  -3 236.790 314.505  12
  14  -6   3-693.447 1782.39  12
 -14   6  -3 988.133 751.549  10
 -14   6   3 1560.23 1291.51  10
 -14   6   3-438.761 939.623   1
 -14  -6   3-71.1739 342.257   5
  14   6  -3 1472.66 1400.47  14
  14   6   3 1602.87 1356.43  14
  15  -6  -3 27872.0 5651.63  12
 -15   6  -3 28762.2 5440.43  10
 -15   6   3 32677.8 6164.68  10
 -15  -6   3 28402.8 6064.29   5
  15   6  -3 33737.1 6374.56  14
 -16  -6   3-1518.80 1756.75   5
   0   6   4 41828.0 4351.46   1
   0   6  -4 48621.4 5217.90   7
   0  -6  -4 48052.2 5059.15  12
   0  -6   4 46667.0 4138.90  12
   0  -6   4 48263.3 4807.48  11
   0  -6   4 29865.9 2404.19   3
   0   6  -4 51050.7 5276.18   6
   0  -6  -4 50996.1 5236.79   3
   0   6  -4 43299.5 4788.13  10
   0  -6   4 47921.0 4830.07   5
   0   6   4 50762.5 5830.06  15
   1   6   4 8893.09 1732.03   1
  -1   6   4 9230.01 2107.19   1
   1   6  -4 11114.7 2529.08   7
  -1   6  -4 12404.3 2729.25   7
   1  -6  -4 11080.0 2459.90  12
  -1  -6   4 10737.5 1834.54  12
   1  -6   4 11604.4 2149.30  12
  -1  -6   4 11055.4 2329.68  11
   1  -6   4 11482.7 2271.77  11
   1   6  -4 12113.1 2542.04   6
  -1  -6  -4 11440.2 2354.53   3
   1  -6   4 7067.75 1260.13   3
   1   6  -4 11726.1 2493.95  10
  -1   6  -4 12147.9 2618.23  10
  -1  -6   4 12073.6 2559.80   5
   1  -6   4 11682.4 2394.34   5
  -1   6   4 13133.8 3563.84   9
   1   6   4 12111.4 2970.43  15
  -1   6   4 11225.9 2670.00  15
   1   6  -4 11186.8 1836.19  14
  -2   6   4 80429.4 6837.46   1
   2   6  -4 90353.0 7149.46   7
  -2   6  -4 91757.3 7250.31   7
  -2  -6   4 82386.7 5257.72  12
   2  -6  -4 87141.9 7050.98  12
   2  -6   4 95235.2 6545.73  12
  -2  -6   4 98782.5 7024.61  11
  -2  -6  -4 89980.1 4696.40  11
   2  -6   4 93795.5 6640.07  11
  -2  -6  -4 99127.2 7090.34   3
   2   6  -4 95282.3 7198.07   6
   2   6  -4 83808.2 6265.49  10
  -2   6  -4 96434.8 7314.18  10
  -2  -6   4 87993.8 7117.19   5
   2  -6   4 93985.3 6468.89   5
  -2   6   4 89289.8 8369.62   9
   2   6   4 94064.2 8463.29  15
  -2   6   4 87401.5 7104.38  15
   2   6  -4 90056.8 5540.12  14
   3  -6   4 6405.53 1690.61   5
   3  -6  -4 4433.75 1347.33  12
   3  -6   4 5432.13 1734.06  12
   3   6  -4 4870.98 1756.10   7
  -3  -6   4 5207.75 1890.18  11
  -3  -6  -4 4635.17 1125.14  11
   3   6  -4 4965.58 1624.16   6
  -3   6   4 3733.72 1059.32   6
   3   6  -4 5140.44 1587.68  10
  -3   6  -4 5536.07 1919.60  10
  -3   6   4 6535.10 2902.14   9
  -3  -6  -4 6328.62 1956.24   3
  -3   6   4 4007.13 1577.42   1
   3   6   4 6603.76 2315.94  15
  -3   6   4 4901.84 1628.30  15
  -3  -6   4 5666.81 2053.76   5
   3   6  -4 5506.69 1561.98  14
  -4   6   4 74674.7 7386.59   1
   4   6  -4 84806.7 7070.86   7
   4  -6  -4 99667.6 7664.55  12
   4  -6   4 89481.9 7148.58  12
  -4  -6  -4 89542.7 4678.62  11
  -4  -6   4 97275.6 7165.59  11
  -4  -6  -4 95259.7 6986.61   3
  -4   6   4 86083.8 5554.99   6
   4   6  -4 104957. 7697.00   6
   4   6  -4 76538.7 5647.32  10
  -4   6  -4 92035.3 7517.91  10
  -4  -6   4 92258.7 8014.67   5
   4   6   4 97997.4 9024.02  15
   4   6  -4 89965.0 6396.00  14
   4   6   4 99094.4 8431.17  14
   5   6   4 7526.26 2308.16  14
   5  -6   4 9188.56 2767.55  12
   5  -6  -4 7925.48 2442.32  12
   5   6  -4 7466.49 2194.92   7
  -5  -6  -4 7182.98 2100.45   3
  -5   6   4 5499.10 1415.78   6
   5   6  -4 7285.48 1906.74   6
   5   6  -4 5623.24 1653.55  10
  -5   6  -4 6337.95 1928.18  10
  -5   6   4 5743.83 2529.50  10
   5   6   4 6080.39 2355.40  15
  -5   6   4 5030.44 2213.13   1
  -5  -6   4 9572.53 2832.13   5
   5   6  -4 7291.10 1995.07  14
   6   6  -4 49363.8 5668.43   7
  -6   6   4 45257.6 6175.16   1
   6  -6  -4 58224.8 6169.19  12
   6  -6   4 55009.1 6365.88  12
  -6  -6  -4 55097.4 5515.01   3
   6   6  -4 55749.3 5729.49   6
  -6   6  -4 57943.9 6320.46  10
  -6   6   4 47158.2 6685.38  10
  -6  -6   4 54621.9 6736.73   5
   6   6   4 60407.7 7463.85  15
   6   6  -4 53477.4 5497.03  14
   6   6   4 60049.7 6817.77  14
   7  -6  -4 1331.46 1119.07  12
   7  -6   4 2764.69 1964.85  12
   7   6  -4 2184.87 1533.24   7
   7   6  -4-604.519 1115.06   6
  -7   6  -4 753.057 815.169  10
  -7  -6  -4 714.817 854.400   3
  -7   6   4-220.342 936.635  10
   7   6   4 1067.58 939.298  15
  -7  -6   4 3570.48 2227.48   5
   7   6  -4 1764.59 1170.61  14
  -7   6   4 80.7085 394.154   1
   8   6  -4 54664.0 6291.04   7
  -8   6   4 60802.4 7543.23   1
   8  -6  -4 67593.5 7120.21  12
   8  -6   4 61628.0 7887.21  12
  -8  -6  -4 74843.9 6779.89   3
  -8   6  -4 68817.6 7174.35  10
  -8   6   4 64342.7 8189.16  10
  -8  -6   4 60814.1 7734.38   5
   8   6  -4 65446.2 6734.87  14
  -8  -6   4 56915.0 5323.17   8
   8   6   4 78908.9 8030.30  14
  -9   6   4 8.95400 425.292   1
   9  -6  -4 1588.63 1197.26  12
   9  -6   4 644.254 981.429  12
   9   6  -4 2109.26 1714.41   7
  -9  -6  -4 713.311 722.946   3
  -9   6  -4 455.013 885.473  10
  -9   6   4 650.255 883.031  10
  -9  -6   4 2230.55 2148.80   5
   9   6  -4 1893.20 1302.20  14
   9   6   4 1166.69 1030.67  14
  10   6  -4 39955.2 5673.53   7
  10  -6  -4 56410.4 6888.31  12
  10  -6   4 33406.6 6341.16  12
 -10   6   4 53653.6 7741.20   1
 -10  -6  -4 60743.2 6740.12   3
 -10   6  -4 58371.8 6979.39  10
 -10   6   4 51550.6 7504.19  10
 -10  -6   4 50327.5 7649.29   5
  10   6  -4 57703.0 6881.02  14
  10   6   4 61173.6 7412.49  14
 -11   6   4 388.966 1684.58   1
  11  -6  -4 1115.98 1165.71  12
  11  -6   4-388.473 1681.37  12
 -11  -6  -4-99.3087 686.719   3
 -11   6  -4 633.318 685.846  10
 -11   6   4 2554.50 1496.78  10
 -11  -6   4 1890.00 1790.35   5
  11   6  -4 1805.81 1704.01  14
  11   6   4 1843.12 1413.92  14
 -12  -6  -4 28086.6 6840.39  13
  12  -6  -4 32935.1 5675.33  12
 -12   6   4 31312.7 6055.66   1
  12  -6   4 17919.7 4795.18  12
 -12   6  -4 27825.9 5048.89  10
 -12   6   4 32059.7 6186.09  10
 -12  -6   4 27851.8 6019.08   5
  12   6  -4 34519.9 5757.52  14
  12   6   4 36957.6 6128.35  14
 -13  -6  -4 3861.87 3163.44  13
  13  -6  -4 1860.58 1566.29  12
  13  -6   4-682.263 1942.33  12
 -13   6   4 2396.99 1864.00   1
 -13   6  -4 887.769 351.825  10
 -13   6   4 2140.57 1641.59  10
 -13  -6   4 1191.93 821.979   5
  13   6  -4 3476.91 2268.26  14
  13   6   4 1470.84 1417.60  14
 -14  -6  -4 15572.6 5083.95  13
  14  -6  -4 28533.7 5453.50  12
 -14   6   4 28870.8 6343.93   1
  14  -6   4 9761.01 3829.55  12
 -14   6  -4 32135.6 5647.10  10
 -14   6   4 26599.3 5704.58  10
 -14  -6   4 25504.8 5981.17   5
  14   6  -4 30833.8 5912.54  14
  14   6   4 37726.4 6645.17  14
  15  -6  -4-169.600 587.155  12
 -15   6  -4 276.763 270.091  10
 -15  -6   4-20.1979 1437.70   5
   0  -6   5 836.694 759.688  12
   0   6  -5 451.406 602.338   7
   0  -6   5-332.207 422.608  11
   0   6  -5-41.2215 768.169  10
   0   6   5-71.5613 310.186  15
   0  -6  -5-508.479 879.640   3
   0  -6   5-147.825 495.657   5
   1   6  -5 57063.9 6003.55   7
  -1   6  -5 57427.7 6012.25   7
   1  -6  -5 56060.1 5673.67  12
  -1  -6   5 49908.6 3922.21  12
   1  -6   5 55342.0 4605.58  12
  -1  -6   5 62743.6 5815.16  11
   1  -6   5 60631.0 5541.13  11
  -1  -6  -5 54391.5 3539.00  11
  -1  -6  -5 62565.6 5844.13   3
   1   6  -5 50967.5 5459.42  10
  -1   6  -5 62986.5 6047.24  10
   1  -6  -5 62991.8 6120.25   3
  -1  -6   5 57714.9 5837.32   5
   1  -6   5 60727.2 5522.98   5
   1   6   5 61657.1 7105.43   9
  -1   6   5 59091.0 7506.97   9
   1   6   5 63996.9 7277.36  15
  -1   6   5 55179.1 6459.28  15
   2  -6  -5 2458.56 1082.02  12
   2  -6   5 2610.26 1000.30  12
   2   6  -5 3317.66 1424.63   7
  -2   6  -5 3430.00 1444.68   7
  -2  -6   5 4417.19 1833.16  11
   2  -6   5 3153.97 1033.71  11
   2   6  -5 3355.21 1544.99   6
   2   6  -5 3079.98 1347.92  10
  -2   6  -5 5340.84 1798.97  10
   2   6   5 5201.45 2434.86   9
  -2   6   5 4468.90 2870.04   9
  -2  -6  -5 4005.68 1549.38   3
   2   6   5 3353.13 1484.87  15
  -2   6   5 3033.61 1448.46  15
  -2  -6   5 4177.42 1769.33   5
   2  -6   5 3940.56 1456.94   5
   3   6  -5 73355.7 6980.34   7
  -3   6  -5 77894.1 7022.00   7
   3  -6  -5 84102.8 7012.58  12
   3  -6   5 78384.7 6276.02  12
  -3  -6   5 83666.9 6856.06  11
   3  -6   5 78751.0 6419.23  11
  -3  -6  -5 82496.3 6776.54   3
   3   6  -5 89254.5 7033.23   6
   3   6  -5 72937.8 6015.80  10
  -3   6   5 71511.7 5147.06   6
  -3   6  -5 81494.1 7091.54  10
  -3  -6   5 80933.9 7656.27   5
   3  -6   5 84754.0 6130.07   5
   3   6   5 82464.8 7404.82   9
  -3   6   5 87606.8 9300.93   9
   3   6   5 84843.9 8855.81  15
  -3   6   5 78545.9 7345.70  15
   3   6  -5 77149.6 5565.11  14
   4   6   5 524.846 620.968  14
   4  -6  -5 216.432 519.745  12
   4  -6   5 3049.56 1538.27  12
   4   6  -5 2275.58 1400.91   7
  -4  -6   5 1638.17 1442.48  11
   4   6  -5 1534.56 1047.58   6
  -4   6   5 646.934 466.308   6
   4   6  -5 1615.92 1090.51  10
  -4   6  -5 1745.21 1517.29  10
  -4  -6  -5 2167.21 1225.56   3
  -4   6   5 2747.00 2286.28   9
   4   6   5 1327.05 1272.55  15
  -4  -6   5 4559.15 2294.94   5
   4   6  -5 1260.51 954.184  14
   5   6  -5 82579.9 7782.22   7
   5  -6  -5 91923.4 7636.96  12
   5  -6   5 84547.0 7454.06  12
  -5  -6  -5 89518.4 7046.69   3
   5   6  -5 96516.1 7505.42   6
  -5   6  -5 80585.9 7428.08  10
  -5  -6   5 86790.3 8647.80   5
  -5   6   5 97551.3 10216.6   9
   5   6   5 88848.0 9331.56  15
   5   6  -5 86398.6 6768.62  14
   5   6   5 93871.0 8824.56  14
   6   6   5-405.255 937.261  14
  -6   6   5 143.616 343.004   1
   6  -6  -5 1632.37 1200.57  12
   6  -6   5 3024.24 2146.00  12
   6   6  -5 2156.16 1591.21   7
   6   6  -5 655.818 168.281   6
  -6   6  -5 1627.91 1331.83  10
  -6  -6  -5 923.127 857.665   3
  -6   6   5 1504.39 2030.83   9
   6   6   5 1113.49 1315.38  15
  -6  -6   5 4072.40 2439.28   5
   6   6  -5 1603.33 1184.48  14
  -7   6   5 50938.2 7121.34   1
   7   6  -5 44751.9 6078.91   7
   7  -6  -5 58975.5 6333.80  12
   7  -6   5 55119.0 7012.19  12
  -7  -6  -5 58774.3 6136.21   3
   7   6  -5 59175.9 6011.63   6
  -7   6  -5 58982.1 6571.24  10
  -7  -6   5 52899.7 7473.00   5
  -7   6   5 63851.8 8410.23   9
   7   6   5 68243.1 8485.37  15
   7   6  -5 53115.6 5861.85  14
  -7  -6   5 55077.1 5587.66   8
   7   6   5 62539.2 7354.35  14
   8  -6  -5 3425.76 1671.99  12
   8  -6   5 2406.75 1669.09  12
   8   6  -5 3966.55 2142.72   7
   8   6  -5 2501.72 1040.19   6
  -8  -6  -5 3996.02 1703.70   3
  -8   6  -5 3890.15 2076.03  10
  -8   6   5 2535.63 1611.52  10
  -8   6   5 4512.87 2550.70   9
   8   6   5 3876.69 2117.25  15
  -8   6   5 2099.36 1068.99   1
  -8  -6   5 6395.79 3031.36   5
   8   6  -5 3556.62 1751.88  14
  -8  -6   5 3025.39 1541.66   8
   8   6   5 4200.05 1754.29  14
  -9  -6  -5 47257.1 8340.46  13
   9   6  -5 28264.6 5107.51   7
  -9   6   5 32541.7 6039.32   1
   9  -6  -5 38633.0 5386.37  12
   9  -6   5 29656.3 5707.14  12
  -9  -6  -5 43316.1 5614.10   3
   9   6  -5 40604.7 5080.65   6
  -9   6  -5 35837.2 5296.33  10
  -9   6   5 32650.0 6235.92  10
  -9  -6   5 31904.6 6282.10   5
   9   6   5 44230.5 7007.03  15
   9   6  -5 37499.1 5387.15  14
  -9  -6   5 32937.0 4204.04   8
   9   6   5 42988.0 6325.18  14
  10  -6  -5 1287.37 1178.64  12
  10   6  -5 1648.40 1586.96   7
  10  -6   5 218.463 1095.58  12
 -10  -6  -5 1921.54 1488.11   3
  10   6  -5-120.451 954.973   6
 -10   6  -5 1232.54 1097.31  10
 -10   6   5 1643.09 527.821  10
 -10  -6   5 3370.78 2373.16   5
  10   6  -5 1799.23 1094.89  14
 -10   6   5 691.152 923.258   1
  10   6   5 175.906 516.498  14
 -11  -6  -5 28574.0 4185.40   4
 -11  -6  -5 28878.6 6899.80  13
  11   6  -5 17594.7 4243.96   7
 -11   6   5 33468.6 6433.85   1
  11  -6  -5 33694.4 5387.63  12
 -11  -6  -5 38761.3 5910.80   3
  11  -6   5 11964.6 3904.55  12
  11   6  -5 35312.0 4956.56   6
 -11   6  -5 30719.3 5253.87  10
 -11   6   5 29945.4 6065.25  10
 -11  -6   5 24276.8 5836.18   5
  11   6  -5 35244.2 5620.30  14
  11   6   5 38291.5 6250.75  14
 -12  -6  -5 649.971 980.324   4
 -12   6   5 278.429 599.940   1
 -12  -6  -5 2570.73 2462.87  13
 -12  -6  -5 585.371 1101.40   3
  12  -6  -5 340.684 588.874  12
  12  -6   5-2327.57 3152.71  12
 -12   6  -5 1841.30 1658.83  10
 -12   6   5 1182.26 1165.37  10
 -12  -6   5 460.133 1201.22   5
  12   6  -5 499.329 715.844  14
  12   6   5-119.688 678.313  14
 -13  -6  -5 31759.7 4803.98   4
 -13  -6  -5 16226.1 5170.88  13
  13  -6  -5 35481.3 5785.26  12
 -13   6   5 32621.5 6656.12   1
  13  -6   5 5115.30 1994.34  12
 -13   6  -5 37318.5 6134.88  10
 -13   6   5 30261.1 6216.17  10
 -13  -6   5 25774.5 6321.19   5
  13   6  -5 35413.0 6066.65  14
  13   6   5 46294.8 7065.93  14
 -14  -6  -5 1159.14 1000.61   4
  14  -6  -5 805.716 511.177  12
  14   6  -5 1930.81 1570.10  14
   0   6  -6 47852.9 5791.59   7
   0  -6   6 53807.8 5691.97  11
   0  -6  -6 48618.1 5403.44   3
   0   6  -6 51926.3 5681.12  10
   0  -6   6 49052.8 5453.07   5
   0   6   6 44614.0 7160.61   9
   0   6   6 47951.5 6833.07  15
   1   6  -6 3290.47 1499.43   7
  -1   6  -6 2890.72 1513.58   7
  -1  -6   6 4412.41 1913.10  11
   1  -6   6 3424.45 1339.97  11
   1   6  -6 2277.64 1360.46  10
  -1   6  -6 3496.89 1650.93  10
   1   6   6 3824.34 2587.07   9
  -1   6   6 3196.14 2397.43   9
   1   6   6 3829.29 1887.10  15
  -1   6   6 2567.49 1786.33  15
  -1  -6  -6 2405.06 1077.45   3
   1  -6  -6 2408.75 1066.84   3
  -1  -6   6 3632.69 1752.19   5
   1  -6   6 3034.00 1239.67   5
   2   6  -6 55296.7 6389.47   7
  -2   6  -6 62091.6 6533.24   7
   2  -6  -6 60269.3 6003.92  12
   2  -6   6 54981.4 4831.72  12
  -2  -6   6 61912.4 6199.34  11
   2  -6   6 63976.2 5989.07  11
  -2  -6  -6 64283.8 6155.90   3
   2   6  -6 54750.2 5676.26  10
  -2   6  -6 60682.1 6424.45  10
  -2  -6   6 60638.7 6749.51   5
   2  -6   6 63540.1 5714.43   5
   2   6   6 64494.9 7778.02   9
  -2   6   6 54142.6 7999.66   9
   2   6   6 64200.8 8103.64  15
  -2   6   6 54423.3 7255.12  15
   3  -6  -6 914.081 921.050  12
   3  -6   6 492.946 617.206  12
   3   6  -6-77.5880 296.370   7
  -3  -6   6 899.521 1262.34  11
  -3   6  -6 568.826 565.388   7
   3  -6   6-1164.68 1123.71  11
   3   6  -6 1719.17 1342.65  10
  -3   6  -6 1612.60 1400.54  10
  -3  -6  -6 500.025 731.011   3
   3   6   6 2861.49 2209.81   9
  -3   6   6 2668.58 2710.40   9
   3   6   6 351.309 976.386  15
  -3   6   6 1891.56 1810.65  15
  -3  -6   6 1757.22 1593.46   5
   3  -6   6 882.223 706.904   5
   4   6  -6 76466.9 7908.45   7
  -4   6  -6 79499.8 7468.91   7
   4  -6  -6 84492.0 7293.83  12
   4  -6   6 77189.6 6595.19  12
  -4  -6  -6 85035.5 7071.86   3
   4  -6   6 86763.1 6989.85  11
   4   6  -6 86823.9 7211.03   6
  -4   6  -6 86985.6 7811.21  10
  -4  -6   6 85165.3 8829.44   5
   4  -6   6 88879.5 6299.53   5
   4   6   6 87434.3 8145.89   9
  -4   6   6 85166.7 10294.1   9
   4   6   6 90269.3 9841.70  15
   5   6   6 1491.74 930.610  14
   5  -6  -6 1578.03 565.881  12
   5  -6   6 4227.63 1925.00  12
   5   6  -6 4813.41 2201.23   7
   5  -6   6 1684.97 369.898  11
   5   6  -6 3508.79 1465.64   6
  -5   6  -6 3991.62 2036.74  10
  -5  -6  -6 2822.70 1320.86   3
   5   6   6 3688.06 2127.82   9
  -5   6   6 2645.11 2365.03   9
   5   6   6 2662.90 1964.49  15
  -5  -6   6 4626.19 2536.53   5
   5   6  -6 3032.28 1441.20  14
  -5  -6   6 4465.98 2176.76   8
   6   6  -6 58996.4 7322.23   7
   6  -6  -6 69227.5 6739.83  12
   6  -6   6 64100.5 6958.86  12
  -6  -6  -6 70825.9 6646.97   3
   6   6  -6 71969.7 6574.44   6
  -6   6  -6 70720.8 7321.23  10
  -6  -6   6 59313.2 8052.42   5
  -6   6   6 66481.9 9561.61   9
   6   6   6 67085.9 8783.38  15
   6   6  -6 62131.6 6267.39  14
  -6  -6   6 66784.8 6730.24   8
   6   6   6 67656.8 7981.42  14
   7   6   6 6690.47 2555.50  14
   7  -6  -6 5045.92 1664.66  12
   7  -6   6 7201.32 2645.08  12
   7   6  -6 6323.44 2617.04   7
   7   6  -6 7696.48 2106.54   6
  -7   6  -6 8996.44 2681.68  10
  -7  -6  -6 6774.09 2110.35   3
  -7   6   6 10624.8 3989.53   9
   7   6   6 7960.48 3083.02  15
  -7  -6   6 7756.85 3101.20   5
   7   6  -6 6802.48 2269.87  14
  -7  -6   6 6024.56 2202.17   8
  -8   6   6 30526.7 5928.56   1
  -8  -6  -6 42237.4 8000.50  13
   8   6  -6 24659.4 5076.02   7
   8  -6  -6 32475.5 4906.42  12
   8  -6   6 27716.7 5297.48  12
  -8  -6  -6 37388.6 5126.43   3
   8   6  -6 35471.6 4720.79   6
  -8   6  -6 36519.8 5480.64  10
  -8  -6   6 27093.3 6146.29   5
  -8   6   6 37523.3 7266.03   9
   8   6   6 36155.2 6522.67  15
   8   6  -6 31319.5 4878.24  14
  -8  -6   6 28074.5 4287.87   8
   8   6   6 37680.9 6035.08  14
   9  -6  -6 1516.87 1117.31  12
   9  -6   6 849.495 320.350  12
   9   6  -6 807.222 1262.93   7
   9   6  -6 414.161 489.528   6
  -9  -6  -6 1635.12 1284.45   3
  -9   6  -6 1290.69 1377.87  10
  -9   6   6 305.659 269.743   1
  -9   6   6 1929.74 1831.17   9
   9   6   6 2451.12 1774.30  15
  -9  -6   6 1288.18 1697.88   5
   9   6  -6 789.194 987.292  14
  -9  -6   6-64.3329 745.848   8
   9   6   6 971.916 941.913  14
 -10  -6  -6 21816.2 6190.54  13
  10   6  -6 14436.4 4038.69   7
 -10   6   6 22394.6 5433.96   1
  10  -6  -6 25997.3 4554.38  12
 -10  -6  -6 29697.9 4904.00   3
  10  -6   6 13360.7 3874.55  12
  10   6  -6 26371.9 4119.99   6
 -10   6  -6 27398.2 5050.11  10
 -10   6   6 18905.5 4919.80  10
 -10   6   6 27975.6 5956.48   9
  10   6   6 29496.9 6077.20  15
  10   6  -6 26447.8 4748.49  14
 -10  -6   6 16991.6 5012.40   5
  10   6   6 30742.7 5585.87  14
 -11  -6  -6 2398.19 2322.25  13
  11  -6  -6 4294.13 1978.83  12
  11   6  -6 1841.98 1603.80   7
  11  -6   6-1416.52 2348.60  12
 -11  -6  -6 5040.72 2543.87   3
 -11   6  -6 4909.53 2066.93  10
 -11   6   6 1684.31 1565.96  10
  11   6   6 4959.05 2622.25  15
 -11  -6   6 1682.52 1059.37   5
 -11   6   6 2147.15 1578.69   1
  11   6  -6 4675.97 2135.65  14
  11   6   6 4282.81 2031.65  14
 -12  -6  -6 9512.86 4066.01  13
 -12   6   6 27817.6 6452.07   1
  12  -6  -6 34276.5 5435.35  12
 -12  -6  -6 38980.8 6131.52   3
  12   6  -6 6420.98 2812.14   7
  12  -6   6 5310.78 1798.80  12
 -12   6  -6 34179.1 5810.90  10
 -12   6   6 28507.7 6055.14  10
  12   6  -6 30113.0 5507.82  14
 -12  -6   6 18492.8 5249.29   5
  12   6   6 40237.7 6786.34  14
  13  -6  -6 2104.97 1423.19  12
 -13   6  -6 1631.39 1729.36  10
  13   6  -6 779.982 1208.86  14
  14  -6  -6 27863.0 5042.26  12
   0   6  -7 545.328 934.094   7
   0  -6   7 2500.32 1843.80  11
   0   6  -7 2737.24 1668.53  10
   0   6   7 2363.46 2628.52   9
   0   6   7 2898.63 2295.00  15
   0  -6  -7 962.872 855.229   3
   0  -6   7 886.122 1023.46   5
   1   6  -7 72151.2 7646.16   7
  -1   6  -7 75579.2 7690.58   7
  -1  -6   7 77290.1 7086.60  11
   1  -6   7 86105.6 7365.50  11
  -1  -6  -7 79789.1 7144.92   3
   1   6  -7 60858.8 6811.63  10
  -1   6  -7 74841.9 7321.01  10
   1  -6  -7 79220.0 7271.97   3
  -1  -6   7 75661.3 7522.11   5
   1  -6   7 77719.4 6846.73   5
   1   6   7 65233.6 9109.21   9
  -1   6   7 62720.8 9338.95   9
   1   6   7 82703.1 9773.51  15
  -1   6   7 64743.9 8710.75  15
   1  -6  -7 54782.9 5431.84   7
   2  -6  -7 533.809 296.589   7
   2   6  -7 1212.45 1284.31   7
  -2   6  -7 246.509 693.919   7
  -2  -6   7 1441.44 1602.28  11
   2  -6   7 359.673 722.120  11
  -2   6  -7 1856.45 1500.33  10
  -2  -6  -7 961.691 925.589   3
   2   6   7 3282.72 2737.06   9
  -2   6   7 2891.32 2589.21   9
   2   6   7 1279.85 1514.71  15
  -2   6   7 1950.02 2069.92  15
  -2  -6   7 2303.83 1780.47   5
   2  -6  -7-437.661 560.155   3
   2  -6   7 280.590 545.475   5
   3   6  -7 38736.6 5855.70   7
  -3   6  -7 39749.7 5592.09   7
   3  -6  -7 39821.4 5064.67  12
   3  -6   7 43075.0 5115.72  11
  -3  -6  -7 43723.3 5222.92   3
  -3   6  -7 41009.7 5752.19  10
  -3  -6   7 38090.5 5980.98   5
   3  -6   7 43608.6 4725.44   5
   3   6   7 40690.0 6697.57   9
  -3   6   7 30057.0 6994.42   9
   3   6   7 43944.5 7252.55  15
  -3   6   7 34430.1 6394.64  15
  -3  -6   7 41710.9 5734.16   8
   3  -6  -7 28239.0 4296.30   7
   4  -6  -7 3877.56 1657.70  12
   4   6  -7 5396.57 2599.75   7
  -4   6  -7 4169.65 1727.87   7
   4  -6   7 1625.16 922.292  11
  -4   6  -7 2441.75 1206.66  10
  -4  -6  -7 3133.08 1330.17   3
   4   6   7 3779.62 2258.86   9
  -4   6   7 3288.85 2758.44   9
   4   6   7 3841.50 1883.82  15
  -4  -6   7 4829.37 2504.27   5
  -4  -6   7 4916.91 2319.78   8
  -5  -6  -7 45260.2 7716.53  13
   5   6  -7 33408.0 5749.94   7
  -5   6  -7 34486.2 5293.36   7
   5  -6  -7 38012.5 5002.04  12
  -5  -6  -7 36058.9 4808.13   3
   5  -6   7 37352.5 4856.94  11
  -5   6  -7 37530.4 5563.23  10
  -5  -6   7 36050.9 6502.52   5
   5   6   7 37756.9 5774.37   9
  -5   6   7 35431.4 7308.80   9
   5   6   7 37027.2 6734.64  15
  -5  -6   7 39377.9 5602.85   8
   5   6   7 36547.8 6052.05  14
   6   6   7-145.829 1102.88  14
   6  -6  -7 455.117 569.418  12
   6   6  -7 1867.26 1821.32   7
   6  -6   7 330.612 642.229  11
  -6   6  -7 2149.87 1533.96  10
  -6  -6  -7 289.126 344.624   3
  -6   6   7 3933.68 2602.28   9
   6   6   7 2384.91 1857.48  15
  -6  -6   7 2629.55 2150.08   5
  -6  -6   7 1465.22 1425.23   8
  -7  -6  -7 45855.6 8243.55  13
   7   6  -7 38574.3 6461.72   7
   7  -6  -7 53654.5 6084.72  12
   7  -6   7 44699.4 6352.58  12
  -7  -6  -7 53225.7 6158.72   3
   7   6  -7 48804.0 5591.98   6
  -7   6  -7 56437.3 6920.46  10
  -7  -6   7 35428.6 6984.44   5
  -7   6   7 54680.1 9100.10   9
   7   6   7 59017.1 8714.49  15
  -7  -6   7 42807.2 5748.84   8
   7   6   7 53310.5 7507.35  14
  -8  -6  -7 6079.71 3491.31  13
   8  -6  -7 2313.05 996.720  12
   8  -6   7 2787.70 1730.65  12
   8   6  -7 5166.07 2440.69   7
   8   6  -7 3506.84 1591.78   6
  -8   6  -7 5557.81 2447.65  10
  -8  -6  -7 4344.69 1929.81   3
  -8   6   7 4852.93 2896.05   9
   8   6   7 3432.59 2148.78  15
   8   6  -7 3021.87 1555.62  14
  -8  -6   7 3278.03 2378.33   5
  -8  -6   7 1048.57 721.986   8
   8   6   7 3263.74 1627.65  14
   9   6  -7 20951.3 5087.90   7
  -9  -6  -7 23217.6 6377.79  13
   9  -6  -7 33834.7 4928.47  12
   9  -6   7 25246.3 5260.57  12
  -9  -6  -7 39820.0 5515.46   3
  -9   6  -7 35206.6 5750.85  10
  -9   6   7 37905.6 7580.29   9
   9   6   7 40292.3 7370.39  15
   9   6  -7 33416.1 5202.44  14
  -9  -6   7 26845.6 4603.97   8
  -9  -6   7 17614.0 5345.95   5
   9   6   7 43841.7 6943.24  14
 -10   6   7 1689.08 2187.95   1
 -10  -6  -7-872.149 2108.15  13
  10  -6  -7 816.778 758.710  12
  10   6  -7 932.644 1275.92   7
  10  -6   7-1445.65 2153.73  12
 -10  -6  -7 3476.06 2028.13   3
 -10   6  -7 2200.31 1771.82  10
 -10   6   7 1420.39 1327.24   9
  10   6   7 2667.06 2238.85  15
 -10  -6   7-568.441 1363.49   5
  10   6  -7 1958.45 1427.81  14
  10   6   7 272.869 310.459  14
 -11   6   7 27266.1 6459.44   1
 -11  -6  -7 9091.59 2695.17  13
  11  -6  -7 33869.1 5175.08  12
 -11  -6  -7 40670.1 6209.16   3
  11   6  -7 11955.4 3926.08   7
  11  -6   7 12339.4 4000.41  12
 -11   6  -7 32247.7 5701.11  10
 -11   6   7 24917.5 5920.09  10
 -11   6   7 37173.4 7388.75   9
  11   6   7 36769.6 7179.05  15
  11   6  -7 28730.2 5536.60  14
 -11  -6   7 10032.9 3972.40   5
  11   6   7 35607.0 6321.37  14
  12  -6  -7 1040.94 866.994  12
  12   6  -7-779.406 1721.98   7
  12  -6   7-3010.24 3144.15  12
  12   6  -7 627.540 928.924  14
   0   6  -8 76054.3 8159.97   7
   0  -6   8 87222.8 7753.82  11
   0  -6  -8 79031.6 7344.86   3
   0  -6   8 84093.6 7862.49   5
   0   6   8 73568.3 9917.60  15
   1   6  -8 1743.77 1393.60   7
  -1   6  -8 1663.71 1293.16   7
  -1  -6   8 2380.35 1642.57  11
   1  -6   8 3330.15 1913.11  11
  -1   6  -8 4380.71 2141.19  10
  -1  -6  -8 1689.68 1189.61   3
   1   6   8 1086.54 1525.70   9
  -1   6   8 2069.50 2057.76   9
   1   6   8 3822.94 2453.74  15
  -1   6   8 3984.24 2473.87  15
   1  -6  -8 1294.74 653.031   3
  -1  -6   8 2906.12 1783.57   5
   1  -6   8 1432.01 978.767   5
  -1  -6   8 4028.74 2192.94   8
   2  -6  -8 30785.8 4400.12   7
  -2  -6  -8 51843.5 7621.04  13
   2   6  -8 35907.7 5701.68   7
  -2   6  -8 38897.3 5727.19   7
   2  -6   8 44767.8 5551.47  11
  -2  -6  -8 40062.9 5257.23   3
  -2   6  -8 40358.6 5904.24  10
   2  -6  -8 38038.8 5257.11   3
  -2  -6   8 41205.9 6236.15   5
   2   6   8 31017.3 6556.33   9
   2   6   8 43790.8 7693.31  15
  -2   6   8 33121.7 6889.30  15
  -2   6   8 22775.7 5997.57   9
  -2  -6   8 41549.8 6094.43   8
   3  -6  -8 116.011 771.689   7
   3   6  -8 1114.47 1004.76   7
  -3   6  -8 456.210 883.599   7
   3  -6   8 11.5618 796.510  11
  -3   6  -8 2007.83 1748.24  10
  -3  -6  -8 606.616 955.687   3
   3   6   8 208.580 1151.45   9
  -3   6   8-524.619 1299.97   9
   3   6   8-174.542 138.335  15
  -3  -6   8 1537.47 1702.08   5
   3  -6  -8-477.256 903.091   3
  -3  -6   8 1499.73 1595.83   8
  -4  -6  -8 26675.4 5820.63  13
   4   6  -8 24209.9 5083.16   7
  -4   6  -8 26252.9 4630.83   7
  -4  -6  -8 26654.7 4173.76   3
   4  -6   8 30617.1 4510.78  11
   4   6   8 29568.8 6453.96  15
  -4   6  -8 25499.2 4835.08  10
  -4  -6   8 26191.1 5626.70   5
   4   6   8 25278.1 5536.83   9
  -4   6   8 24316.8 6511.16   9
  -4  -6   8 27482.0 4955.30   8
   4  -6  -8 20874.8 3851.35   7
  -5  -6  -8 7513.72 3950.97  13
   5  -6  -8 1807.88 1350.46   7
   5  -6  -8 3002.88 1481.42  12
   5   6  -8 3932.56 2351.49   7
  -5   6  -8 2502.31 1514.37   7
   5  -6   8 1807.18 1049.46  11
  -5   6  -8 2980.68 1724.91  10
  -5  -6  -8 1279.81 942.399   3
  -5   6   8 3632.09 2670.43   9
   5   6   8 3728.23 2452.03  15
  -5  -6   8 3782.86 2412.86   5
  -5  -6   8 2620.57 1752.81   8
  -6  -6  -8 32367.4 7072.16  13
   6   6  -8 37318.6 6604.75   7
   6  -6  -8 48349.6 5825.63  12
  -6  -6  -8 45302.6 5739.55   3
   6  -6   8 48651.2 5730.01  11
  -6   6  -8 46034.1 6527.16  10
  -6  -6   8 32911.9 6850.79   5
  -6   6   8 46292.0 8858.97   9
   6   6   8 49541.8 8267.24  15
  -6  -6   8 41391.6 5858.39   8
   6   6   8 48100.0 7463.92  14
   6  -6  -8 29847.0 5110.11   7
   7   6   8 280.384 745.141  14
  -7  -6  -8 2398.51 2186.71  13
   7  -6  -8 805.231 382.417   7
   7  -6  -8 1237.78 1018.79  12
   7   6  -8 1452.76 1673.63   7
   7  -6   8-70.8798 682.004  11
  -7   6  -8 1800.14 1805.14  10
  -7  -6  -8 908.925 884.460   3
  -7   6   8 2166.13 1883.63   9
   7   6   8 2905.25 2318.80  15
  -7  -6   8 681.605 1698.91   5
  -7  -6   8-515.318 973.530   8
   8   6  -8 27386.4 5943.26   7
  -8  -6  -8 14481.3 4516.66  13
   8  -6  -8 37472.8 5234.83  12
  -8  -6  -8 42368.9 5719.58   3
   8  -6   8 40909.6 5230.33  11
  -8   6  -8 40627.9 6186.84  10
  -8   6   8 45209.6 8737.75   9
   8   6   8 45384.5 8069.71  15
  -8  -6   8 19138.6 5611.53   5
  -8  -6   8 32958.8 5394.36   8
   8   6   8 42347.1 6911.75  14
   8  -6  -8 24850.0 4767.20   7
  -9  -6  -8-3729.74 3979.78  13
   9  -6  -8-37.9937 827.307   7
   9  -6  -8-31.3102 610.575  12
   9   6  -8 383.208 894.756   7
   9  -6   8-1406.17 1235.98  11
  -9  -6  -8 1470.30 1272.19   3
  -9   6  -8 1127.40 1333.68  10
  -9   6   8 1425.82 1401.25   9
   9   6   8 1860.31 1659.97  15
  -9  -6   8-938.474 1873.11   5
  -9  -6   8-3114.05 2051.65   8
   9   6   8-1291.28 1430.75  14
  10   6  -8 17731.3 4836.69   7
  10  -6  -8 24170.5 4833.68   7
   0   6  -9 1353.08 1798.40   7
   0  -6   9 1810.06 1833.15  11
   0  -6  -9 595.491 969.025   3
   0   6   9-4049.24 4077.14   9
   0   6   9 1014.87 1376.64  15
   0  -6   9 1868.91 1548.03   5
   0  -6   9 1922.25 2134.77   8
   1   6  -9 48695.4 6929.62   7
  -1   6  -9 50398.5 6816.01   7
   1  -6   9 56158.0 6467.49  11
  -1  -6  -9 50278.1 6111.57   3
   1  -6  -9 51671.6 6223.46   3
  -1  -6   9 57750.5 7197.17   5
   1   6   9 57341.4 9363.31  15
  -1   6   9 48706.0 8895.07  15
   1   6   9 20996.4 5288.11   9
  -1   6   9 22469.8 6287.32   9
  -1  -6   9 60188.9 7760.75   8
   1  -6   9 57371.5 7438.28   8
   2   6  -9 4015.79 2008.82   7
  -2   6  -9 3232.93 1792.46   7
   2  -6   9 3729.88 2016.86  11
  -2  -6  -9 4231.26 1820.52   3
   2   6   9-540.676 2113.06   9
  -2   6   9-95.1995 2438.06   9
   2   6   9 4509.92 2644.54  15
  -2   6   9 3217.87 2355.58  15
   2  -6  -9 3476.72 1580.95   3
  -2  -6   9 4234.81 2232.77   5
  -2  -6   9 4908.35 2440.62   8
   2  -6   9 6440.36 2770.60   8
   3   6  -9 25355.2 5167.39   7
  -3   6  -9 22148.7 4552.15   7
  -3  -6  -9 22853.5 4098.03   3
   3  -6   9 24004.0 4158.17  11
   3  -6  -9 21148.6 4088.48   3
  -3  -6   9 25203.7 5382.89   5
   3   6   9 23056.0 6014.85  15
   3   6   9 17384.7 4697.06   9
  -3   6   9 12367.6 4963.47   9
  -3  -6   9 26112.0 5193.63   8
   3  -6   9 26085.7 5184.01   8
   4  -6  -9 1322.53 1588.77   7
   4   6  -9 229.905 907.263   7
  -4   6  -9 1076.30 1172.91   7
   4  -6   9 1336.38 1209.60  11
  -4   6  -9 2457.62 1997.76  10
  -4  -6  -9-273.542 403.599   3
  -4   6   9 561.856 855.526   9
   4   6   9 1544.38 1934.30  15
  -4  -6   9 2138.33 2057.21   5
   4  -6  -9-363.386 1004.33   3
  -4  -6   9 529.015 996.818   8
   5  -6  -9 27318.8 4854.97   7
   5   6  -9 28893.4 5900.09   7
  -5  -6  -9 10903.8 3784.61  13
  -5   6  -9 32856.2 5360.79   7
  -5  -6  -9 35967.9 5160.99   3
   5  -6   9 37507.0 5117.60  11
  -5   6  -9 32283.1 5730.47  10
  -5  -6   9 31296.5 6565.44   5
   5   6   9 40862.0 7897.66  15
  -5   6   9 26785.6 7580.11   9
  -5  -6   9 29302.3 5543.54   8
   6   6   9 24.3506 1009.51  14
  -6  -6  -9-5390.21 3721.90  13
   6  -6  -9 1123.36 1160.79   7
   6   6  -9 2383.33 1726.69   7
  -6   6  -9 1038.49 1068.87   7
   6  -6   9 449.219 292.793  11
  -6   6  -9 2602.29 2014.79  10
  -6  -6  -9 1902.18 1486.12   3
  -6   6   9 798.012 1974.34   9
   6   6   9 2730.09 2428.64  15
  -6  -6   9 813.807 1702.71   5
  -6  -6   9 1014.02 699.733   8
   7  -6  -9 33642.0 5596.51   7
   7   6  -9 31922.3 6568.22   7
  -7  -6  -9 6296.01 1961.59  13
  -7  -6  -9 48660.4 6190.56   3
  -7   6  -9 52033.1 7198.51  10
  -7  -6   9 27873.1 6774.02   5
   7   6   9 52030.3 9121.86  15
  -7  -6   9 31367.8 5748.81   8
   7   6   9 43588.8 7549.20  14
  -8  -6  -9-2994.19 3330.10  13
   8  -6  -9 1436.99 1229.83   7
  -8  -6   9-1355.98 1833.34   8
   9  -6  -9 16957.8 4197.60   7
  -9  -6   9 17095.8 4218.54   8
   0   6 -10 37855.2 6375.11   7
   0  -6 -10 36548.1 5316.19   3
   0   6  10 38137.1 8415.09  15
   0  -6  10 46164.3 7037.55   8
   1   6 -10 385.489 690.507   7
   1  -6  10 1942.39 1858.28  11
  -1   6 -10 1104.91 1305.35   7
  -1  -6 -10 654.287 1028.88   3
   1  -6 -10 508.411 659.739   3
   1   6  10-5126.54 4759.37   9
  -1   6  10-4657.32 4719.92   9
   1   6  10 1661.16 1172.19  15
  -1   6  10 2020.05 2007.42  15
  -1  -6  10 424.193 916.528   8
   1  -6  10 1707.84 1604.22   8
   2   6 -10 25890.3 5459.89   7
  -2   6 -10 26462.9 5221.77   7
   2  -6  10 33869.0 5161.89  11
  -2  -6 -10 25091.7 4335.49   3
   2  -6 -10 25137.8 4394.33   3
  -2  -6  10 28281.1 5656.51   5
   2   6  10 28807.7 7078.50  15
   2   6  10 6449.21 2037.49   9
  -2   6  10 2912.59 1470.69   9
  -2  -6  10 28262.4 5594.01   8
   2  -6  10 33576.3 6268.78   8
  -3   6 -10-149.985 760.990   7
  -3  -6 -10 851.655 803.225   3
   3   6  10-5467.79 3982.19   9
  -3   6  10-4643.05 3890.12   9
   3   6  10 32.0547 1200.21  15
   3  -6 -10-68.3643 943.598   3
  -3  -6  10 2525.17 2216.42   5
  -3  -6  10 1211.35 1255.03   8
  -4  -6 -10 27995.2 4616.59   3
   4  -6 -10 25739.4 4698.69   3
  -4  -6  10 30895.3 6514.43   5
   4   6  10 35500.0 7728.04  15
  -4  -6  10 33956.2 6045.64   8
  -5  -6 -10 97.3334 337.354   3
  -5  -6  10 167.523 162.862   5
   5  -6 -10 209.352 626.131   3
  -5  -6  10-1493.39 1761.57   8
   6  -6 -10 33787.5 5628.28   7
   6  -6 -10 39743.8 6072.04   3
   7  -6 -10 2273.81 1860.06   7
   0   6  11-811.580 1507.36  15
   1   6  11 24737.9 7088.99  15
   0  -7   0 90.8254 110.053  12
   0  -7   0-290.635 851.019  11
   0   7   0-1233.91 1297.46   6
   0   7   0-288.505 583.076  10
   0  -7   0-660.957 674.157   3
   0   7   0 245.491 46.9836  14
  -1   7   0 1171.73 683.602  14
  -1  -7   0 2116.40 1090.13  12
   1  -7   0 797.235 318.046  12
  -1  -7   0 1670.27 288.343  11
  -1   7   0 2062.44 1105.14   6
   1   7   0 694.970 940.053   6
   1   7   0 1404.87 661.886  10
  -1   7   0 805.968 42.0475  10
  -1  -7   0 1436.86 894.489   3
   1   7   0 1362.47 633.031  14
  -2   7   0-194.993 275.658  14
  -2  -7   0 827.465 903.886  12
   2  -7   0 808.162 1135.34  12
  -2  -7   0 647.116 677.703  11
  -2   7   0-415.935 661.243   6
   2   7   0 34.7170 217.754  10
  -2   7   0-317.501 912.735  10
  -2  -7   0 75.6651 294.104   3
   2   7   0 296.985 544.928  14
  -3  -7   0 1251.83 1113.81   5
   3  -7   0 828.742 945.974  12
  -3  -7   0 753.764 777.678  11
  -3   7   0 84.2503 708.304   6
   3   7   0 1069.84 778.467  10
  -3   7   0-140.880 1174.44  10
  -3  -7   0 1110.19 851.416   3
   3   7   0 684.893 278.519  14
  -4  -7   0 3233.37 1441.28   5
   4  -7   0 2356.89 1380.40  12
  -4  -7   0 4127.94 1492.61  11
   4   7   0 3066.97 1054.25  10
  -4   7   0 2065.72 649.279  10
  -4  -7   0 3227.71 1152.74   3
  -4   7   0 4285.22 1667.93   1
   4   7   0 3288.01 1324.93  14
  -5  -7   0 553.378 781.926   5
   5  -7   0 120.672 421.938  12
  -5  -7   0 522.278 549.858  11
  -5  -7   0 756.313 608.340   3
  -5   7   0 58.8584 1112.87  10
  -5   7   0 726.920 977.640   1
   5   7   0 344.624 678.852  14
  -6  -7   0 1906.51 1077.49   5
   6  -7   0 1189.17 1024.89  12
  -6   7   0 1299.53 1162.25   1
  -6  -7   0 1055.22 749.555   3
  -6   7   0-443.133 1128.62  10
   6   7   0 1522.10 1077.19  14
  -7  -7   0-265.609 283.119   5
   7  -7   0 137.879 417.365  12
  -7   7   0 898.634 1026.66   1
  -7  -7   0 433.174 637.735   3
  -7   7   0-498.431 1114.08  10
   7   7   0 579.807 267.649  14
   8  -7   0 7258.18 2577.87  12
  -8   7   0 8549.23 2743.68   1
  -8  -7   0 6477.23 2103.24   3
  -8   7   0 7844.83 2450.75  10
   8   7   0 8157.56 2601.90  14
  -8  -7   0 8298.58 2275.11   5
  -9   7   0 347.020 544.365   1
   9  -7   0-1399.04 1959.59  12
  -9  -7   0-232.522 182.487   3
  -9   7   0-58.9342 578.345  10
   9   7   0 134.090 506.838  14
  -9  -7   0 151.363 669.010   5
 -10   7   0 3790.14 2061.81   1
  10  -7   0-204.770 966.457  12
 -10   7   0 1603.50 1182.84  10
  10   7   0 3340.13 1948.09  14
 -10  -7   0 2774.47 1223.82   5
 -11   7   0 833.363 1062.09   1
  11  -7   0 2082.97 1446.61  12
 -11   7   0-1728.40 1453.75  10
  11   7   0 762.018 1227.86  14
 -11  -7   0-566.270 526.787   5
  12  -7   0 5845.74 3186.59  12
 -12   7   0 3162.88 2197.66   1
 -12   7   0 3500.08 2031.61  10
  12   7   0 3543.19 1823.08  14
 -12  -7   0 3503.28 1658.53   5
 -13   7   0 496.344 985.676   1
 -13   7   0 565.133 622.319  10
  13   7   0 193.653 62.5774  14
 -13  -7   0 699.249 483.512   5
  14  -7   0 1966.74 1970.57  12
 -14   7   0 2065.12 1638.85   1
 -14   7   0 2209.02 1821.82  10
  14   7   0 788.428 799.940  14
 -14  -7   0-368.625 1132.72   5
 -15  -7   0-327.947 829.702   5
   0   7   1 3888.86 1448.58  14
   0  -7  -1 5316.41 1736.42  12
   0  -7   1 3737.61 1215.26  12
   0  -7   1 3909.46 1327.36  11
   0   7  -1 5062.53 1562.41   6
   0   7   1 4032.40 1461.01   6
   0   7  -1 4952.77 1684.96  10
   0   7   1 5125.78 1848.54  10
   0  -7   1 3954.61 1269.98   3
   0  -7  -1 4012.51 1434.38   3
   0   7  -1 5380.09 1470.98  14
   1   7   1 3001.92 1214.22  14
  -1   7   1 2093.56 979.432  14
  -1  -7  -1 2305.98 1244.07  12
  -1  -7   1 1886.74 848.384  12
   1  -7  -1 2002.01 958.589  12
   1  -7   1 3325.48 1286.53  12
  -1  -7   1 1928.46 780.084  11
  -1  -7  -1 2296.23 756.009  11
  -1   7  -1 2434.44 1084.82   6
  -1   7   1 1519.41 551.780   6
   1   7  -1 2618.72 873.763   6
   1   7  -1 2398.49 1025.55  10
  -1   7  -1 2091.17 1083.65  10
   1   7   1 2076.76 1026.69  10
  -1   7   1 3422.64 1770.62  10
  -1  -7   1 2541.51 1003.46   3
  -1  -7  -1 2101.15 1000.51   3
   1   7  -1 2689.21 1095.83  14
  -1   7  -1 3213.49 1039.57  14
  -1   7   1 2687.23 1174.16   1
  -2  -7   1 2328.26 1217.61   5
  -2  -7  -1 1194.14 1046.99  12
  -2  -7   1 2053.85 1074.63  12
   2  -7  -1 374.789 525.963  12
   2  -7   1 2176.07 1249.14  12
  -2   7   1 1339.53 787.997   1
  -2  -7   1 810.943 528.770  11
  -2  -7  -1 1561.89 601.678  11
  -2   7  -1 1932.86 1290.15   6
  -2   7   1 1765.26 1164.35   6
   2   7  -1 829.013 359.719   6
   2   7  -1 1259.92 968.974  10
  -2   7  -1 1685.79 1139.00  10
   2   7   1 359.821 550.557  10
  -2   7   1 1901.49 1663.20  10
  -2  -7   1 1122.16 715.265   3
  -2  -7  -1 1325.07 864.056   3
   2   7  -1 1612.95 857.191  14
  -2   7  -1 1665.26 743.805  14
   2   7   1 1312.37 863.669  14
  -3  -7   1 380.574 289.867   5
   3  -7  -1 417.056 1211.22  12
   3  -7   1 599.160 944.700  12
  -3  -7   1 349.559 845.331  11
  -3  -7  -1 16.1189 144.098  11
  -3   7  -1 979.974 966.928   6
  -3   7   1-8.78826 144.933   6
   3   7  -1 32.8874 429.894  10
  -3   7  -1-283.451 424.886  10
   3   7   1-381.034 647.162  10
  -3   7   1 233.262 914.725  10
  -3  -7   1 295.634 345.769   3
  -3  -7  -1 241.933 478.572   3
  -3   7   1 640.747 800.375   1
   3   7  -1 202.002 203.232  14
   3   7   1 168.965 250.891  14
  -4  -7   1 1758.52 1058.62   5
   4  -7  -1 1786.14 1211.98  12
   4  -7   1 2373.78 1146.45  12
  -4  -7   1 1898.89 995.400  11
  -4  -7  -1 2744.44 1299.63  11
  -4   7   1 1418.86 1088.38   6
   4   7  -1 1258.12 461.583  10
  -4   7  -1 1359.17 1025.15  10
   4   7   1 1378.68 566.981  10
  -4  -7   1 1392.36 834.945   3
  -4   7   1 2381.10 1609.69  10
  -4  -7  -1 1292.39 857.302   3
  -4   7   1 2329.20 1322.21   1
   4   7  -1 1815.58 1004.72  14
   4   7   1 2625.99 1187.29  14
   5  -7  -1 3669.53 1612.48  12
   5  -7   1 3065.97 1388.64  12
  -5  -7  -1 2228.02 932.423  11
  -5  -7   1 2178.46 1062.35  11
  -5   7   1 3169.43 1437.77   1
  -5  -7   1 2876.41 1109.73   3
  -5   7  -1 1904.48 1169.87  10
  -5  -7  -1 1931.79 854.473   3
  -5   7   1 4918.21 2283.02  10
   5   7  -1 2985.57 1200.57  14
   5   7   1 2046.70 1296.05  14
  -5  -7   1 2817.28 1208.48   5
  -6  -7  -1 945.689 1030.13   5
   6  -7  -1 150.492 546.350  12
   6  -7   1-17.0578 692.596  12
  -6   7   1 20.1540 150.271   1
  -6  -7   1 345.506 524.444   3
  -6  -7  -1 845.528 857.122   3
  -6   7  -1-16.0963 609.714  10
  -6   7   1 1534.88 1294.69  10
   6   7  -1-280.434 403.915  14
   6   7   1 320.191 497.211  14
  -6  -7   1 436.101 797.151   5
  -7  -7  -1 1672.21 1061.91   5
   7  -7  -1 923.186 742.368  12
   7  -7   1 995.021 221.754  12
  -7   7   1 1310.91 1083.56   1
  -7  -7   1 1162.10 920.686   3
  -7  -7  -1 2255.13 1113.28   3
  -7   7  -1 735.741 691.359  10
  -7   7   1 625.697 1173.00  10
   7   7  -1 1726.62 1203.85  14
  -7  -7   1 1306.22 1036.22   5
   7   7   1 1372.93 1005.12  14
  -8  -7  -1 1492.73 985.936   5
   8  -7  -1 1022.94 833.528  12
   8  -7   1-1081.72 1749.92  12
  -8   7   1 835.108 975.482   1
  -8  -7   1 817.780 864.557   3
  -8  -7  -1 819.105 832.557   3
  -8   7  -1 1094.66 1053.02   1
  -8   7  -1-244.210 593.861  10
  -8   7   1 932.592 661.575  10
   8   7  -1 1816.41 1051.22  14
  -8  -7   1 1308.85 1060.10   5
   8   7   1 2045.60 1436.46  14
  -9  -7  -1 1257.17 1133.63   5
   9  -7  -1-149.564 854.357  12
   9  -7   1 1971.74 1366.18  12
  -9   7   1 909.253 1053.50   1
  -9  -7  -1 925.379 854.462   3
  -9   7  -1 923.849 1653.96   1
  -9   7  -1 348.841 515.464  10
  -9   7   1-523.014 1170.02  10
   9   7  -1 572.538 880.665  14
  -9  -7   1 502.148 543.836   5
   9   7   1 1671.20 1307.73  14
 -10  -7  -1 1338.53 1017.19   5
 -10   7  -1 1981.76 1564.11   1
  10  -7  -1-1505.84 1964.26  12
  10  -7   1 3565.82 2678.83  12
 -10   7   1 1038.77 980.616   1
 -10  -7  -1 257.435 235.277   3
 -10   7  -1-781.738 959.368  10
 -10   7   1-990.621 1519.04  10
  10   7  -1 65.7616 930.512  14
 -10  -7   1-912.481 1201.81   5
  10   7   1 691.726 750.321  14
 -11  -7  -1 1987.58 1303.24   5
 -11   7  -1 2978.96 2070.35   1
  11  -7  -1-1102.83 1787.48  12
  11  -7   1 4979.42 2944.43  12
 -11   7   1 1716.29 1225.94   1
 -11   7  -1 2852.20 1346.49  10
 -11   7   1 597.265 607.146  10
  11   7  -1 1288.18 1038.82  14
 -11  -7   1 988.071 842.635   5
  11   7   1 2230.59 1501.68  14
 -12  -7  -1 432.326 955.664   5
  12  -7  -1-2359.32 2178.14  12
  12  -7   1 4081.10 2983.39  12
 -12   7  -1 1152.42 1460.23   1
 -12   7   1 9.23103 1075.58   1
 -12   7  -1-569.636 1075.24  10
 -12   7   1-1265.00 1704.09  10
  12   7  -1-609.402 703.148  14
 -12  -7   1-481.703 926.708   5
  12   7   1-118.615 320.823  14
 -13  -7  -1 459.351 843.053   5
  13  -7  -1-475.678 717.921  12
  13  -7   1 2482.03 2297.82  12
 -13   7  -1-1214.94 509.692  10
 -13   7   1-444.418 826.208  10
 -13   7   1-245.654 825.330   1
 -13   7  -1 155.379 206.046   1
  13   7  -1-49.5557 1033.52  14
  13   7   1-757.024 836.657  14
 -13  -7   1-1400.76 1665.59   5
 -14  -7  -1 649.748 856.342   5
  14  -7  -1 445.638 552.212  12
 -14   7  -1 420.670 383.353   1
 -14   7  -1 3069.25 2190.70  10
 -14   7   1-1981.44 2003.69  10
 -14   7   1 1777.42 1370.51   1
  14   7  -1 788.666 873.443  14
  14   7   1-383.006 839.571  14
 -14  -7   1 256.637 709.408   5
 -15  -7   1 16827.9 5776.74  13
 -15  -7   1-783.717 1141.44   5
   0  -7   2 971.921 871.446   5
   0  -7  -2 521.799 73.5802  12
   0  -7   2-535.573 930.997  12
   0  -7   2-11.7698 291.882  11
   0   7  -2-29.9873 592.892   6
   0   7  -2 684.088 921.952  10
   0   7   2 707.971 931.813  10
   0  -7   2 5.86948 192.052   3
   0  -7  -2-349.399 604.980   3
   0   7  -2 39.3493 396.729  14
   1   7   2 2106.87 1160.87  14
  -1  -7   2 2264.61 1177.60   5
  -1  -7  -2 2518.33 1393.94  12
  -1  -7   2 1946.76 886.058  12
   1  -7  -2 1617.15 914.934  12
   1  -7   2 3244.17 1380.20  12
  -1  -7   2 1738.97 884.042  11
  -1  -7  -2 2181.19 878.468  11
   1  -7   2 2184.86 224.423  11
  -1   7   2 1696.70 740.179   1
  -1   7  -2 3110.47 1435.56   6
   1   7  -2 827.324 157.541   6
  -1   7   2 1392.19 534.232   6
   1   7  -2 895.713 281.388  10
  -1   7  -2 2301.54 1496.83  10
   1   7   2 2640.88 1277.71  10
  -1   7   2 2439.64 1606.17  10
  -1  -7   2 1492.63 723.062   3
  -1  -7  -2 2073.45 1087.56   3
   1   7  -2 2278.04 878.844  14
   2   7   2 3287.63 1437.18  14
  -2  -7   2 2443.71 1222.07   5
  -2   7   2 3336.35 1384.56   1
  -2  -7   2 3209.54 1205.81  12
   2  -7  -2 3803.06 1517.73  12
   2  -7   2 3160.09 1225.41  12
  -2  -7   2 3250.52 1343.15  11
  -2  -7  -2 2614.38 940.104  11
  -2   7  -2 4641.62 1779.00   6
  -2   7   2 3557.03 1357.00   6
   2   7  -2 3424.41 1344.76   6
   2   7  -2 2719.65 902.058  10
  -2   7  -2 4022.57 1755.83  10
   2   7   2 3526.95 1491.67  10
  -2   7   2 3422.25 1805.28  10
  -2  -7   2 2934.82 1049.27   3
  -2  -7  -2 3244.22 1361.06   3
   2   7  -2 3014.10 1093.01  14
  -3   7   2 1713.35 956.182   1
   3  -7  -2 2133.47 945.257  12
   3  -7   2 2158.14 1135.38  12
   3   7  -2 2010.29 1106.23   7
  -3  -7   2 2445.04 1382.94  11
  -3  -7  -2 2281.48 973.872  11
  -3   7   2 1710.33 967.297   6
   3   7  -2 1845.39 631.497   6
   3   7  -2 1732.83 743.426  10
  -3   7  -2 2798.28 1534.07  10
  -3  -7   2 1590.10 679.381   3
   3   7   2 2627.67 1359.29  10
  -3   7   2 1867.76 1353.08  10
  -3  -7  -2 2548.12 1135.94   3
   3   7  -2 1683.73 838.064  14
  -3  -7   2 2750.08 1351.15   5
   3   7   2 2234.95 983.502  14
   4  -7  -2 3327.90 1692.35  12
   4  -7   2 2759.91 1344.81  12
   4   7  -2 3148.25 1248.96   7
  -4  -7   2 2772.07 1316.53  11
  -4  -7  -2 2777.03 1101.80  11
  -4   7   2 1933.13 856.293   6
   4   7  -2 1535.68 260.092   6
   4   7  -2 1956.61 942.860  10
  -4  -7   2 2138.53 846.106   3
  -4   7  -2 3159.74 1484.85  10
   4   7   2 3169.26 1373.31  10
  -4   7   2 2778.39 1676.20  10
  -4  -7  -2 3367.28 1300.37   3
   4   7  -2 1917.02 890.032  14
  -4  -7   2 2676.27 1370.04   5
  -4   7   2 1517.20 689.942   1
   4   7   2 2373.41 1233.43  14
   5  -7  -2 2510.64 1571.04  12
   5  -7   2 1703.33 1081.84  12
  -5  -7  -2 2762.83 1231.96  11
   5   7  -2 1494.51 908.443   7
  -5  -7   2 2349.66 1373.62  11
  -5  -7   2 1554.07 837.027   3
  -5   7  -2 2710.99 1602.74  10
  -5  -7  -2 1858.01 936.703   3
  -5   7   2 799.160 999.498  10
  -5   7   2 1117.19 629.625   1
   5   7  -2 822.311 473.758  14
  -5  -7   2 1149.64 504.462   5
   5   7   2 1243.74 935.010  14
   6  -7  -2 2287.17 1606.46  12
   6  -7   2 732.265 621.324  12
   6   7  -2 2532.44 1168.19   7
  -6  -7   2 2422.05 1167.12   3
  -6   7  -2 1602.59 1162.41  10
  -6  -7  -2 1151.48 644.557   3
  -6   7   2 2094.25 1693.47  10
  -6   7   2 910.423 460.967   1
   6   7  -2 2474.32 1260.79  14
  -6  -7   2 1257.60 974.258   5
   6   7   2 1729.01 1167.31  14
   7  -7  -2 702.951 1001.86  12
   7  -7   2-1.12016 1344.57  12
   7   7  -2 1700.33 894.230   7
  -7  -7   2 692.378 656.361   3
  -7  -7  -2 2097.71 1076.22   3
  -7   7  -2 1377.40 1169.04  10
  -7   7   2 2406.76 1723.49  10
  -7   7   2 1493.91 777.231   1
   7   7  -2 140.211 531.129  14
  -7  -7   2 411.275 464.065   5
   7   7   2 2029.38 1233.73  14
   8  -7  -2 394.901 442.520  12
   8  -7   2 3634.05 1790.91  12
  -8  -7  -2 816.280 699.219   3
  -8   7  -2 934.803 988.217  10
  -8   7   2 1273.69 1424.62  10
  -8   7   2-463.140 964.949   1
   8   7  -2 326.116 85.8178  14
  -8  -7   2 410.545 719.484   5
   8   7   2 392.372 519.987  14
   9  -7  -2 187.950 559.978  12
   9  -7   2 3302.33 2589.18  12
  -9  -7  -2 420.193 448.053   3
  -9   7  -2 641.734 709.951  10
  -9   7   2 735.125 1500.56  10
  -9  -7   2-927.430 1374.10   5
   9   7  -2-581.593 815.255  14
  -9   7   2-1019.55 1145.38   1
   9   7   2 397.633 585.581  14
 -10   7   2 702.323 1065.26   1
  10  -7  -2-452.010 1212.54  12
  10  -7   2 5459.48 3257.02  12
 -10  -7  -2 1186.13 1169.75   3
 -10   7  -2 1602.49 1467.21  10
 -10   7   2 2660.09 1848.76  10
 -10  -7   2-971.950 1548.10   5
  10   7  -2-164.740 493.936  14
  10   7   2 1319.47 1167.83  14
 -11  -7  -2 1291.23 1114.35   5
 -11   7   2 1019.22 1153.41   1
 -11  -7  -2 299.851 646.059   3
  11  -7  -2-436.350 1448.71  12
  11  -7   2 4606.63 3134.70  12
 -11   7  -2 1303.01 1357.71  10
 -11   7   2 1601.48 1095.64  10
 -11  -7   2-1484.25 1654.16   5
  11   7  -2-386.722 789.789  14
  11   7   2 200.751 624.532  14
 -12  -7  -2 1119.06 934.916   5
 -12   7   2-826.522 1070.72   1
  12  -7  -2-2014.48 1959.28  12
  12  -7   2 2493.29 2435.33  12
 -12   7  -2 1315.73 1264.76  10
 -12   7   2-1701.13 1550.93  10
 -12  -7   2-1762.32 1876.37   5
  12   7  -2 161.473 363.703  14
  12   7   2 1153.25 1350.20  14
 -13  -7  -2 331.497 249.015   5
 -13   7   2-1263.03 1446.89   1
  13  -7  -2-1599.82 2014.15  12
  13  -7   2 1861.76 2055.83  12
 -13   7  -2 2309.37 1839.45  10
 -13   7   2-872.421 1673.45  10
 -13  -7   2-1883.85 2022.85   5
  13   7  -2 667.770 448.017  14
  13   7   2-581.786 1338.42  14
 -14   7   2 1544.03 1297.24   1
 -14   7  -2 3151.93 2164.83  10
 -14   7   2 832.714 728.320  10
  14   7  -2 1293.55 1077.43  14
 -14  -7   2-1123.12 1831.81   5
 -15  -7   2 15269.9 5416.14  13
 -15  -7   2 339.582 90.0510   5
   0  -7   3 13.7650 210.953   5
   0  -7  -3 602.943 736.343  12
   0  -7   3-489.309 800.770  12
   0  -7   3 85.3660 682.753  11
   0   7  -3 1106.84 972.703   6
   0   7  -3-336.182 738.022  10
   0   7   3 153.091 449.100  10
   0  -7   3 45.7472 294.109   3
   0  -7  -3-19.1454 205.069   3
  -1  -7   3 2885.85 1328.75   5
   1  -7   3 3396.49 1463.05   5
  -1  -7  -3 4845.71 1845.74  12
   1  -7  -3 2223.22 1224.82  12
  -1  -7   3 2092.24 982.537  12
   1  -7   3 3310.43 1463.95  12
   1   7  -3 2131.51 1197.40   7
  -1  -7   3 2192.15 1109.65  11
  -1  -7  -3 2735.85 839.000  11
   1  -7   3 1894.86 825.573  11
  -1   7  -3 4535.23 1778.30   6
   1   7  -3 2993.57 1417.13   6
   1   7  -3 1692.36 1043.44  10
  -1   7  -3 2019.19 922.009  10
  -1   7   3 1666.23 634.341   1
   1   7   3 2358.82 1242.44  10
  -1   7   3 1416.32 553.704  10
  -1  -7   3 1871.88 806.661   3
  -1  -7  -3 2419.79 1050.46   3
   1  -7   3 1305.03 627.252   3
   2   7   3 1408.22 840.386  14
  -2  -7   3 2126.69 939.430  12
   2  -7  -3 1331.37 717.324  12
   2  -7   3 1209.90 759.104  12
   2   7  -3 1705.40 1100.83   7
  -2  -7   3 2747.25 1342.99  11
  -2  -7  -3 1386.75 659.655  11
   2  -7   3 953.444 440.559  11
   2   7  -3 2193.06 839.139   6
  -2   7   3 1324.56 443.882   6
  -2   7   3 822.809 429.193   1
   2   7  -3 1966.51 867.021  10
  -2   7  -3 709.971 827.029  10
  -2  -7   3 1012.71 385.273   3
   2   7   3 1440.38 715.092  10
  -2   7   3 2337.25 1467.50  10
  -2  -7  -3 2441.54 1326.03   3
   2   7  -3 1780.24 737.704  14
  -2  -7   3 1800.58 1004.39   5
   3   7   3 1298.36 658.289  14
   3  -7  -3 1668.11 675.794  12
   3  -7   3 3510.13 1408.07  12
   3   7  -3 3448.90 1512.48   7
  -3  -7   3 3352.60 1638.01  11
  -3  -7  -3 2263.59 910.559  11
  -3   7   3 2286.65 1424.51   1
  -3   7   3 2476.67 1253.75   6
   3   7  -3 2819.22 1306.02   6
   3   7  -3 2567.89 1222.67  10
  -3  -7   3 1615.99 653.654   3
  -3   7  -3 793.709 505.479  10
   3   7   3 1242.98 634.194  10
  -3   7   3 2168.20 1305.21  10
  -3  -7  -3 2414.84 1229.85   3
   3   7  -3 1646.82 753.843  14
  -3  -7   3 3163.37 1337.92   5
   4   7   3 821.572 695.896  14
   4  -7  -3 1186.25 632.915  12
   4  -7   3 660.304 529.717  12
   4   7  -3 460.737 586.849   7
  -4  -7   3 702.248 713.122  11
  -4  -7  -3 783.974 530.180  11
  -4   7   3 542.826 704.844   1
  -4   7   3 442.905 395.568   6
   4   7  -3-121.541 1045.04   6
   4   7  -3 767.173 845.500  10
  -4   7  -3-814.977 1229.13  10
   4   7   3 995.756 845.766  10
  -4   7   3 400.010 962.302  10
  -4  -7  -3 276.120 809.935   3
   4   7  -3 147.848 125.746  14
  -4  -7   3 324.566 358.211   5
   5  -7  -3 1232.34 1083.45  12
   5  -7   3 1340.18 411.511  12
  -5  -7  -3 2381.60 1144.50  11
   5   7  -3 1753.91 1041.75   7
  -5  -7   3 2766.06 1460.04  11
  -5   7   3 2085.34 1225.47   6
  -5   7   3 895.607 907.460   1
   5   7  -3 577.659 993.402   6
  -5   7  -3 1657.20 1067.88  10
  -5  -7  -3 1081.36 473.419   3
  -5   7   3 1144.36 1225.45  10
   5   7  -3 1300.51 853.752  14
  -5  -7   3 1130.20 592.793   5
   5   7   3 1204.48 819.732  14
   6  -7  -3 3966.61 1752.62  12
   6  -7   3 2071.32 787.766  12
   6   7  -3 2476.43 1206.66   7
  -6   7   3 2522.51 1621.05   1
   6   7  -3 2779.60 809.784   6
  -6   7  -3 4193.90 1878.24  10
  -6  -7  -3 2531.19 998.619   3
  -6   7   3 4160.16 2010.19  10
   6   7  -3 3267.34 1356.30  14
  -6  -7   3 2239.32 686.608   5
   6   7   3 2799.41 1294.87  14
   7  -7  -3 482.729 925.939  12
   7  -7   3 1888.24 1390.34  12
   7   7  -3 666.344 553.125   7
  -7   7   3 1007.09 996.053   1
  -7  -7  -3 298.472 152.129   3
  -7   7  -3 1295.42 1144.45  10
  -7   7   3 1040.17 1491.17  10
  -7  -7   3-865.496 1327.49   5
   7   7  -3 379.242 529.674  14
   7   7   3 1134.02 934.997  14
   8  -7  -3 1291.59 1173.41  12
   8   7  -3 481.187 371.083   7
  -8   7   3 616.269 826.314   1
  -8  -7  -3 766.716 809.068   3
  -8   7  -3 1581.43 778.316  10
  -8   7   3 451.249 1081.66  10
  -8  -7   3-839.627 1517.71   5
   8   7  -3 450.342 331.776  14
   8   7   3 844.305 679.170  14
   9  -7  -3 831.903 1154.23  12
   9  -7   3 3452.81 2719.68  12
  -9  -7  -3-528.483 444.827   3
  -9   7   3-231.291 754.005   1
  -9   7  -3 1390.93 1439.14  10
  -9   7   3 1306.65 1283.10  10
  -9  -7   3-926.658 1025.33   5
   9   7  -3 590.195 561.337  14
   9   7   3 106.425 625.800  14
  10  -7  -3 2172.54 1283.77  12
  10  -7   3 3992.07 2848.75  12
 -10  -7  -3 434.062 407.230   3
 -10   7  -3 1673.51 1128.63  10
 -10   7   3 236.624 1000.13   1
 -10   7   3 590.996 424.862  10
 -10  -7   3 227.559 1021.42   5
  10   7  -3 40.9600 513.131  14
  10   7   3 2592.56 1521.68  14
  11  -7  -3-1270.26 1216.16  12
  11  -7   3 2455.91 2644.40  12
 -11  -7  -3 606.467 895.219   3
 -11   7  -3-211.279 387.946  10
 -11   7   3 448.092 805.122  10
 -11   7   3-280.738 968.357   1
 -11  -7   3-133.168 865.909   5
  11   7  -3 526.693 1047.57  14
  11   7   3 239.880 563.637  14
  12  -7  -3 917.340 508.883  12
  12  -7   3 2413.97 2784.92  12
 -12   7  -3-157.446 1349.54  10
 -12   7   3 2206.93 2104.94  10
 -12   7   3 28.5493 718.891   1
 -12  -7   3-1536.83 1890.33   5
  12   7  -3 1234.98 830.001  14
  12   7   3 1322.19 1138.64  14
  13  -7  -3-606.316 1051.20  12
  13  -7   3 1175.56 1586.52  12
 -13   7  -3-2023.37 1881.02  10
 -13   7   3 545.706 1216.81  10
 -13   7   3-1077.30 1720.07   1
 -13  -7   3-1239.07 1954.03   5
  13   7  -3-83.8574 1197.21  14
  13   7   3 949.139 1447.42  14
 -14  -7   3-2015.39 2309.43   5
   0  -7  -4 1198.93 1114.21  12
   0  -7   4 759.082 401.088  12
   0   7  -4 1233.04 918.924   7
   0   7  -4 1870.86 1306.37   6
   0  -7   4 1062.55 515.267  11
   0   7  -4 611.975 694.533  10
   0   7   4 327.890 678.273  10
   0  -7  -4 1578.36 943.372   3
   0  -7   4 1295.82 995.674   5
   1  -7   4 1035.51 961.798   5
   1  -7  -4 171.691 169.875  12
  -1  -7   4-64.3883 433.355  12
   1  -7   4 571.314 802.661  12
   1   7  -4 1048.25 1029.72   7
  -1   7  -4 519.758 713.830   7
  -1  -7   4 626.103 873.691  11
   1  -7   4 322.356 819.116  11
  -1  -7  -4 101.929 387.039  11
   1   7  -4 766.592 964.402   6
   1   7  -4 617.736 673.133  10
  -1   7  -4 182.580 396.070  10
  -1   7   4-805.127 1521.78  10
   1   7   4-760.853 1330.62  10
  -1  -7  -4-150.002 354.589   3
   1  -7  -4-304.555 448.793   3
  -1  -7   4 177.874 292.866   5
   2  -7   4 1181.18 853.760   5
  -2   7   4 1257.87 898.555   1
  -2  -7   4 1640.21 829.729  12
   2  -7  -4 1093.50 871.401  12
   2  -7   4 986.238 713.086  12
   2   7  -4 1363.48 1035.73   7
  -2  -7   4 1915.54 1206.71  11
  -2  -7  -4 1350.39 563.693  11
   2  -7   4 520.004 689.074  11
   2   7  -4 1785.19 1122.14   6
  -2   7   4 1129.59 84.4099   6
   2   7  -4 2057.21 1240.96  10
  -2   7  -4 813.486 661.332  10
  -2   7   4 339.918 667.015  10
   2   7   4 227.086 1121.27  10
  -2  -7  -4 1378.73 1003.83   3
  -2  -7   4 1123.26 259.206   5
   3   7   4 559.515 354.612  14
  -3   7   4 1136.07 1192.40   1
   3  -7  -4 713.926 495.227  12
   3  -7   4 1031.46 778.362  12
   3   7  -4 1096.78 918.257   7
  -3  -7   4 1833.96 1340.01  11
   3  -7   4 479.540 290.096  11
   3   7  -4 1415.64 1121.24   6
  -3   7   4 626.633 466.418   6
   3   7  -4 1338.57 1062.83  10
  -3   7  -4 782.614 475.199  10
  -3   7   4 2066.43 1493.45  10
   3   7   4 108.147 816.988  10
  -3  -7  -4 2084.95 1221.55   3
  -3  -7   4 571.275 648.025   5
   4   7   4 32.8053 672.245  14
  -4   7   4 453.565 933.535   1
   4  -7  -4 238.518 900.234  12
   4  -7   4 410.200 271.018  12
   4   7  -4 633.935 723.656   7
  -4  -7   4 1728.85 1353.37  11
  -4   7   4 825.585 638.444   6
   4   7  -4 333.440 966.204   6
   4   7  -4 879.201 826.214  10
  -4   7  -4 586.570 483.821  10
  -4  -7  -4 1130.39 886.895   3
  -4   7   4 309.090 669.197  10
   4   7   4 297.726 336.769  10
   4   7  -4 1105.80 879.827  14
  -4  -7   4-479.305 807.817   5
   5   7   4 811.501 581.979  14
  -5   7   4 1790.38 1228.94   1
   5  -7  -4 934.228 755.191  12
   5  -7   4 1488.08 271.831  12
  -5  -7   4 1424.61 1400.87  11
   5   7  -4 1382.28 898.487   7
  -5   7   4 1637.80 1029.06   6
   5   7  -4 954.026 739.388   6
  -5   7  -4 259.960 152.402  10
  -5  -7  -4 1108.86 702.519   3
  -5   7   4 274.789 999.212  10
   5   7  -4 1735.65 1101.15  14
  -5  -7   4 155.715 1037.17   5
  -6   7   4 537.483 703.147   1
   6  -7  -4 1201.61 1376.84  12
   6  -7   4-783.451 931.401  12
   6   7  -4-18.6114 570.522   7
   6   7  -4 337.707 755.675   6
  -6   7  -4 430.433 872.025  10
  -6  -7  -4 868.084 548.328   3
  -6   7   4 416.367 747.565  10
  -6  -7   4-783.499 966.210   5
   6   7  -4 87.2345 316.489  14
   6   7   4 838.346 862.121  14
  -7   7   4 1559.89 1441.81   1
   7  -7  -4 1008.05 1298.55  12
   7   7  -4 1.79283 582.747   7
   7   7  -4 340.994 829.244   6
  -7   7  -4 309.597 730.780  10
  -7  -7  -4 898.043 915.023   3
  -7   7   4 1044.07 616.132  10
  -7  -7   4 4024.66 2223.85   5
   7   7  -4 645.063 633.877  14
   7   7   4 1195.39 891.561  14
  -8   7   4 438.417 1259.96   1
   8  -7  -4 602.810 1087.09  12
   8  -7   4 3819.59 2636.04  12
   8   7  -4-1449.84 1207.34   7
   8   7  -4-1781.77 1483.46   6
  -8  -7  -4 408.499 811.229   3
  -8   7  -4-445.810 1201.22  10
  -8   7   4 1152.92 796.532  10
  -8  -7   4 3170.12 2139.15   5
   8   7  -4-597.549 708.590  14
   8   7   4 1100.44 1039.71  14
   9  -7  -4 3311.35 1463.46  12
   9  -7   4 6473.23 3218.64  12
  -9   7   4 3256.30 2143.43   1
   9   7  -4 1494.13 880.525   7
  -9  -7  -4 3456.84 1689.38   3
  -9   7  -4 1903.17 798.929  10
  -9   7   4 3155.63 2053.67  10
  -9  -7   4 8071.88 3404.08   5
   9   7  -4 4357.74 1900.28  14
   9   7   4 3520.64 1829.55  14
  10  -7  -4 590.537 453.112  12
  10  -7   4 5502.56 3250.88  12
 -10   7   4 1491.84 1822.53   1
 -10  -7  -4 270.621 203.449   3
 -10   7  -4-1136.80 1435.10  10
 -10   7   4 1073.65 1473.03  10
 -10  -7   4 4187.93 2813.50   5
  10   7  -4 403.056 730.731  14
  10   7   4 285.053 630.634  14
  11  -7  -4-697.104 1423.22  12
  11  -7   4 3670.77 2955.74  12
 -11   7   4 943.278 1818.99   1
 -11  -7  -4 54.0791 410.249   3
 -11   7  -4-296.992 990.924  10
 -11   7   4 960.251 1621.78  10
 -11  -7   4 160.554 1268.51   5
  11   7  -4 438.471 720.962  14
  11   7   4 111.170 507.299  14
 -12  -7  -4 673.901 910.553   3
  12  -7  -4 1320.20 1450.42  12
  12  -7   4 4507.48 3218.81  12
 -12   7   4 742.044 529.653   1
 -12   7  -4 635.155 478.390  10
 -12   7   4 88.5004 1265.28  10
 -12  -7   4 1597.24 1515.88   5
  12   7  -4 898.053 1144.07  14
  12   7   4 1070.11 1079.99  14
  13  -7  -4 703.262 611.966  12
  13  -7   4 3414.08 2715.27  12
 -13   7   4 790.989 822.147   1
 -13  -7   4-1589.75 1797.25   5
  13   7  -4 530.802 1073.79  14
   0  -7   5 699.629 185.160  12
   0   7  -5 1562.80 1057.41   7
   0  -7   5 1521.87 824.398  11
   0   7  -5 2130.23 1382.64  10
   0   7   5 2735.02 1778.95  15
   0  -7  -5 1656.22 1127.05   3
   0  -7   5 1017.89 834.669   5
   1  -7  -5 1503.91 1206.48  12
   1  -7   5 1295.64 984.409  12
   1   7  -5 1432.28 1111.20   7
  -1   7  -5 1294.67 845.972   7
  -1  -7   5 2746.15 1528.22  11
   1  -7   5 1923.22 1053.05  11
   1   7  -5 1471.89 1293.79  10
  -1   7  -5 2164.12 1404.07  10
   1   7   5 1698.50 1446.60  15
  -1   7   5 3858.18 1908.15  15
  -1  -7  -5 251.807 141.166   3
   1  -7  -5 864.277 678.985   3
  -1  -7   5 1391.66 981.351   5
   1  -7   5 1210.21 934.067   5
   2  -7   5 465.156 487.376   5
   2  -7  -5 968.564 908.497  12
   2  -7   5 908.180 742.859  12
   2   7  -5 1889.30 1288.19   7
  -2  -7   5 1958.90 1524.18  11
  -2   7  -5 777.863 893.294   7
   2  -7   5 336.469 326.946  11
   2   7  -5 938.429 961.143   6
  -2   7   5-133.705 508.026   6
   2   7  -5-219.391 393.252  10
  -2   7  -5 353.756 208.888  10
   2   7   5 1134.04 898.132  15
  -2  -7  -5 695.466 773.394   3
  -2   7   5-280.409 721.605   1
  -2  -7   5 543.137 488.023   5
   3  -7  -5 1504.10 680.744  12
   3  -7   5 1239.08 571.703  12
   3   7  -5 1232.32 1008.13   7
  -3  -7   5 2390.39 1306.80  11
   3  -7   5 1175.84 831.801  11
   3   7  -5 2769.65 1503.89   6
  -3   7   5 380.256 657.388   6
   3   7  -5 1451.03 1054.41  10
  -3   7  -5 2847.67 1539.96  10
  -3  -7  -5 3237.46 1465.57   3
   3   7   5 3594.64 1900.39  15
  -3   7   5 1728.55 903.888   1
  -3  -7   5 284.779 766.962   5
   4   7   5-395.978 765.817  14
   4  -7  -5-639.170 1207.62  12
   4  -7   5-534.491 782.915  12
   4   7  -5 370.436 657.860   7
  -4  -7   5 629.588 1094.81  11
   4  -7   5-702.096 1252.20  11
   4   7  -5-615.156 902.731   6
   4   7  -5-190.290 459.213  10
  -4   7  -5 168.761 630.449  10
  -4  -7  -5 1213.90 852.787   3
  -4   7   5-184.722 1127.50  10
   4   7   5-408.029 621.713  15
  -4   7   5-699.597 1166.21   1
  -4  -7   5-705.145 1131.85   5
   5   7   5-245.541 359.805  14
   5  -7  -5-157.980 662.810  12
   5  -7   5-571.473 971.939  12
   5   7  -5-683.326 750.825   7
   5   7  -5 477.024 513.184   6
  -5   7  -5 99.3984 275.962  10
  -5  -7  -5-59.3782 488.917   3
  -5   7   5-542.450 1336.22  10
   5   7   5 736.691 1246.91  15
  -5  -7   5 2283.02 1654.76   5
  -5   7   5 74.3032 705.775   1
   6  -7  -5 524.493 344.456  12
   6  -7   5 1532.35 1476.98  12
   6   7  -5 218.363 953.040   7
   6   7  -5 1402.47 865.350   6
  -6   7  -5 2116.76 1444.10  10
  -6  -7  -5 1634.11 784.424   3
  -6   7   5-237.729 1530.51  10
   6   7   5 2684.23 2019.51  15
   6   7  -5 2360.05 1211.94  14
  -6   7   5 335.440 718.099   1
   6   7   5 739.889 422.893  14
  -7   7   5 444.670 840.488   1
   7  -7  -5 1551.60 902.994  12
   7  -7   5 4860.63 2764.75  12
   7   7  -5-394.301 1152.95   7
   7   7  -5 1093.62 367.875   6
  -7   7  -5 724.764 812.183  10
  -7  -7  -5 1868.33 1117.33   3
  -7   7   5 23.2181 1132.19  10
   7   7  -5 1555.76 1080.05  14
  -7  -7   5 3874.69 1851.49   8
   7   7   5 999.976 1129.35  14
  -8   7   5 359.882 1253.44   1
   8  -7  -5 638.377 1058.99  12
   8  -7   5 6771.85 3218.19  12
   8   7  -5 1471.94 1173.70   7
   8   7  -5 303.187 615.878   6
  -8  -7  -5 1381.91 882.820   3
  -8   7  -5 51.9097 714.102  10
  -8   7   5 447.730 1105.43  10
  -8  -7   5 7598.57 3786.38   5
  -8  -7   5 1199.57 1237.44   8
   8   7   5 1120.82 1156.31  14
  -9   7   5 1617.02 1493.54   1
   9  -7  -5 2360.78 1680.42  12
   9  -7   5 4014.44 2731.19  12
   9   7  -5 5611.44 2478.29   7
   9   7  -5 94.4857 646.939   6
  -9  -7  -5 1174.51 1014.37   3
  -9   7  -5 865.908 623.130  10
  -9   7   5-430.295 1468.94  10
  -9  -7   5 6277.03 3553.01   5
   9   7  -5 668.767 777.098  14
   9   7   5 2025.30 1611.87  14
 -10   7   5 3284.94 2423.92   1
  10  -7  -5 3326.04 1872.08  12
  10  -7   5 3147.89 2631.20  12
 -10  -7  -5 3685.37 1804.89   3
  10   7  -5 2221.73 699.190   6
 -10   7  -5 1744.73 1387.14  10
 -10   7   5 2754.98 1993.52  10
 -10  -7   5 4335.26 2982.20   5
  10   7  -5 3461.57 1835.45  14
  10   7   5 2890.18 1979.91  14
 -11   7   5 1001.53 1308.06   1
  11  -7  -5 2168.39 1511.95  12
  11  -7   5 4178.71 3113.32  12
 -11  -7  -5 502.064 1122.80   3
  11   7  -5-562.593 1485.35   6
 -11   7  -5 1717.10 1464.12  10
 -11   7   5 2061.93 1149.15  10
 -11  -7   5 2989.03 2279.35   5
  11   7  -5 1590.68 1352.90  14
  11   7   5 361.857 428.211  14
  12  -7  -5 2271.41 1513.33  12
  12  -7   5 3879.38 3157.17  12
 -12   7   5 1081.66 1381.76   1
  12   7  -5 462.591 611.153   6
 -12   7  -5 1237.88 789.919  10
 -12  -7   5 240.490 393.643   5
  12   7  -5 1026.01 485.103  14
  13   7  -5 396.642 941.455  14
   0   7  -6 25.2400 123.100   7
   0   7  -6-194.764 506.251  10
   0   7   6-184.911 603.094  15
   0  -7  -6 907.448 610.930   3
   0  -7   6 171.709 509.299   5
   1   7  -6 1426.56 982.222   7
  -1   7  -6 2327.71 1268.97   7
  -1  -7   6 2397.54 1756.07  11
   1  -7   6 2448.06 1303.21  11
   1   7  -6 2114.36 1231.48  10
  -1   7  -6 3156.39 1609.58  10
   1   7   6 5838.48 3254.75   9
  -1   7   6 4669.29 3514.45   9
   1   7   6 1528.79 1270.74  15
  -1   7   6 3080.67 1763.63  15
  -1  -7  -6 2109.30 1022.79   3
   1  -7  -6 2247.44 1146.51   3
  -1  -7   6 2195.01 1220.75   5
   1  -7   6 1631.67 925.951   5
   2  -7   6 416.244 303.688   5
   2  -7  -6 2631.49 1584.30  12
   2   7  -6 963.441 784.901   7
  -2  -7   6 1146.90 1108.82  11
  -2   7  -6 676.731 596.527   7
   2  -7   6 706.052 757.459  11
   2   7  -6 287.206 231.057  10
  -2   7  -6 2023.32 1737.82  10
  -2   7   6 4894.40 3498.79   9
  -2  -7  -6 888.369 802.210   3
   2   7   6 1111.79 1290.91  15
   2  -7  -6 678.067 313.852   3
  -2  -7   6-349.931 867.812   5
  -3   7   6 1029.96 1135.18   1
   3  -7   6 4919.98 1642.32   5
   3  -7  -6 3951.64 1674.43  12
   3   7  -6 3540.94 1762.66   7
  -3  -7   6 3223.05 1618.50  11
  -3   7  -6 3634.95 1828.37   7
   3  -7   6 2652.14 1022.21  11
   3   7  -6 2450.33 1125.64  10
  -3   7  -6 3442.61 1650.93  10
  -3  -7  -6 4626.52 1837.35   3
  -3   7   6 8908.55 4177.41   9
   3   7   6 3901.45 2265.49  15
  -3  -7   6 1426.78 533.607   5
   4   7   6-74.9435 324.342  14
  -4   7   6-1050.92 1301.82   1
   4  -7  -6 1332.79 976.831  12
   4   7  -6-858.302 1153.83   7
  -4  -7   6 1322.53 1539.71  11
   4  -7   6 106.444 500.623  11
   4   7  -6 1554.36 1246.02   6
  -4   7  -6 1188.22 1294.54  10
  -4  -7  -6 868.372 940.793   3
  -4   7   6 3107.63 3068.39   9
   4   7   6-134.976 456.952  15
  -4  -7   6 3640.81 2208.94   5
   5   7   6-164.097 729.628  14
   5  -7  -6-615.168 753.167  12
   5  -7   6-1016.10 1222.24  12
   5   7  -6-577.119 926.656   7
   5  -7   6-288.666 1208.59  11
   5   7  -6 727.666 832.719   6
  -5   7  -6 727.841 735.698  10
  -5  -7  -6-655.958 996.229   3
  -5   7   6 4683.09 3287.46   9
  -5   7   6-985.356 1751.71   1
   5   7   6 2267.74 2005.51  15
  -5  -7   6 5149.91 3001.23   5
   6   7   6 181.940 184.304  14
   6  -7  -6 536.096 592.783  12
   6  -7   6 802.616 878.466  12
   6   7  -6-123.968 1197.86   7
   6  -7   6-523.127 1210.83  11
   6   7  -6 2282.18 1330.35   6
  -6   7  -6 2521.76 1653.81  10
  -6  -7  -6 369.203 609.180   3
  -6   7   6 3488.52 2918.22   9
   6   7   6 1618.59 1212.75  15
  -6   7   6-152.385 1410.37   1
  -6  -7   6 2322.76 1619.30   8
   7  -7  -6 89.5204 794.267  12
   7  -7   6 4386.48 2481.11  12
   7   7  -6 434.158 395.705   7
   7   7  -6 1091.98 1026.47   6
  -7   7  -6 603.027 990.758  10
  -7  -7  -6 817.482 996.643   3
  -7   7   6-1442.95 2283.28  10
   7   7   6-647.859 1408.41  15
  -7   7   6-915.375 1766.58   1
  -7  -7   6 5071.15 3233.25   5
  -7  -7   6 2055.32 1666.03   8
   7   7   6 921.071 1183.83  14
   8  -7  -6-724.114 937.557  12
   8  -7   6 3558.00 2568.45  12
   8   7  -6 4004.90 2230.01   7
   8   7  -6 309.664 424.895   6
  -8   7  -6 1394.58 1542.31  10
  -8  -7  -6 479.393 463.182   3
  -8   7   6-4.59262 1569.94  10
   8   7   6-1408.92 1519.71  15
  -8  -7   6 5576.30 3529.37   5
  -8   7   6-139.439 1166.41   1
  -8  -7   6 823.134 892.999   8
   8   7   6 465.665 1235.49  14
   9  -7  -6 608.988 879.303  12
   9  -7   6 3887.14 2712.39  12
   9   7  -6 4613.78 2775.27   7
   9   7  -6 813.023 695.490   6
  -9  -7  -6 911.665 922.490   3
  -9   7  -6 1640.29 1537.62  10
  -9   7   6-2005.81 2539.79  10
   9   7   6 525.674 1492.52  15
  -9  -7   6 6313.81 3820.69   5
  -9   7   6-61.9850 594.078   1
   9   7   6 206.160 485.202  14
 -10   7   6 853.025 1534.48   1
  10  -7  -6 588.090 1176.12  12
  10  -7   6 1700.25 2157.81  12
  10   7  -6 2895.20 2404.87   7
  10   7  -6-221.394 961.552   6
 -10  -7  -6 1163.17 1080.31   3
 -10   7  -6-131.702 337.644  10
 -10   7   6-299.426 903.466  10
 -10  -7   6 5031.74 3158.89   5
  10   7  -6 281.392 327.157  14
  10   7   6 764.214 1279.45  14
 -11   7   6-101.555 1084.58   1
 -11  -7  -6 3770.96 3255.38  13
  11  -7  -6 1446.93 1336.56  12
  11  -7   6 2910.45 2675.35  12
  11   7  -6 994.353 1005.73  14
  12  -7  -6 1433.73 1563.87  12
  12  -7   6 3383.96 2967.81  12
  12   7  -6 981.970 881.501  14
   0   7  -7 1744.66 1297.47   7
   0  -7   7 4059.67 2158.69  11
   0   7  -7 2914.98 1525.16  10
   0   7   7 7011.75 4167.00   9
   0   7   7 2210.55 1793.51  15
   0  -7  -7 2673.96 1362.18   3
   0  -7   7 1604.20 820.427   5
   1   7  -7 1117.43 1232.11   7
  -1   7  -7 837.192 1173.07   7
  -1  -7   7-758.748 1085.68  11
   1  -7   7-202.525 1183.05  11
   1   7  -7-464.654 899.641  10
  -1   7  -7 163.775 749.076  10
   1   7   7 5348.55 3956.11   9
  -1   7   7 4923.29 3659.66   9
  -1  -7  -7 137.678 456.496   3
   1   7   7-40.8663 658.506  15
   1  -7  -7-239.039 670.452   3
  -1  -7   7-876.447 1317.66   5
   1  -7   7 335.601 362.849   5
   2   7  -7-135.492 340.436   7
  -2  -7   7 1826.31 1430.41  11
  -2   7  -7 671.077 67.1574   7
   2  -7   7 1926.14 1199.91  11
   2   7  -7 758.155 1004.47  10
  -2   7  -7 619.216 654.684  10
  -2  -7  -7 1326.94 1191.17   3
   2   7   7 5245.47 3474.31   9
  -2   7   7 6126.34 4318.18   9
   2   7   7-680.432 1047.55  15
   2  -7  -7-329.807 802.070   3
  -2  -7   7-205.249 1123.55   5
   2  -7   7 728.073 765.458   5
   3  -7  -7 891.500 1090.42  12
   3   7  -7 152.161 726.905   7
  -3  -7   7 1638.91 1533.08  11
  -3   7  -7 605.882 967.356   7
   3  -7   7 72.1279 767.113  11
  -3   7  -7-96.6343 816.146  10
  -3  -7  -7 928.370 1029.64   3
   3   7   7 4679.90 3015.84   9
  -3   7   7 5799.41 4254.02   9
   3   7   7 1360.59 1454.69  15
  -3  -7   7 1229.00 1130.54   5
   3  -7  -7 323.937 117.823   3
   4   7   7 1784.60 1393.54  14
   4  -7  -7 3566.38 1736.95  12
   4   7  -7 677.786 615.810   7
   4  -7   7 2383.27 1063.56  11
  -4   7  -7 3402.88 1755.47  10
  -4  -7  -7 1733.83 572.578   3
   4   7   7 7404.22 3363.70   9
  -4   7   7 6359.07 4087.77   9
   4   7   7 4005.34 2241.33  15
  -4  -7   7 7801.42 3218.59   5
  -4  -7   7 4890.45 2202.46   8
   5   7   7-206.042 397.299  14
   5  -7  -7 1322.86 1081.89  12
   5   7  -7-1073.80 1498.25   7
   5  -7   7-284.370 537.543  11
  -5   7  -7 1817.05 1610.65  10
  -5  -7  -7 753.994 749.744   3
  -5   7   7 2367.98 3567.64   9
   5   7   7 1411.80 1451.61  15
  -5  -7   7 5192.46 3028.93   5
  -5  -7   7 1900.65 1613.24   8
   6   7   7 456.336 254.659  14
  -6   7   7-1202.31 1871.05   1
   6  -7  -7-18.7954 423.846  12
   6   7  -7-717.139 1307.65   7
   6  -7   7-401.645 897.898  11
  -6   7  -7 2220.01 1858.68  10
  -6  -7  -7 770.216 646.311   3
  -6   7   7 2483.03 2699.75   9
   6   7   7-373.381 886.432  15
  -6  -7   7 1630.48 1402.24   8
   7   7   7-8.61144 685.899  14
   7  -7  -7-81.8513 766.359  12
   7   7  -7 2847.99 1946.96   7
   7  -7   7-738.133 1210.71  11
   7   7  -7 1521.75 1419.48   6
  -7   7  -7 1271.43 1340.59  10
  -7  -7  -7 207.236 700.039   3
  -7   7   7-125.530 1114.91   1
  -7   7   7 4167.12 3000.34   9
   7   7   7 621.969 330.827  15
  -7  -7   7 2848.16 1609.09   8
  -8  -7  -7 9425.26 4725.25  13
   8  -7  -7-833.546 1273.11  12
   8   7  -7 2722.60 2377.52   7
   8   7  -7 2428.55 1482.87   6
  -8   7  -7 581.725 1568.96  10
  -8  -7  -7 340.268 147.003   3
  -8   7   7-1040.02 1767.17  10
  -8   7   7 1481.86 2459.14   9
   8   7   7 890.857 1521.67  15
  -8   7   7-1154.12 1889.61   1
  -8  -7   7 9863.32 4619.12   5
  -8  -7   7 803.781 680.306   8
   8   7   7 1225.41 1127.50  14
  -9  -7  -7 5416.72 3912.78  13
   9  -7  -7 155.029 788.285  12
   9   7  -7 2824.87 2439.21   7
  -9  -7  -7 781.344 994.858   3
  -9   7  -7 1511.94 1368.28  10
  -9   7   7-582.798 515.197   9
   9   7   7 816.521 1052.25  15
  -9   7   7-741.467 1928.14   1
  -9  -7   7 7951.33 4215.75   5
 -10  -7  -7 258.043 2190.12  13
  10  -7  -7-565.900 1044.95  12
  10   7  -7 2213.06 2125.36   7
 -10   7   7 2473.83 1704.42   1
  11  -7  -7 559.614 284.309  12
  11  -7   7 2033.78 1908.27  12
  11   7  -7 455.114 813.477   7
   0   7  -8 1174.86 1135.85   7
   0  -7   8 691.389 923.269  11
   0   7  -8 526.103 891.139  10
   0  -7  -8 488.169 387.496   3
   0   7   8-1091.02 1959.71  15
   0  -7   8-944.162 1377.81   5
   1   7  -8 129.586 410.323   7
  -1   7  -8-177.106 745.035   7
  -1  -7   8 2192.90 1543.41  11
   1  -7   8 405.187 736.698  11
  -1   7  -8 379.866 732.888  10
  -1  -7  -8 484.278 530.241   3
   1   7   8 5542.38 4039.87   9
  -1   7   8 4361.67 4054.14   9
   1   7   8-176.575 882.636  15
   1  -7  -8 991.935 939.142   3
  -1  -7   8-111.319 947.345   5
   1  -7   8 851.679 945.890   5
  -2  -7   8 1639.24 1744.76  11
   2   7  -8 756.356 754.943   7
  -2   7  -8-80.0498 751.240   7
   2  -7   8 1580.96 1612.34  11
  -2   7  -8 254.014 906.985  10
  -2  -7  -8 652.677 579.800   3
   2   7   8 5165.23 4166.37   9
  -2   7   8 4617.94 3823.97   9
   2   7   8-1088.28 1718.15  15
   2  -7  -8 143.351 508.738   3
  -2  -7   8-974.400 592.616   5
  -2  -7   8 3519.01 2335.10   8
   3   7  -8-228.096 780.712   7
  -3   7  -8-791.184 853.254   7
   3  -7   8 1606.63 1169.37  11
  -3   7  -8 1235.33 1040.03  10
  -3  -7  -8 1363.66 935.047   3
   3   7   8 2488.43 3134.98   9
  -3   7   8 3894.45 3521.79   9
   3   7   8 797.491 1049.33  15
   3  -7  -8 274.706 477.823   3
  -3  -7   8 3992.71 2307.40   5
  -3  -7   8 4900.58 2553.53   8
   4   7  -8 923.038 898.083   7
  -4   7  -8 1283.82 1085.15   7
   4  -7   8 2214.71 1420.59  11
  -4   7  -8 2504.85 1525.48  10
  -4  -7  -8 2388.66 1325.57   3
  -4   7   8 3823.35 3331.34   9
   4   7   8 2034.84 1620.21  15
  -4  -7   8 6355.60 3117.30   5
   4  -7  -8 1077.64 1136.37   3
  -4  -7   8 3188.81 2053.45   8
   5   7   8 541.603 445.771  14
   5  -7  -8-1365.22 1145.36   7
   5  -7  -8 1885.72 1525.81  12
   5   7  -8-865.440 1470.25   7
   5  -7   8 971.109 834.738  11
  -5   7  -8 601.414 328.275  10
  -5  -7  -8 498.986 247.807   3
  -5   7   8 1852.65 2884.80   9
   5   7   8 1405.33 2107.58  15
  -5  -7   8 4344.20 3024.07   5
  -5  -7   8 2876.63 1792.30   8
   6   7   8 650.260 784.621  14
   6  -7  -8-704.547 1232.63   7
   6  -7  -8 1925.31 1361.85  12
   6   7  -8-1021.75 1334.49   7
   6  -7   8-311.811 807.898  11
  -6   7  -8 136.986 822.999  10
  -6  -7  -8 917.536 863.528   3
  -6   7   8 1672.77 1902.68   9
   6   7   8-252.715 1080.89  15
  -6  -7   8 2711.90 2747.18   5
  -6  -7   8 1500.14 1384.16   8
  -7  -7  -8 5367.35 3708.53  13
   7  -7  -8 1300.75 980.452  12
   7   7  -8 2562.01 1530.25   7
   7  -7   8-261.385 1003.65  11
  -7  -7  -8 1078.97 795.096   3
   7   7   8 831.903 1446.63  15
  -7  -7   8 4767.49 3581.11   5
  -7  -7   8-513.926 972.871   8
   7  -7  -8-1225.73 1470.05   7
  -8   7   8 983.920 813.037   1
  -8  -7  -8 2908.54 2948.36  13
   8  -7  -8 1439.90 1250.83  12
   8   7  -8 1756.74 1765.53   7
   8  -7   8 350.694 454.912  11
  -8  -7   8-1128.79 1382.18   8
   8  -7  -8-1363.13 1429.08   7
   9  -7  -8 1410.15 973.232  12
   9  -7   8-710.376 1529.92  11
  -9   7   8-1049.98 2361.64   1
   9  -7  -8-430.615 876.887   7
   0   7  -9 607.130 53.2802   7
   0  -7   9 1487.03 1778.26  11
   0  -7  -9 802.555 1091.22   3
   0  -7   9 1201.42 1699.54   8
   1   7  -9 815.456 658.681   7
  -1   7  -9 385.769 583.010   7
   1  -7   9 1977.05 1326.98  11
  -1  -7  -9 1240.06 888.166   3
   1   7   9 4959.24 3606.18   9
  -1   7   9 3060.49 4117.60   9
   1   7   9-1994.91 2867.15  15
   1  -7  -9 1937.83 1272.59   3
  -1  -7   9-383.186 1003.33   5
  -1  -7   9 1921.40 1890.25   8
   1  -7   9 3410.91 2306.64   8
   2   7  -9-237.212 787.562   7
  -2   7  -9 485.006 867.443   7
   2  -7   9 552.404 764.812  11
  -2  -7  -9 130.667 596.875   3
   2   7   9 2876.54 3548.29   9
  -2   7   9 3033.65 3434.86   9
   2   7   9-986.254 1670.80  15
   2  -7  -9-237.811 477.030   3
  -2  -7   9 162.269 975.277   5
  -2  -7   9 1585.85 1616.03   8
   3   7  -9-1311.88 1463.93   7
  -3   7  -9-172.629 861.718   7
   3  -7   9 531.201 1095.27  11
  -3   7  -9 375.721 1069.54  10
  -3  -7  -9 136.024 367.750   3
  -3   7   9-527.327 2067.03   9
   3   7   9-225.555 1501.35  15
   3  -7  -9-188.359 817.564   3
  -3  -7   9 2580.84 2006.89   5
  -3  -7   9 1010.51 1342.85   8
   4  -7   9 741.738 1341.05  11
  -4  -7  -9-523.552 851.756   3
   4   7   9-901.440 1434.76  15
   4  -7  -9-382.556 918.822   3
  -4  -7   9 2792.06 2485.68   5
  -4  -7   9-310.159 546.500   8
   5  -7   9 632.489 1096.26  11
   5   7   9 207.201 1344.66  15
  -5  -7   9 3092.95 2840.17   5
  -5  -7   9-994.864 1105.58   8
  -6  -7  -9-166.332 675.356  13
   6  -7  -9 295.664 676.579   7
   6  -7   9-169.684 627.744  11
  -6  -7   9-1997.77 1494.32   8
   7  -7  -9 667.579 758.705   7
   7  -7   9 1155.24 1153.99  11
  -8  -7   9-2601.08 2181.43   8
   1  -7  10 2105.11 1972.30  11
   2  -7  10 2811.99 2045.90  11
   2   7  10 2178.12 2336.46   9
   2   7  10 1003.77 1607.52  15
   3  -7  10 1022.95 1288.17  11
   0  -8   0 80532.0 7018.23  12
   0  -8   0 75418.3 6010.74  11
   0   8   0 80966.4 7351.92   6
   0  -8   0 67090.5 5798.42   3
   0   8   0 76115.1 6867.17  10
   0   8   0 93066.0 6906.59  14
  -1  -8   0 369.090 728.053  12
   1  -8   0-647.037 1018.27  12
  -1  -8   0-316.569 697.071  11
   1  -8   0-891.575 1177.86  11
  -1   8   0 238.378 566.868   6
   1   8   0-1212.56 1546.11   6
   1   8   0-94.0478 841.671  10
  -1   8   0-722.533 1117.34  10
  -1  -8   0 350.017 117.624   3
   1  -8   0-304.298 644.407   3
   1   8   0 80.2916 551.958  14
  -1   8   0-294.587 495.822  14
  -2  -8   0 52753.8 5524.87  12
   2  -8   0 50485.6 5722.41  12
  -2  -8   0 49812.8 4891.39  11
  -2  -8   0 43509.9 4615.02   3
  -2   8   0 49172.0 5626.88   6
   2   8   0 47853.4 5729.21   6
   2   8   0 48704.2 5159.28  10
  -2   8   0 50925.6 6084.86  10
   2   8   0 57150.9 5692.06  14
   3  -8   0 3212.50 1819.81  12
  -3  -8   0 1238.32 966.005  11
  -3   8   0 1927.86 1274.15   6
   3   8   0-94.4057 552.884  10
  -3   8   0-8.28240 868.751  10
  -3  -8   0 1635.56 1054.01   3
   3   8   0 755.909 805.994  14
   4  -8   0 39992.5 5560.07  12
  -4  -8   0 38842.5 4401.04   3
  -4  -8   0 44077.0 4783.34  11
  -4   8   0 39924.2 5598.54  10
   4   8   0 49474.0 5619.51  14
  -5  -8   0 2991.01 1693.09   5
   5  -8   0 2280.32 1428.60  12
  -5  -8   0 1519.13 1169.73  11
  -5  -8   0 962.251 191.898   3
  -5   8   0 297.782 1265.14  10
   5   8   0 1256.11 972.193  14
   6  -8   0 70052.6 7983.26  12
  -6  -8   0 72204.9 6415.07   3
  -6   8   0 71746.5 8025.27  10
  -6  -8   0 75134.6 7280.60   5
  -6   8   0 82804.5 7790.23   1
   6   8   0 77838.5 7547.77  14
  -7   8   0 3152.11 2005.61   1
  -7  -8   0 2378.96 1597.77   5
   7  -8   0 1794.11 1528.89  12
  -7  -8   0 1198.93 1009.94   3
  -7   8   0-69.7073 1135.44  10
   7   8   0 2108.18 1401.05  14
   8  -8   0 56223.4 7667.07  12
  -8  -8   0 56593.9 6110.11   3
  -8   8   0 52657.9 7176.57  10
  -8   8   0 67907.7 7849.21   1
  -8  -8   0 58485.7 6683.44   5
   8   8   0 59616.1 7179.34  14
  -9  -8   0 2661.45 1689.72   5
   9  -8   0 364.664 1213.85  12
  -9  -8   0 1509.93 1341.94   3
  -9   8   0 1532.53 1722.89   1
  -9   8   0 137.163 310.254  10
   9   8   0 834.768 1238.20  14
  10  -8   0 41030.7 7069.78  12
 -10  -8   0 46939.8 6275.40   3
 -10   8   0 38778.2 6609.82  10
 -10   8   0 43626.0 7046.09   1
 -10  -8   0 44791.0 6132.49   5
  10   8   0 50355.8 6969.00  14
 -11  -8   0 1730.76 1551.26   5
  11  -8   0 87.9750 800.577  12
 -11   8   0 1097.35 1676.46   1
 -11   8   0 487.590 750.458  10
  11   8   0 1660.76 1475.60  14
  12  -8   0 37773.3 7245.24  12
 -12   8   0 46591.9 7472.65  10
 -12   8   0 46763.1 7834.19   1
 -12  -8   0 45775.2 6498.85   5
  12   8   0 53605.4 7603.12  14
 -13  -8   0 1599.23 1090.00   5
 -14  -8   0 20335.3 4442.27   5
   0  -8  -1 1543.78 911.870  12
   0  -8   1 473.279 187.317  12
   0  -8   1 1030.57 546.827  11
   0  -8  -1 98.6176 764.153  11
   0   8  -1 1615.44 561.932   6
   0   8   1 692.291 265.953   6
   0   8  -1 1219.58 1007.77  10
   0   8   1-357.060 1296.83  10
   0  -8   1 889.765 538.960   3
   0  -8  -1 129.301 416.540   3
   0   8   1 330.832 225.813  14
  -1  -8  -1 88193.1 7402.69  12
  -1  -8   1 88341.0 7126.44  12
   1  -8  -1 88325.5 7717.83  12
   1  -8   1 81082.2 7090.55  12
  -1  -8   1 83764.9 6535.19  11
  -1  -8  -1 81926.6 6176.20  11
   1  -8   1 79228.1 6373.82  11
  -1  -8   1 67245.0 5519.08   3
  -1   8  -1 90790.3 7743.40   6
  -1  -8  -1 76141.4 6381.53   3
  -1   8   1 86698.2 7470.65   6
   1   8  -1 86854.1 7803.84   6
   1   8   1 75919.6 7226.15   6
   1  -8   1 59495.5 5505.46   3
   1  -8  -1 77336.0 6727.16   3
   1   8  -1 84874.6 7069.18  10
  -1   8  -1 83792.2 7480.16  10
   1   8   1 81729.3 7151.77  10
  -1   8   1 85728.4 7955.48  10
   1   8  -1 98731.1 6909.47  14
   1   8   1 96939.5 7779.39  14
  -1   8   1 99272.4 7604.95  14
  -2   8   1 397.215 186.030  14
  -2  -8  -1 1997.47 1351.23  12
  -2  -8   1 780.927 523.581  12
   2  -8  -1 475.209 871.009  12
   2  -8   1 910.615 536.477  12
  -2  -8   1 1212.58 909.642  11
  -2  -8  -1 876.766 339.821  11
  -2   8  -1 1296.92 917.971   6
  -2   8   1 416.235 636.838   6
   2   8  -1 397.233 775.003   6
   2   8  -1 1758.42 1202.47  10
  -2   8  -1 383.744 481.284  10
   2   8   1-133.812 684.583  10
  -2   8   1-989.651 1776.89  10
  -2  -8   1 517.978 550.282   3
  -2  -8  -1 502.688 347.730   3
   2   8  -1 1567.04 1034.21  14
   2   8   1 472.981 527.444  14
   3  -8  -1 40792.8 5436.57  12
   3  -8   1 41452.4 5430.96  12
  -3  -8   1 33072.0 3908.47   3
  -3  -8   1 42353.0 4849.05  11
  -3  -8  -1 39333.0 4309.32  11
  -3  -8  -1 31188.0 4197.50   3
  -3   8  -1 38666.5 5245.63   6
  -3   8   1 37814.4 4795.32   6
   3   8  -1 38258.5 5277.88   6
   3   8  -1 37117.8 4272.00  10
  -3   8  -1 39651.0 5446.84  10
   3   8   1 37708.2 4420.88  10
  -3   8   1 36242.8 5461.04  10
  -3   8   1 41641.7 4794.04   1
  -3  -8   1 43659.8 5333.76   5
   3   8  -1 42141.1 4945.63  14
   3   8   1 43714.3 5383.55  14
  -4   8   1 2747.41 1510.04   1
  -4  -8   1 5429.52 2056.78   5
   4  -8  -1 4764.37 2143.64  12
   4  -8   1 3894.19 1760.94  12
  -4  -8   1 3137.61 1513.26  11
  -4  -8  -1 3168.74 1263.89  11
  -4   8   1 2846.08 1551.40   6
  -4   8  -1 2575.39 1446.68  10
  -4  -8   1 2801.50 1183.61   3
  -4   8   1 139.784 1521.32  10
  -4  -8  -1 3235.70 1256.04   3
   4   8  -1 3828.50 1598.78  14
   4   8   1 2442.86 1162.22  14
   5  -8  -1 55843.1 6814.06  12
   5  -8   1 59053.5 6895.38  12
  -5  -8   1 48052.0 4975.36   3
  -5  -8  -1 53492.1 5492.43   3
  -5  -8  -1 59960.1 5486.75  11
  -5  -8   1 57741.0 5866.34  11
  -5   8  -1 60611.7 7122.71  10
  -5   8   1 53374.8 7013.74  10
  -5   8   1 62362.5 6441.16   1
  -5  -8   1 56966.0 6354.34   5
   5   8  -1 58330.9 6278.24  14
   5   8   1 64313.1 6858.51  14
  -6  -8   1 3234.49 1722.42   5
   6  -8  -1 2314.60 1688.40  12
   6  -8   1 2997.96 1746.94  12
  -6   8   1 2383.31 1630.09   1
  -6  -8   1 2103.75 1203.51   3
  -6  -8  -1 3084.00 1511.43   3
  -6   8  -1 756.916 619.800  10
  -6   8   1-94.7216 1632.37  10
   6   8  -1 1950.36 1396.75  14
   6   8   1 3957.08 1937.73  14
   7  -8  -1 62438.4 7746.89  12
   7  -8   1 64321.7 7897.72  12
  -7  -8   1 60140.0 5886.52   3
  -7  -8  -1 62020.2 6251.25   3
  -7   8  -1 58499.5 7298.39  10
  -7   8   1 60909.5 7884.26  10
  -7   8   1 71241.0 7728.39   1
  -7  -8   1 63996.2 7074.59   5
   7   8  -1 66924.4 7214.90  14
   7   8   1 69849.5 7576.88  14
  -8   8   1 1030.30 1181.73   1
   8  -8  -1 149.470 354.463  12
   8  -8   1 637.153 372.533  12
  -8  -8   1 146.675 708.138   3
  -8  -8  -1 323.960 765.050   3
  -8   8  -1 74.4020 984.226  10
  -8   8   1-1419.28 1890.28  10
   8   8  -1 711.414 819.528  14
   8   8   1 202.255 874.008  14
  -8  -8   1 775.567 1128.68   5
   9  -8  -1 31591.1 5994.53  12
   9  -8   1 28826.8 5584.42  12
  -9  -8   1 28511.5 4866.07   3
  -9  -8  -1 30936.0 4803.49   3
  -9   8  -1 33469.9 5867.68  10
  -9   8   1 28822.9 5661.90  10
  -9   8   1 34458.3 6045.44   1
  -9  -8   1 32781.7 5379.97   5
  -9  -8  -1 33412.8 4979.88   5
   9   8  -1 34885.7 5547.61  14
   9   8   1 35708.5 5820.78  14
 -10  -8  -1 2230.88 1559.19   5
  10  -8  -1 125.025 1360.45  12
  10  -8   1-2052.32 2292.12  12
 -10  -8  -1 314.260 777.857   3
 -10   8  -1 198.022 621.261  10
 -10   8   1-369.767 1412.72  10
  10   8  -1 1086.43 1059.20  14
  10   8   1 210.329 1016.79  14
 -10  -8   1 864.658 1189.22   5
 -10   8   1-129.870 1017.71   1
  11  -8  -1 36611.2 6791.20  12
  11  -8   1 28671.1 6156.60  12
 -11   8  -1 34502.7 6167.73  10
 -11   8   1 32230.1 6157.63  10
 -11   8   1 34656.6 6509.09   1
 -11  -8   1 36345.2 5854.83   5
 -11  -8  -1 36499.3 5463.10   5
  11   8  -1 35663.3 5884.46  14
  11   8   1 37542.2 6260.11  14
 -12  -8  -1 2775.34 1755.21   5
 -12   8   1 1848.34 1913.18   1
  12  -8  -1 76.5613 970.482  12
  12  -8   1-2309.53 2827.05  12
 -12   8  -1 1257.81 1382.46  10
 -12   8   1-361.648 1646.93  10
  12   8  -1-190.076 1002.30  14
  12   8   1 3311.39 2127.31  14
 -12  -8   1 332.540 560.868   5
 -13  -8   1 30328.2 5599.66   5
 -13  -8  -1 31642.2 5237.91   5
 -14  -8  -1 1210.60 1189.96   5
   0  -8  -2 88644.3 7713.01  12
   0  -8   2 83211.3 6947.82  12
   0  -8   2 87166.0 6934.28  11
   0  -8  -2 77119.3 5904.63  11
   0   8  -2 91074.5 7921.61   6
   0  -8   2 62776.7 5168.66   3
   0  -8  -2 79576.1 6939.46   3
   0   8   2 77552.1 7154.32   6
   0   8  -2 84544.1 7331.59  10
   0   8   2 83641.5 8146.10  10
   0   8   2 99816.4 8331.52  14
   1   8   2 1760.32 921.127  14
  -1   8   2 2324.42 1183.97  14
  -1  -8  -2 2403.15 1469.14  12
  -1  -8   2 1310.27 791.208  12
   1  -8  -2 2179.13 1074.93  12
   1  -8   2 364.978 735.184  12
  -1  -8   2 3226.54 1267.31  11
  -1  -8  -2 1516.63 533.991  11
   1  -8   2 846.885 696.459  11
  -1   8  -2 2757.69 1458.51   6
   1   8  -2 2065.32 1140.34   6
  -1   8   2 1027.95 326.569   6
   1   8  -2 1181.42 915.710  10
  -1   8  -2 3166.27 1704.10  10
   1   8   2 3669.88 2090.36  10
  -1   8   2 4040.73 2190.64  10
  -1  -8   2 1796.95 825.817   3
  -1  -8  -2 2040.61 1011.52   3
   1  -8   2 998.519 507.702   3
   1  -8  -2 1277.38 871.957   3
  -2  -8   2 64713.5 5963.08  12
   2  -8  -2 69849.7 7166.86  12
   2  -8   2 63611.7 6420.79  12
  -2  -8   2 67204.0 6164.54  11
  -2  -8  -2 64497.3 5280.36  11
  -2  -8   2 53474.9 4678.44   3
   2  -8   2 59003.6 5698.75  11
  -2   8  -2 64780.4 6672.82   6
  -2  -8  -2 60789.5 5894.96   3
  -2   8   2 60794.2 6316.27   6
   2   8  -2 69687.3 7162.27   6
   2   8  -2 62837.6 5923.81  10
  -2   8  -2 66670.1 7069.55  10
   2   8   2 63025.3 6499.16  10
  -2   8   2 64842.6 7825.29  10
  -2  -8   2 68578.4 6743.88   5
   2   8   2 67579.5 6878.33  14
  -3  -8   2 2567.90 1628.71   5
   3  -8  -2 116.658 843.677  12
   3  -8   2 875.608 1078.13  12
  -3  -8   2 1607.83 1294.06  11
  -3  -8  -2 959.455 916.453  11
  -3   8   2 493.377 715.022   6
   3   8  -2 373.748 595.133   6
   3   8  -2 971.482 808.879  10
  -3   8  -2 2243.38 1697.40  10
  -3  -8   2 930.908 524.796   3
   3   8   2 457.608 267.362  10
  -3   8   2 2154.89 1916.81  10
  -3  -8  -2 391.448 740.728   3
   3   8  -2 1336.17 945.973  14
   3   8   2 253.129 188.720  14
   4  -8  -2 55519.7 6699.26  12
   4  -8   2 58075.7 6627.29  12
  -4  -8   2 47614.2 4594.90   3
  -4  -8   2 57036.2 5933.05  11
  -4  -8  -2 61047.7 5251.76  11
  -4  -8  -2 57853.0 5771.46   3
  -4   8   2 46585.8 5446.75   6
   4   8  -2 56280.2 6611.12   6
  -4   8  -2 55425.6 6954.75  10
  -4   8   2 53737.8 6008.71   1
  -4   8   2 58120.7 7636.28  10
  -4  -8   2 57985.7 6495.62   5
   4   8  -2 55739.0 5784.68  14
   4   8   2 63679.2 6979.46  14
  -5  -8   2 1905.05 1506.55   5
   5  -8  -2 2447.48 1925.31  12
   5  -8   2 1232.27 1237.83  12
  -5  -8  -2 1166.58 958.726  11
  -5  -8   2 1408.51 1174.23  11
  -5   8   2 1001.90 1131.40   1
   5   8  -2-900.255 1688.37   6
  -5   8  -2 1105.86 1083.61  10
  -5  -8  -2 1096.08 1004.10   3
  -5   8   2 1618.85 1869.24  10
   5   8  -2 954.313 1075.04  14
   5   8   2 278.182 560.084  14
   6  -8  -2 59334.2 7254.99  12
   6  -8   2 58578.5 7265.97  12
  -6  -8  -2 60869.4 6134.94   3
  -6   8   2 55942.9 6792.47   1
  -6   8  -2 57136.5 7217.13  10
  -6   8   2 62279.2 8330.00  10
  -6  -8   2 59419.1 6949.69   5
   6   8  -2 58536.7 6399.72  14
   6   8   2 64116.3 7277.61  14
   7  -8  -2 2070.43 1595.71  12
   7  -8   2 788.514 864.512  12
  -7   8   2 757.771 674.921   1
  -7  -8  -2 1063.34 969.801   3
  -7   8  -2 808.939 711.686  10
  -7   8   2 2550.03 2136.38  10
   7   8  -2 1560.43 1147.19  14
   7   8   2 2232.94 1498.18  14
  -7  -8   2 1583.31 1229.48   5
   8  -8  -2 28014.9 5409.83  12
   8  -8   2 24992.8 5064.59  12
  -8  -8  -2 26808.5 4345.06   3
  -8   8   2 26418.9 5255.35   1
  -8   8  -2 26374.4 5166.30  10
  -8   8   2 29904.0 6149.25  10
  -8  -8   2 28176.4 5103.16   5
   8   8  -2 28954.0 4880.69  14
   8   8   2 28490.0 5105.21  14
   9  -8  -2 1537.34 1492.12  12
   9  -8   2-795.380 1952.87  12
  -9   8   2 90.9874 426.298   1
  -9  -8  -2 351.373 727.650   3
  -9   8  -2 65.2077 373.731  10
  -9   8   2 1020.14 1088.49  10
   9   8  -2 258.931 422.221  14
  -9  -8   2 1089.62 1195.46   5
   9   8   2 284.261 765.749  14
  10  -8  -2 20112.5 4823.27  12
 -10  -8  -2 20514.0 4329.65   3
  10  -8   2 12904.3 3966.40  12
 -10   8   2 19762.5 5022.15   1
 -10   8  -2 21509.7 4821.06  10
 -10   8   2 17256.7 4641.02  10
 -10  -8   2 20818.5 4487.55   5
  10   8  -2 18434.3 4265.12  14
  10   8   2 22345.3 4882.78  14
  11  -8  -2 1018.91 1368.53  12
  11  -8   2-2098.92 1309.77  12
 -11  -8  -2 452.894 605.446   3
 -11   8   2-214.231 1257.00   1
 -11   8  -2 633.085 1475.04  10
 -11   8   2-2583.08 2364.49  10
  11   8  -2 1628.20 1525.79  14
  11   8   2 2009.14 1682.43  14
 -11  -8   2 871.667 542.573   5
 -12   8   2 39578.0 7327.16   1
 -12  -8   2 26978.8 5512.83   5
  12   8  -2 33975.6 6050.61  14
  12   8   2 40210.6 6821.58  14
   0  -8   3 4523.47 1881.19   5
   0  -8  -3 2970.46 1401.18  12
   0  -8   3 1623.79 560.708  12
   0  -8   3 1839.86 1141.03  11
   0  -8  -3 1664.14 372.434  11
   0   8  -3 4027.40 1700.91   6
   0   8  -3 2665.00 1367.79  10
   0   8   3 3124.80 2031.88  10
   0  -8  -3 1202.36 703.709   3
  -1  -8  -3 63289.9 6587.32  12
   1  -8  -3 63816.9 6723.42  12
  -1  -8   3 57358.1 5549.15  12
   1  -8   3 52801.0 5509.95  12
  -1  -8   3 62426.6 6131.86  11
  -1  -8  -3 57903.0 4913.90  11
   1  -8   3 56609.0 5766.18  11
  -1   8  -3 66001.2 6856.15   6
   1   8  -3 64388.0 6814.74   6
  -1  -8  -3 56897.5 5923.87   3
  -1   8   3 55411.5 5914.67   6
   1  -8  -3 58947.8 6344.87   3
   1   8  -3 56538.4 5991.04  10
  -1   8  -3 60972.6 6455.99  10
   1   8   3 58797.6 7096.74  10
  -1   8   3 58141.9 7443.37  10
  -1  -8   3 64846.5 6557.52   5
   1   8   3 62050.0 7060.97  14
   2   8   3 2951.55 1321.07  14
  -2  -8   3 5007.92 2008.22   5
  -2  -8   3 3091.72 1215.47  12
   2  -8  -3 3549.17 1576.43  12
   2  -8   3 3464.81 1788.02  12
  -2  -8   3 3613.02 1708.33  11
  -2  -8  -3 3047.53 888.601  11
   2  -8   3 1460.34 368.263  11
   2   8  -3 2972.85 1503.03   6
  -2   8   3 1888.40 404.044   6
   2   8  -3 2954.15 1275.02  10
  -2   8  -3 1271.17 716.060  10
   2   8   3 3990.68 1952.89  10
  -2   8   3 4284.17 2412.84  10
  -2  -8  -3 3794.14 1517.22   3
   3  -8  -3 44731.0 5907.85  12
   3  -8   3 45989.2 5595.76  12
  -3  -8   3 49850.6 5726.86  11
  -3  -8  -3 44170.7 4305.53  11
   3  -8   3 39719.4 4890.87  11
  -3  -8  -3 42980.6 5181.85   3
  -3   8   3 43904.5 5026.94   6
   3   8  -3 45808.5 5962.23   6
   3   8  -3 41563.8 4760.06  10
  -3   8  -3 41473.3 5647.28  10
   3   8   3 45105.7 5610.76  10
  -3   8   3 41458.9 6720.05  10
  -3  -8   3 45096.6 5706.81   5
   3   8   3 45304.8 6048.90  14
  -4   8   3 376.083 207.707   1
   4  -8  -3-896.640 1091.95  12
   4  -8   3 1366.21 1127.63  12
  -4  -8  -3 497.939 486.469  11
  -4  -8   3 1948.53 1580.36  11
   4   8  -3 2000.31 1431.19   7
  -4   8   3 1153.94 1039.49   6
   4   8  -3 295.918 819.648   6
  -4   8  -3-325.468 1113.23  10
  -4   8   3 1995.35 2091.72  10
  -4  -8  -3 1019.04 1033.40   3
  -4  -8   3 1234.09 1082.87   5
   4   8   3-132.878 1014.71  14
   5   8  -3 55343.1 5890.95   7
   5  -8  -3 58796.2 7133.93  12
   5  -8   3 60605.8 7045.77  12
  -5   8   3 48334.0 6493.51   1
  -5  -8  -3 58268.0 6047.47   3
  -5  -8   3 60220.8 6494.41  11
   5   8  -3 64640.4 7284.65   6
  -5   8  -3 58301.2 7034.99  10
  -5   8   3 56474.5 8163.62  10
  -5  -8   3 59710.9 7007.33   5
   5   8   3 68140.6 7609.29  14
   6  -8  -3 4303.79 2376.71  12
   6  -8   3 2481.63 1641.41  12
   6   8  -3 1607.90 1166.31   7
   6   8  -3 1404.33 114.315   6
  -6   8  -3-364.109 211.353  10
  -6  -8  -3 526.558 482.519   3
  -6   8   3 2789.50 1962.74  10
  -6   8   3 618.224 750.389   1
   6   8  -3 2676.15 1447.19  14
  -6  -8   3 1611.09 1375.76   5
   6   8   3 1100.27 1147.33  14
   7  -8  -3 62410.7 7677.51  12
   7  -8   3 52682.0 7133.74  12
  -7  -8  -3 52981.8 6092.35   3
  -7   8   3 47167.8 6878.45   1
   7   8  -3 53675.5 6750.69   6
  -7   8  -3 47685.2 6830.70  10
  -7   8   3 54540.9 8330.09  10
  -7  -8   3 52746.6 7018.25   5
   7   8  -3 57091.9 6473.82  14
   7   8   3 56071.4 7199.53  14
   8  -8  -3 4001.64 2483.55  12
   8  -8   3 466.755 1261.04  12
  -8  -8  -3 1308.57 1040.35   3
  -8   8  -3 881.356 1212.02  10
  -8   8   3 4237.75 2737.28  10
   8   8  -3 1464.64 855.501  14
  -8  -8   3 1642.72 1098.57   5
  -8   8   3 720.677 152.077   1
   8   8   3 1109.69 1052.07  14
   9  -8  -3 26011.9 5302.08  12
   9  -8   3 17673.2 4252.74  12
  -9  -8  -3 21293.7 4216.22   3
  -9   8   3 19984.8 5074.17   1
  -9   8  -3 21352.9 4613.62  10
  -9   8   3 24102.9 5777.56  10
  -9  -8   3 22859.5 4862.81   5
   9   8  -3 26148.7 4720.95  14
   9   8   3 25407.1 5048.87  14
 -10   8   3 528.689 806.225   1
  10  -8  -3 1093.19 1164.09  12
  10  -8   3-1575.66 1104.41  12
 -10  -8  -3 987.080 1035.79   3
 -10   8  -3-819.669 1456.88  10
 -10   8   3 3028.01 2327.49  10
  10   8  -3 1681.84 1521.39  14
 -10  -8   3-485.204 1284.73   5
  10   8   3 1035.69 1076.33  14
  11  -8  -3 30939.3 5921.10  12
  11  -8   3 31322.8 6813.82  12
 -11  -8  -3 28855.6 5495.26   3
 -11   8   3 30139.0 6495.40   1
 -11   8  -3 30070.2 5659.64  10
 -11   8   3 33194.7 6946.61  10
 -11  -8   3 23688.5 5284.39   5
  11   8  -3 30539.1 5638.63  14
  11   8   3 37294.3 6392.50  14
 -12   8   3 455.012 1022.62   1
  12   8  -3 1242.93 1346.76  14
   0  -8  -4 48141.9 5853.95  12
   0  -8   4 38322.6 4466.34  12
   0  -8   4 47603.0 5492.01  11
   0  -8  -4 41846.6 4037.84  11
   0  -8  -4 44505.9 5427.10   3
   0   8  -4 43513.0 5392.70  10
   0   8   4 40775.9 6580.56  10
   0  -8   4 50769.1 5800.51   5
  -1  -8   4 3074.41 1639.47   5
   1  -8   4 3398.59 1926.60   5
   1  -8  -4 1256.07 1029.76  12
  -1  -8   4 1580.96 978.205  12
   1  -8   4 685.193 592.226  12
  -1  -8   4 3339.31 1861.45  11
   1  -8   4 1426.38 621.400  11
   1   8  -4 2789.37 1638.46   6
  -1   8   4 1620.31 618.365   6
   1   8  -4 2774.95 1732.51  10
  -1   8  -4 1740.29 1221.79  10
   1   8   4 1368.58 1153.61  10
  -1   8   4 995.889 1040.71  10
  -1  -8  -4 1927.57 1142.77   3
   1  -8  -4 2066.04 1149.75   3
   2   8  -4 41129.0 5466.63   7
   2  -8  -4 40848.4 5611.79  12
   2  -8   4 37763.2 4856.06  12
  -2  -8   4 43933.4 5422.17  11
   2  -8   4 37177.2 4857.77  11
  -2  -8  -4 36439.8 4917.03   3
   2   8  -4 43506.9 5763.61   6
  -2   8   4 35483.9 4609.65   6
   2   8  -4 39895.8 5029.75  10
   2  -8  -4 40183.5 5426.31   3
  -2   8  -4 43744.6 5596.58  10
   2   8   4 38297.7 5815.37  10
  -2   8   4 38458.7 6517.68  10
  -2  -8   4 47789.6 5971.03   5
   2   8   4 41449.0 6012.56  14
   3   8   4 192.303 614.968  14
   3  -8  -4 480.491 657.733  12
   3  -8   4 1179.87 1164.51  12
   3   8  -4 2526.70 1493.80   7
  -3  -8   4 1190.74 1566.82  11
   3  -8   4-841.518 1332.65  11
   3   8  -4 181.061 346.225   6
  -3   8   4 62.4736 321.340   6
   3   8  -4 1970.72 1365.39  10
  -3   8  -4 436.025 117.843  10
   3   8   4 1488.47 1409.53  10
  -3   8   4 1450.34 1470.85  10
  -3  -8  -4 1436.44 1127.03   3
  -3  -8   4 496.416 886.653   5
   4   8  -4 43334.8 5687.37   7
   4  -8  -4 49339.2 6301.59  12
   4  -8   4 43264.0 5574.25  12
  -4  -8   4 44512.8 5696.79  11
  -4  -8  -4 44351.3 5457.83   3
   4  -8   4 42669.5 5209.18  11
  -4   8   4 39491.1 4637.53   6
   4   8  -4 49432.9 6123.15   6
  -4   8  -4 48027.2 6192.33  10
  -4   8   4 39448.2 7011.71  10
  -4  -8   4 46777.0 6227.20   5
   4   8   4 51132.0 6816.41  14
   5  -8  -4-155.543 901.856  12
   5  -8   4 2007.02 1225.86  12
  -5  -8   4 2778.27 1826.45  11
   5   8  -4 2465.88 1552.07   7
   5   8  -4 1124.36 900.614   6
  -5   8   4 1998.37 1467.53   1
  -5   8  -4 326.541 739.361  10
  -5  -8  -4 959.457 911.836   3
  -5   8   4 1441.33 948.654  10
  -5  -8   4 2445.02 1614.47   5
   5   8   4 530.111 219.203  14
   6   8  -4 48835.4 6013.73   7
   6  -8  -4 51335.0 6695.01  12
   6  -8   4 51442.9 6761.51  12
  -6   8   4 49455.0 6992.55   1
  -6  -8  -4 54841.2 6169.37   3
   6   8  -4 56690.6 6816.51   6
  -6   8  -4 56632.2 7181.92  10
  -6   8   4 50331.7 8061.20  10
  -6  -8   4 55267.8 7259.95   5
   6   8   4 61015.1 7525.28  14
   7  -8  -4 2415.60 1891.74  12
   7  -8   4-335.923 1107.63  12
   7   8  -4 2075.76 1581.98   7
   7   8  -4 577.914 853.836   6
  -7   8   4-855.352 981.945   1
  -7   8  -4 478.126 351.394  10
  -7  -8  -4 887.463 823.761   3
  -7   8   4 1790.34 1891.10  10
  -7  -8   4-450.248 1248.77   5
   7   8   4 807.094 809.665  14
   8  -8  -4 53230.4 7243.89  12
   8  -8   4 36839.9 6218.13  12
  -8   8   4 43900.6 7310.08   1
  -8  -8  -4 47383.2 5953.83   3
   8   8  -4 51844.5 6788.99   6
  -8   8  -4 44680.9 6558.65  10
  -8   8   4 44884.6 7848.35  10
  -8  -8   4 45372.8 7027.24   5
   8   8  -4 52583.9 6434.63  14
   8   8   4 47116.2 6855.13  14
   9  -8  -4 2204.67 1723.45  12
   9  -8   4-2565.74 2711.89  12
   9   8  -4-798.262 1278.86   6
  -9  -8  -4 484.909 859.153   3
  -9   8  -4 563.443 382.768  10
  -9   8   4-1125.53 1755.00   1
  -9   8   4 1286.84 1507.58  10
   9   8  -4 845.387 991.806  14
  -9  -8   4-2418.18 2270.04   5
   9   8   4-657.389 952.805  14
  10  -8  -4 40691.3 6596.65  12
  10  -8   4 37333.5 7094.12  12
 -10  -8  -4 42906.2 6118.08   3
 -10   8   4 35179.3 7107.24   1
  10   8  -4 35595.2 5830.10   6
 -10   8  -4 40286.9 6629.75  10
 -10   8   4 38422.7 7456.33  10
 -10  -8   4 30334.7 5931.65   5
  10   8  -4 40316.3 6247.60  14
  10   8   4 49444.5 7333.67  14
  11  -8  -4 2000.64 1984.69  12
  11   8  -4-1765.30 1874.08   6
 -11   8   4-906.971 1492.04   1
  11   8  -4 2071.75 1669.65  14
  12   8  -4 36395.8 6445.37  14
   0  -8   5 9.14709 242.789   5
   0   8  -5 1705.18 1460.88   7
   0  -8   5 993.527 827.346  11
   0   8  -5 1415.66 1497.25  10
   0   8   5-756.393 1573.87  10
   0  -8  -5-290.470 786.841   3
   1   8  -5 54931.9 6627.82   7
   1  -8  -5 59943.3 6707.29  12
  -1  -8   5 65235.1 6756.39  11
   1  -8   5 54403.2 6091.70  11
  -1  -8  -5 57013.2 6343.10   3
   1  -8  -5 55416.7 6400.19   3
  -1   8   5 48705.9 5563.20   6
   1   8  -5 52846.3 6270.40  10
  -1   8  -5 60449.1 6701.06  10
  -1   8   5 47230.9 7860.72  10
   1   8   5 48128.9 7340.61  10
  -1  -8   5 63522.7 6920.58   5
   1  -8   5 58992.2 6274.67   5
   2   8   5 270.157 990.543  14
   2  -8  -5 1260.15 791.965  12
   2   8  -5 1293.06 1389.99   7
  -2  -8   5 1757.39 1523.61  11
   2   8  -5 2814.02 1796.37   6
   2  -8   5 151.605 84.7521  11
  -2   8   5-1097.65 1239.39   6
   2   8  -5 1378.74 1328.54  10
  -2   8  -5 1929.16 1799.58  10
  -2   8   5 423.430 640.944  10
   2   8   5-888.778 1292.79  10
  -2  -8  -5 270.812 329.636   3
   2  -8  -5-451.631 1215.13   3
  -2  -8   5 588.212 987.559   5
   3   8  -5 38750.3 5646.65   7
   3  -8  -5 44498.7 5869.89  12
   3  -8   5 36626.1 4833.40  12
  -3  -8   5 42340.8 5570.26  11
   3  -8   5 40733.0 5262.52  11
  -3  -8  -5 39708.1 5324.23   3
   3   8  -5 46675.7 6038.71   6
   3   8  -5 36329.2 4897.69  10
  -3   8  -5 41812.3 5784.36  10
  -3   8   5 35430.1 7116.18  10
  -3  -8   5 41686.3 5914.68   5
   3   8   5 46026.4 6821.94  14
   4   8   5 2084.30 1101.99  14
   4  -8  -5 3863.04 1765.81  12
   4  -8   5 4176.62 1902.60  12
   4   8  -5 3056.95 1711.00   7
  -4  -8   5 4192.10 2241.27  11
   4  -8   5 2333.10 246.191  11
   4   8  -5 2640.75 1301.92   6
  -4   8  -5 4291.55 1960.28  10
  -4  -8  -5 3953.30 1828.07   3
  -4   8   5 2957.43 2117.96  10
  -4  -8   5 2899.57 1575.34   5
   5   8  -5 35645.4 5562.66   7
   5  -8  -5 39140.7 5722.06  12
   5  -8   5 39253.8 5469.17  12
  -5  -8  -5 41060.7 5376.56   3
   5  -8   5 38941.2 5035.21  11
   5   8  -5 40562.5 5756.61   6
  -5   8  -5 44607.7 6205.40  10
  -5   8   5 38359.8 7411.68  10
  -5  -8   5 37948.6 5995.66   5
   5   8   5 44347.0 6552.03  14
   6  -8  -5 873.547 767.787  12
   6  -8   5 1889.02 1007.62  12
  -6   8   5 3102.11 2425.14   1
   6   8  -5 2462.70 1491.87   7
   6   8  -5 157.270 773.887   6
  -6   8  -5 1642.15 1325.74  10
  -6  -8  -5 1599.99 1234.22   3
  -6   8   5 2211.46 1951.04  10
  -6  -8   5 286.111 564.666   5
   6   8   5 1264.60 723.920  14
   7   8  -5 35014.2 5701.64   7
   7  -8  -5 40582.3 5916.71  12
   7  -8   5 33541.9 5533.92  12
  -7   8   5 43474.8 7387.65   1
  -7  -8  -5 42380.7 5635.97   3
   7   8  -5 43835.5 5978.16   6
  -7   8  -5 39676.5 6080.98  10
  -7   8   5 36538.9 7398.46  10
  -7  -8   5 38711.0 6536.45   5
   7   8   5 44645.1 6970.12  14
   8  -8  -5-6.69619 1115.84  12
   8  -8   5-1323.46 1652.36  12
  -8   8   5 852.354 1224.17   1
   8   8  -5-1489.36 1368.25   7
   8   8  -5-6.26519 494.954   6
  -8  -8  -5 1710.53 1295.23   3
  -8   8  -5 1650.64 1548.92  10
  -8   8   5 526.704 1192.98  10
  -8  -8   5-2357.69 2630.73   5
   8   8   5 684.514 1039.99  14
   9  -8  -5 33771.3 5864.76  12
   9  -8   5 24905.2 5763.48  12
  -9   8   5 29353.6 6732.69   1
  -9  -8  -5 35568.4 5516.38   3
   9   8  -5 37043.3 5646.26   6
  -9   8  -5 31846.2 5906.92  10
  -9   8   5 27759.3 6627.50  10
  -9  -8   5 25465.2 5607.69   5
   9   8   5 35312.1 6288.92  14
  10  -8  -5 2319.97 2037.15  12
 -10   8   5 2564.45 2500.72   1
  10   8  -5-941.811 1535.01   6
 -11   8   5 26287.9 6394.93   1
  11   8  -5 23361.9 4799.97   6
   0   8  -6 53330.2 6913.23   7
   0  -8   6 66586.2 7116.40  11
   0  -8  -6 53890.9 6391.64   3
   0   8  -6 59533.0 6778.50  10
   0   8   6 42877.1 7965.60  10
   0  -8   6 62302.7 6931.07   5
   1  -8   6 1128.77 1068.44   5
   1   8  -6 1558.53 1494.07   7
  -1  -8   6 1462.52 1461.64  11
  -1   8  -6 1778.76 1550.27   7
   1  -8   6 330.046 650.148  11
   1   8  -6 1213.55 1391.89  10
  -1   8  -6 2148.34 1634.37  10
  -1   8   6-1853.97 2887.73  10
  -1  -8  -6 648.076 815.679   3
   1  -8  -6-494.857 659.009   3
  -1  -8   6 1972.21 1482.95   5
   2   8  -6 57337.0 7422.50   7
   2  -8  -6 59240.6 6995.98  12
  -2  -8   6 57885.2 6794.34  11
   2  -8   6 54255.7 6363.53  11
  -2  -8  -6 52418.2 6243.95   3
   2   8  -6 52240.0 6169.05  10
   2  -8  -6 54864.0 6869.42   3
  -2   8  -6 59475.5 6977.52  10
  -2   8   6 42604.8 8062.65  10
  -2  -8   6 57878.1 7221.96   5
   2  -8   6 58252.0 6358.63   5
   2   8   6 56239.5 8697.97  15
   3   8   6-611.387 1138.76  14
   3  -8  -6 316.005 902.613  12
   3   8  -6 844.129 1415.27   7
  -3  -8   6 1657.90 1657.42  11
   3  -8   6-67.5994 612.596  11
   3   8  -6 1002.48 858.893  10
  -3   8  -6 1572.40 1240.99  10
  -3   8   6-2543.55 2592.30  10
  -3  -8  -6 1601.34 1272.13   3
   3   8   6 1977.80 2085.01  15
   3  -8  -6-612.500 1161.62   3
  -3  -8   6 174.332 351.383   5
   4   8  -6 36129.1 5897.77   7
   4  -8  -6 43949.0 5950.83  12
  -4  -8   6 42613.2 6094.66  11
  -4  -8  -6 41530.6 5613.72   3
   4  -8   6 40784.3 5447.42  11
   4   8  -6 40901.2 5875.02   6
  -4   8  -6 42441.9 6353.14  10
  -4   8   6 29967.9 7120.72  10
  -4  -8   6 35516.2 5917.86   5
   4   8   6 45516.4 8229.12  15
   4   8   6 44699.0 7131.09  14
   5   8   6 287.748 641.195  14
   5  -8  -6 2038.95 1360.46  12
   5   8  -6 1751.10 1392.41   7
   5  -8   6-415.557 1317.57  11
   5   8  -6 1318.15 1402.14   6
  -5   8  -6 2270.60 1732.26  10
  -5  -8  -6 327.277 568.646   3
  -5   8   6 577.625 1014.92  10
   5   8   6 1455.04 1764.65  15
  -5  -8   6-342.031 1258.56   5
   6   8  -6 21283.2 4813.81   7
   6  -8  -6 25909.6 4730.83  12
  -6  -8  -6 27843.2 4609.54   3
   6  -8   6 25250.7 4274.42  11
   6   8  -6 29970.6 5133.12   6
  -6   8  -6 30018.2 5391.33  10
  -6  -8   6 24619.4 5257.30   5
  -6   8   6 21796.8 6086.25  10
   6   8   6 32295.2 6102.06  14
  -7   8   6 1147.32 1945.85   1
   7  -8  -6-320.188 852.878  12
   7   8  -6-246.622 76.2882   7
   7  -8   6 109.107 1221.68  11
   7   8  -6 1428.79 1242.80   6
  -7   8  -6 2147.57 1971.90  10
  -7  -8  -6 868.954 1092.01   3
  -7   8   6 400.029 160.933  10
  -7  -8   6-3138.21 2582.65   5
  -7  -8   6 4209.36 2217.95   8
   7   8   6-25.4999 747.205  14
   8   8  -6 16107.3 4240.96   7
   8  -8  -6 26951.3 5050.99  12
  -8   8   6 21642.9 5645.16   1
   8  -8   6 19459.9 4336.64  12
   8   8  -6 28352.6 5034.34   6
  -8   8  -6 28123.5 5425.38  10
  -8  -8   6 24502.4 5760.91   5
   8   8   6 29873.9 5930.43  14
  -9   8   6 1203.49 1672.05   1
   9  -8  -6-1331.98 1423.61  12
   9  -8   6-1299.66 1374.35  12
   9   8  -6 307.652 192.047   6
  10  -8   6 26222.3 6086.45  12
 -10   8   6 20656.3 5893.02   1
  10   8  -6 22727.7 4565.42   6
   0   8  -7 877.376 941.406   7
   0  -8   7 1891.77 1957.25  11
   0   8  -7 1361.25 1280.28  10
   0  -8  -7 27.1041 646.740   3
   0  -8   7 576.684 843.537   5
   1   8  -7 33631.0 5932.91   7
  -1   8  -7 28399.9 5406.27   7
  -1  -8   7 38530.1 5709.88  11
   1  -8   7 32829.5 5253.21  11
  -1  -8  -7 31884.1 5039.72   3
   1  -8  -7 32073.9 5202.64   3
   1   8  -7 32897.2 5238.15  10
  -1   8  -7 29874.6 5263.47  10
  -1  -8   7 35568.4 5698.10   5
   1  -8   7 35339.3 5276.43   5
   2  -8   7 2445.98 1662.44   5
   2   8  -7 1725.65 1851.03   7
  -2  -8   7 2589.53 1788.08  11
  -2   8  -7 3000.37 1880.07   7
   2  -8   7 1204.66 1220.42  11
   2   8  -7 2513.20 1789.64  10
  -2   8  -7 2449.54 1696.39  10
  -2  -8  -7 2302.86 1503.20   3
   2   8   7 2617.73 2587.83  15
   2  -8  -7 827.330 1101.83   3
  -2  -8   7 2632.01 1551.76   5
   3   8  -7 40083.3 6569.25   7
  -3  -8   7 42431.4 6231.63  11
   3  -8   7 40919.3 5801.71  11
  -3  -8  -7 39816.2 5718.88   3
  -3   8  -7 39717.7 6069.85  10
   3  -8  -7 41595.1 6201.09   3
  -3  -8   7 41496.8 6453.29   5
   3   8   7 37498.2 7749.11  15
   3   8   7 41433.6 7305.95  14
   4   8   7-77.5684 1021.64  14
   4  -8  -7 790.605 1414.71  12
   4   8  -7 2039.14 1648.93   7
   4  -8   7 815.241 1015.71  11
  -4   8  -7 1434.95 1566.38  10
  -4  -8  -7 150.720 276.948   3
  -4   8   7-3593.03 3316.43  10
   4   8   7 1474.06 1818.77  15
   4  -8  -7 112.387 143.412   3
  -4  -8   7-997.935 1647.07   5
   5   8  -7 30528.1 5900.59   7
   5  -8  -7 32830.6 5497.71  12
  -5  -8  -7 34168.1 5253.55   3
   5  -8   7 37031.3 5441.97  11
  -5   8  -7 35829.6 5974.69  10
  -5  -8   7 27459.5 5672.30   5
  -5   8   7 25459.7 6569.04  10
   5   8   7 44614.0 8600.00  15
  -5  -8   7 34064.7 5710.35   8
   5   8   7 38424.6 6972.35  14
   6  -8  -7 999.126 1241.19  12
   6   8  -7-90.3163 573.677   7
   6  -8   7-580.094 806.187  11
  -6   8  -7 4199.95 2382.75  10
   6   8   7 2362.22 2157.49  15
  -6  -8   7-2457.80 1647.29   5
  -6  -8   7 3355.47 2051.47   8
  -7  -8  -7 44010.6 8661.04  13
   7  -8  -7 24149.0 4934.27  12
   7   8  -7 17543.3 4596.38   7
   7  -8   7 25075.4 4538.05  11
   7   8  -7 27377.7 4947.73   6
   7   8   7 32303.0 7440.02  15
  -7  -8   7 26818.0 5099.49   8
   8  -8  -7 1722.13 1240.36  12
   8   8  -7-848.117 1559.71   7
   8   8  -7 3229.65 2069.76   6
  -9   8   7 22819.8 6638.46   1
   0   8  -8 17157.9 4410.77   7
   0  -8   8 16274.6 3899.33  11
   0  -8  -8 15795.6 3762.97   3
   0   8  -8 13714.6 3863.52  10
   0  -8   8 18405.6 3889.50   5
   0   8   8 30891.5 8078.50   9
   1   8  -8 1510.81 1641.83   7
  -1  -8   8 1775.48 1767.13  11
  -1   8  -8 777.401 850.004   7
   1  -8   8 781.913 952.609  11
  -1   8  -8 1424.18 1670.24  10
  -1  -8  -8 376.453 720.645   3
   1  -8  -8 1381.21 1393.02   3
  -1  -8   8 1501.63 998.153   5
   2   8  -8 27084.6 5563.13   7
  -2  -8   8 32992.8 5647.80  11
   2  -8   8 27756.3 4760.51  11
  -2   8  -8 25041.3 5107.30  10
  -2  -8   8 30300.7 5478.30   5
  -2   8   8 38262.6 9507.07   9
   3   8  -8 305.820 882.206   7
   3  -8   8 1498.29 1495.58  11
  -3   8  -8 1726.22 1562.03  10
   3   8   8 3678.56 3102.33  15
  -3  -8   8 1284.16 1257.31   5
  -3  -8   8 3362.55 2341.19   8
   4  -8   8 37175.0 5691.26  11
  -4  -8   8 31783.8 6185.38   5
   4   8   8 43054.0 8962.67  15
  -4  -8   8 38855.5 6397.64   8
   5   8   8 2493.12 2698.01  15
  -5  -8   8 2036.28 2126.80   8
  -6  -8  -8 35671.0 7752.00  13
  -6  -8   8 27763.0 5231.93   8
  -7  -8   8 483.789 583.743   8
   7  -8  -8-861.684 1324.62   7
   0  -9   0 508.730 936.162  12
   0  -9   0-52.1217 683.194  11
   0   9   0 24.8554 618.495   6
   0   9   0-464.557 993.177  10
   0  -9   0-129.605 484.147   3
  -1  -9   0 4352.43 1847.42  12
   1  -9   0 2349.07 1481.77  12
  -1  -9   0 2058.21 814.782  11
   1  -9   0 1004.21 645.720  11
  -1   9   0 1758.56 1256.96   6
   1   9   0 478.659 765.104   6
   1   9   0 2018.51 992.891  10
  -1   9   0 1186.30 875.560  10
  -1  -9   0 1407.53 1015.52   3
   1  -9   0 438.941 335.235   3
   2  -9   0 1598.32 639.006  12
  -2  -9   0 2447.76 1259.17  11
   2  -9   0 315.173 949.663  11
  -2   9   0 1917.98 1371.55   6
   2   9   0 83.1898 1046.92   6
  -2   9   0 2060.72 1027.74  10
  -2  -9   0 2082.02 1247.87   3
   2  -9   0 1180.34 751.111   3
   3  -9   0-903.294 1282.72  12
  -3  -9   0 657.348 1118.39  11
  -3   9   0 1871.32 1507.21   6
   3   9   0-515.688 1789.28   6
  -3   9   0-995.457 1159.14  10
  -3  -9   0 67.8058 342.527   3
   3   9   0 294.102 532.555  14
   4  -9   0 1901.32 1368.96  12
  -4  -9   0 762.361 773.045  11
  -4   9   0-623.737 1201.25  10
  -4  -9   0 154.573 479.605   3
   4   9   0 396.488 570.290  14
   5  -9   0 3134.55 2209.44  12
  -5  -9   0 2512.54 1394.06  11
  -5  -9   0 1156.30 897.175   3
  -5   9   0 1736.77 1485.18  10
   5   9   0 1014.43 810.868  14
   6  -9   0 2701.23 1959.83  12
  -6  -9   0 778.127 541.434   3
  -6   9   0 2108.56 1531.63  10
   6   9   0 1115.98 1039.73  14
   7  -9   0 1183.80 1438.09  12
  -7  -9   0-112.222 246.653   3
  -7   9   0 57.1838 830.528  10
   7   9   0 257.208 1009.69  14
   8  -9   0 1530.42 1564.61  12
  -8  -9   0 1596.74 1061.63   3
  -8   9   0 2676.74 1562.57  10
   8   9   0 1435.03 1276.57  14
  -9  -9   0 2512.99 1952.12   5
   9  -9   0 979.457 1467.63  12
  -9  -9   0 905.711 861.530   3
  -9   9   0 1267.09 1225.46  10
   9   9   0-1283.23 1296.09  14
 -10  -9   0 158.079 656.590   3
  10   9   0 443.027 313.757  14
 -11  -9   0 3769.36 2365.78   5
  11   9   0 1545.44 1624.72  14
   0  -9  -1 3666.37 1742.74  12
   0  -9   1 2736.68 1225.64  12
   0  -9   1 2830.08 1077.43  11
   0  -9  -1 2714.66 1036.53  11
   0   9  -1 3244.09 1582.83   6
   0   9   1 2775.79 1628.29   6
   0   9  -1 3391.20 1834.35  10
   0   9   1 1721.28 902.542  10
   0  -9   1 1857.52 944.394   3
   0  -9  -1 2545.84 1398.94   3
  -1  -9  -1 1941.07 1552.29  12
  -1  -9   1 1532.88 1149.94  12
   1  -9  -1 577.433 434.731  12
   1  -9   1-297.319 610.462  12
  -1  -9   1 653.593 591.814  11
  -1  -9  -1 902.370 777.726  11
   1  -9   1-119.787 655.193  11
   1  -9  -1-106.807 1030.70  11
  -1   9  -1 1492.22 1318.58   6
  -1   9   1 240.644 498.324   6
   1   9  -1 1294.75 961.926   6
   1   9   1-1056.30 1399.75   6
   1   9  -1 1366.51 1354.30  10
  -1   9  -1 1609.49 1503.64  10
   1   9   1 80.9138 230.082  10
  -1   9   1 85.1550 1028.50  10
  -1  -9   1 898.641 819.281   3
  -1  -9  -1 571.097 450.986   3
   1  -9   1-222.009 469.671   3
   1  -9  -1 144.970 176.499   3
   1   9   1 1076.24 850.348  14
  -2  -9   1 3557.45 1720.20  12
   2  -9  -1 1265.69 799.763  12
   2  -9   1 462.268 478.923  12
  -2  -9   1 2152.75 1263.71  11
  -2  -9  -1 3396.14 1350.49  11
   2  -9   1 2195.21 179.558  11
  -2   9  -1 3143.19 2082.40   6
  -2   9   1 2259.86 1385.12   6
   2   9  -1 1606.75 1189.93   6
   2   9   1 2087.38 1109.75   6
  -2   9  -1 3044.79 1592.67  10
  -2   9   1 303.663 1230.46  10
  -2  -9   1 2138.07 1108.01   3
  -2  -9  -1 1798.11 1087.43   3
   2  -9   1 664.373 371.781   3
   2  -9  -1 1412.58 797.323   3
   2   9   1 3142.62 1528.86  14
   3  -9  -1-1010.58 1295.63  12
   3  -9   1-909.602 777.045  12
  -3  -9   1 821.354 1185.85  11
  -3  -9  -1 788.872 1049.79  11
  -3   9   1 1573.70 1232.21   6
   3   9  -1-922.416 1374.93   6
  -3   9  -1 1449.62 1669.28  10
  -3   9   1-864.937 1655.03  10
  -3  -9   1-473.377 746.921   3
  -3  -9  -1 752.739 711.421   3
   3   9   1 412.600 612.101  14
   4  -9  -1-481.218 1231.49  12
   4  -9   1 2040.00 1649.92  12
  -4  -9   1 1185.27 1248.86  11
  -4  -9  -1 905.263 1013.90  11
   4   9  -1-55.6974 1007.92   6
  -4   9  -1 1295.67 1149.56  10
  -4  -9   1 528.490 577.805   3
  -4   9   1 538.929 525.752  10
  -4  -9  -1-237.589 691.133   3
   4   9   1 724.969 798.802  14
  -5  -9   1 3138.72 1853.87   5
   5  -9  -1 2931.29 2046.27  12
   5  -9   1 2323.65 1756.53  12
  -5  -9  -1 2071.27 1427.43  11
  -5  -9   1 1683.42 1468.54  11
   5   9  -1-391.150 1257.19   6
  -5   9  -1 636.968 275.955  10
  -5  -9  -1 302.817 618.644   3
  -5   9   1-164.849 1289.62  10
   5   9  -1 2021.92 1200.45  14
   5   9   1 626.910 1073.17  14
  -6  -9   1 2711.79 1880.19   5
   6  -9  -1 1775.51 1591.02  12
   6  -9   1 2894.14 1947.43  12
  -6  -9  -1 412.766 652.133   3
  -6   9  -1-490.960 1017.92  10
  -6   9   1-1301.23 1761.58  10
   6   9  -1 672.755 845.673  14
   6   9   1 119.739 196.221  14
  -7  -9   1 2889.21 1899.01   5
   7  -9  -1 2595.55 1767.98  12
   7  -9   1 1239.32 1377.19  12
  -7  -9  -1 107.714 261.769   3
  -7   9  -1 348.030 998.751  10
  -7   9   1 702.634 166.613  10
  -7   9   1 2357.36 1947.06   1
   7   9  -1 491.369 446.917  14
   7   9   1-85.2445 840.363  14
  -8  -9   1 3154.11 1833.44   5
   8  -9  -1 2747.45 2121.44  12
   8  -9   1 1179.28 1336.21  12
  -8   9   1 2908.37 2470.11   1
  -8  -9  -1 1264.59 1014.00   3
  -8   9  -1 1277.32 1214.83  10
  -8   9   1 727.243 645.672  10
   8   9  -1 1154.58 1138.80  14
   8   9   1 2326.88 1490.31  14
  -9  -9   1 3207.94 2059.42   5
  -9   9   1 3776.68 2434.77   1
   9  -9  -1 879.787 1114.85  12
   9  -9   1-1220.68 1076.60  12
  -9  -9  -1 577.364 690.030   3
  -9   9  -1 4070.32 2536.87  10
  -9   9   1 524.642 541.397  10
   9   9  -1 250.951 419.723  14
   9   9   1 115.352 949.561  14
 -10  -9   1 3545.22 2122.43   5
 -10   9   1 2487.36 2308.94   1
 -10  -9  -1 1584.07 1447.85   3
  10   9  -1 664.386 102.768  14
  10   9   1 1810.52 1427.94  14
 -11   9   1 2037.43 1657.39   1
 -11  -9  -1 983.433 1474.96   3
  11   9  -1-228.873 695.031  14
   0   9   2 338.629 514.375  14
   0  -9  -2 1141.86 1195.65  12
   0  -9   2 255.186 341.644  12
   0  -9   2 102.984 132.129  11
   0  -9  -2-321.989 926.212  11
   0   9  -2 404.991 427.676   6
   0   9   2-691.857 1456.68   6
   0   9  -2-549.032 1145.24  10
   0   9   2-1329.06 1952.66  10
   0  -9  -2-529.484 719.070   3
  -1   9   2 47.2074 514.208  14
  -1  -9  -2 2268.69 1673.32  12
  -1  -9   2 864.605 712.714  12
   1  -9  -2 1039.97 1056.51  12
   1  -9   2 341.843 256.569  12
  -1  -9   2 1331.77 1208.05  11
  -1  -9  -2 636.029 567.445  11
   1  -9   2-88.5436 388.531  11
   1  -9  -2-381.057 1164.39  11
  -1   9  -2 1268.41 1433.03   6
   1   9  -2 1240.29 845.986   6
  -1   9   2 166.436 859.059   6
   1   9   2-1418.83 1838.06   6
   1   9  -2 209.349 620.278  10
  -1   9  -2 239.536 585.378  10
   1   9   2-366.996 1329.01  10
  -1   9   2-1079.24 1714.89  10
  -1  -9  -2 607.446 765.223   3
   1  -9  -2 222.429 173.553   3
   1   9   2 567.092 897.264  14
  -2  -9   2 930.197 1067.86  12
   2  -9  -2 235.122 443.538  12
   2  -9   2-1062.55 1296.90  12
  -2  -9   2 987.581 1266.88  11
  -2  -9  -2 1260.44 1118.10  11
   2  -9   2-939.363 1125.29  11
  -2   9   2 590.261 786.271   6
   2   9  -2-245.943 809.814   6
  -2   9  -2 1220.35 854.595  10
  -2   9   2-1948.14 1919.64  10
  -2  -9  -2 679.613 772.559   3
   2  -9  -2-843.289 978.879   3
   2   9   2 787.124 800.481  14
  -3  -9   2 2253.52 1595.00   5
   3  -9  -2 1532.30 628.418  12
   3  -9   2 1140.63 706.659  12
  -3  -9   2 1696.44 1503.66  11
  -3  -9  -2 1070.07 1000.35  11
   3  -9   2-679.743 1093.21  11
  -3   9   2 162.602 975.739   6
   3   9  -2-527.049 978.388   6
  -3   9  -2 2503.22 1886.18  10
  -3   9   2-920.575 922.909  10
  -3  -9  -2 366.234 684.245   3
   3   9   2 536.236 391.849  14
  -4  -9   2 5685.81 2387.75   5
   4  -9  -2 1256.20 386.728  12
   4  -9   2 4169.36 2122.76  12
  -4  -9   2 3221.61 1577.64  11
  -4  -9  -2 2520.86 1274.98  11
  -4   9   2 3464.80 1854.28   6
   4   9  -2 1050.29 634.782   6
  -4   9  -2 4150.44 2251.13  10
  -4   9   2 791.053 133.612  10
  -4  -9  -2 910.057 443.667   3
   4   9   2 2369.59 1353.66  14
  -5  -9   2 2842.39 1893.18   5
   5  -9  -2 393.021 967.640  12
   5  -9   2 975.736 1196.18  12
  -5  -9  -2 2211.01 1380.40  11
  -5  -9   2 1937.10 1540.64  11
   5   9  -2-1104.76 1639.46   6
  -5   9  -2 2846.58 1878.81  10
  -5  -9  -2 663.250 114.849   3
  -5   9   2-775.189 881.422  10
   5   9   2 2652.67 1741.89  14
  -6  -9   2 4182.22 2099.13   5
   6  -9  -2 3823.52 2472.68  12
   6  -9   2 2432.05 1775.30  12
   6   9  -2 623.753 1197.61   6
  -6  -9  -2 1113.65 856.157   3
  -6   9  -2 1765.81 1667.37  10
  -6   9   2-582.275 1499.88  10
   6   9   2 1668.54 753.121  14
  -7  -9   2 2141.06 1744.55   5
   7  -9  -2 1085.73 1473.39  12
   7  -9   2 1479.68 1506.64  12
   7   9  -2-2853.71 2410.06   6
  -7  -9  -2 1196.49 972.444   3
  -7   9  -2 2597.78 1869.41  10
  -7   9   2-2064.70 2472.44  10
   7   9   2 822.149 837.853  14
  -8  -9   2 1135.38 1306.83   5
  -8   9   2 522.600 1317.93   1
   8  -9  -2 1293.59 1738.99  12
   8  -9   2-104.472 1404.92  12
  -8  -9  -2 541.195 946.519   3
  -8   9  -2 1708.55 1781.11  10
  -8   9   2-642.137 1616.99  10
   8   9  -2-914.504 1218.22  14
   8   9   2 1190.35 1416.04  14
  -9  -9   2 1072.00 1526.10   5
   9  -9  -2 1430.43 1445.57  12
   9  -9   2-1300.37 1973.11  12
  -9  -9  -2 409.741 519.500   3
  -9   9  -2-156.315 456.235  10
  -9   9   2-2050.36 1809.28  10
   9   9  -2-982.187 1191.57  14
   9   9   2-1188.42 1007.25  14
  -9   9   2 455.579 1285.20   1
 -10   9   2 395.450 1353.80   1
 -10  -9  -2 886.816 1368.32   3
  10   9  -2-749.188 1563.55  14
  10   9   2 1131.35 1231.57  14
 -11   9   2 1506.16 1360.51   1
  11   9  -2 1031.12 401.968  14
   0   9   3 120.094 407.695  14
   0  -9  -3 1355.41 1385.69  12
   0  -9   3-16.1909 355.404  12
   0  -9   3 1163.06 1018.91  11
   0  -9  -3 87.7594 323.848  11
   0   9  -3 1761.78 1420.44   6
   0   9   3-810.119 1375.67   6
   0   9  -3 64.0129 720.692  10
   0   9   3 1694.24 1937.14  10
   1   9   3 593.723 267.828  14
  -1   9   3 537.733 675.450  14
  -1  -9   3 607.413 712.347  12
   1  -9  -3 1429.25 1278.10  12
   1  -9   3 456.089 555.918  12
  -1  -9   3 245.298 829.353  11
  -1  -9  -3-211.450 356.068  11
   1  -9   3 481.063 767.670  11
   1  -9  -3-278.180 980.829  11
   1   9  -3 995.886 1286.64   6
  -1   9   3-762.901 1102.89   6
   1   9   3 333.927 1037.95   6
   1   9  -3-253.305 737.760  10
  -1   9  -3-37.2881 806.206  10
   1   9   3 1606.43 1605.57  10
  -1   9   3 966.570 1502.80  10
  -1  -9  -3 248.689 254.087   3
   1  -9  -3-929.417 1109.52   3
  -2  -9   3 3509.67 1792.58   5
  -2  -9   3 2536.95 1419.78  12
   2  -9  -3 1551.32 1108.77  12
   2  -9   3 327.691 623.345  12
  -2  -9   3 2887.12 1869.37  11
   2  -9   3 413.445 888.435  11
   2   9  -3 3205.63 1858.84   6
  -2   9   3 1498.95 1213.99   6
  -2   9  -3-90.3063 1336.93  10
  -2   9   3 3433.02 2232.98  10
  -2  -9  -3 1388.62 1084.57   3
   2  -9  -3 203.342 570.426   3
   2   9   3 1497.83 1144.61  14
  -3  -9   3 1505.50 1488.76   5
   3  -9  -3 592.018 894.071  12
   3  -9   3 1953.20 1327.79  12
  -3  -9   3 2110.88 1710.71  11
   3  -9   3 138.518 1243.08  11
  -3   9   3 1169.57 747.662   6
   3   9  -3 420.209 463.464   6
  -3   9  -3-697.828 1258.75  10
  -3   9   3 1510.87 1614.57  10
  -3  -9  -3 1440.50 1132.29   3
   3   9   3 1602.43 1311.54  14
  -4  -9   3 2201.52 1618.63   5
   4  -9  -3-1161.43 1413.09  12
   4  -9   3 1818.19 1278.18  12
  -4  -9   3 2513.23 1599.02  11
   4  -9   3-316.074 1342.55  11
  -4   9   3 865.527 999.041   6
   4   9  -3-237.600 1408.37   6
  -4   9  -3-1159.69 1799.10  10
  -4   9   3 1643.29 1997.88  10
  -4  -9  -3 516.046 343.645   3
   4   9   3 1401.14 1154.80  14
  -5  -9   3 2401.94 1786.67   5
   5  -9  -3-485.956 1260.71  12
   5  -9   3 1524.04 1370.06  12
  -5  -9   3 2375.24 1633.38  11
   5   9  -3 529.539 454.674   6
  -5   9  -3-136.218 1147.08  10
  -5  -9  -3-567.397 1068.22   3
  -5   9   3 2592.91 2607.82  10
   5   9   3 813.786 899.812  14
  -6  -9   3 3017.66 1750.80   5
   6  -9  -3-768.012 1483.54  12
   6  -9   3 1357.60 1442.80  12
   6   9  -3-105.695 1119.34   6
  -6   9  -3-788.795 1814.46  10
  -6  -9  -3 1076.99 858.377   3
  -6   9   3 4565.78 2829.21  10
   6   9   3 956.453 1009.63  14
   7  -9  -3 2179.26 1899.63  12
   7  -9   3-117.081 594.645  12
   7   9  -3 411.715 647.980   6
  -7  -9  -3 180.459 373.067   3
  -7   9  -3-1498.23 2062.07  10
  -7   9   3 2647.33 2559.75  10
   7   9   3 462.678 904.979  14
  -7  -9   3 461.034 529.508   5
   8  -9  -3 1866.63 1429.85  12
   8  -9   3 835.334 880.994  12
   8   9  -3-399.537 1709.08   6
  -8  -9  -3 1111.88 1040.63   3
  -8   9  -3-1360.28 1908.53  10
  -8   9   3 2200.49 2063.13  10
   8   9   3 2424.24 1423.04  14
  -8  -9   3 1032.20 859.721   5
   9  -9   3-2494.07 2399.18  12
  -9   9   3 639.006 1532.72   1
   9   9  -3-1301.09 1664.18   6
  -9  -9  -3 209.708 463.995   3
   9   9   3 356.212 625.753  14
 -10   9   3 901.453 1239.08   1
 -11   9   3 846.234 1051.09   1
  11   9  -3 809.861 1084.90  14
   0   9   4 1453.55 1089.97  14
   0  -9   4 2430.83 1351.36  11
   0   9   4 1091.66 780.511   6
   0   9  -4 1291.54 1216.57  10
   0   9   4 2493.39 1874.40  10
   0  -9  -4 2100.37 1395.03   3
   1   9   4-1204.60 1429.64  14
  -1  -9   4 1406.01 1426.65   5
   1  -9  -4 1456.07 1448.20  12
  -1  -9   4 1718.58 1694.39  11
   1   9  -4 2793.77 1877.48   6
   1  -9   4 829.511 849.860  11
  -1   9   4-627.736 337.754   6
   1   9  -4 1596.85 1424.33  10
  -1   9  -4 415.125 780.213  10
   1   9   4 1363.05 1650.17  10
  -1   9   4 884.146 1466.03  10
  -1  -9  -4 298.554 556.634   3
   1  -9  -4-550.778 892.414   3
   2   9   4 1281.36 1072.00  14
  -2  -9   4 2696.13 1682.44   5
   2  -9  -4 2466.38 1790.88  12
   2  -9   4 81.7465 895.550  12
  -2  -9   4 2544.82 1887.39  11
   2  -9   4 2127.85 1388.71  11
   2   9  -4 2260.65 1556.95   6
  -2   9   4 1384.73 769.466   6
  -2   9  -4 1653.11 1184.34  10
  -2   9   4 1528.09 1865.05  10
  -2  -9  -4 1222.59 911.264   3
   2  -9  -4-25.3916 525.140   3
  -3  -9   4 1226.06 1312.51   5
   3  -9  -4-27.6384 361.584  12
   3  -9   4 1174.38 1238.85  12
  -3  -9   4 1733.88 1508.09  11
   3  -9   4-471.072 1010.10  11
   3   9  -4 1324.11 1124.79   6
  -3   9  -4-128.733 681.900  10
  -3   9   4 547.322 1628.23  10
  -3  -9  -4 241.294 810.997   3
   3  -9  -4-690.995 1042.39   3
   3   9   4 735.119 639.697  14
  -4  -9   4 2820.72 1884.54   5
   4  -9  -4 2280.88 1577.33  12
   4  -9   4 2989.34 1671.87  12
  -4  -9   4 3725.17 2029.29  11
   4  -9   4 1321.48 449.615  11
   4   9  -4 2431.14 1925.59   6
  -4   9  -4 693.394 610.992  10
  -4   9   4 2955.02 2458.20  10
  -4  -9  -4 348.180 662.066   3
   4   9   4 793.987 889.160  14
   5  -9  -4-39.8035 237.939  12
   5  -9   4 1769.78 1559.97  12
  -5  -9   4 1626.43 1842.74  11
   5   9  -4 1748.73 1574.67   7
   5  -9   4-797.548 1516.87  11
   5   9  -4 504.002 1107.66   6
  -5   9  -4-633.020 1259.00  10
  -5  -9  -4 57.0506 756.578   3
  -5   9   4 784.685 1491.63  10
   5   9   4 821.128 1309.45  14
  -5  -9   4 1138.95 1421.82   5
   6  -9  -4 1586.02 1355.07  12
   6  -9   4 2185.36 1642.11  12
   6   9  -4 2079.92 1394.73   6
  -6   9  -4 1431.84 494.965  10
  -6  -9  -4 1697.26 993.653   3
  -6   9   4 2090.20 2106.02  10
  -6  -9   4 2333.91 1653.74   5
   6   9   4 948.614 1060.95  14
   7  -9  -4-122.305 407.783  12
   7  -9   4 19.9873 702.663  12
   7   9  -4-1201.36 1404.80   6
  -7   9  -4-1136.44 1631.98  10
  -7  -9  -4-67.9470 329.603   3
  -7   9   4 3044.91 2248.03  10
  -7  -9   4 256.568 1085.10   5
   7   9   4 98.4539 371.482  14
   8  -9   4-572.534 1044.05  12
   8   9  -4-218.453 1551.67   6
  -8  -9  -4 428.749 284.657   3
   8   9   4 994.039 705.572  14
   9  -9   4-2918.15 2773.26  12
 -10   9   4-1053.95 1872.16   1
   0  -9   5 7010.70 2510.84   5
   0  -9   5 6026.46 2260.92  11
   0   9   5 1657.50 835.796   6
   0   9  -5 5381.08 2529.02  10
   0   9   5 3385.64 1595.25  10
   0  -9  -5 4748.62 1911.01   3
   1   9   5 306.371 945.822  14
  -1  -9   5 588.979 1086.52   5
  -1  -9   5 2253.66 1538.07  11
   1  -9   5 126.640 753.593  11
   1   9  -5 1293.78 1330.02  10
  -1   9  -5 977.973 1720.82  10
   1   9   5 588.081 1091.30  10
  -1   9   5-608.335 650.599  10
  -1  -9  -5 371.286 776.045   3
   1  -9  -5-730.567 884.211   3
   2   9   5 1197.12 1094.41  14
  -2  -9   5 1856.82 1505.54   5
   2  -9  -5 2347.75 1778.15  12
  -2  -9   5 2088.14 1797.66  11
   2  -9   5 783.145 1029.99  11
  -2   9  -5-165.217 926.003  10
  -2   9   5 449.507 1179.98  10
  -2  -9  -5 577.605 681.623   3
   2  -9  -5-150.556 645.803   3
  -3  -9   5 1930.49 1549.71   5
   3   9   5 656.263 705.297  14
   3  -9  -5 2463.06 1622.63  12
  -3  -9   5 2207.89 1283.77  11
   3   9  -5 3751.81 2075.90   7
   3  -9   5 776.150 582.531  11
   3   9  -5 2621.80 1865.80   6
  -3   9  -5 2234.25 1603.32  10
  -3   9   5 551.602 884.998  10
  -3  -9  -5 2251.33 1613.83   3
   3  -9  -5-332.326 847.284   3
   4  -9  -5 255.120 814.835  12
  -4  -9   5 1744.00 1260.30  11
   4   9  -5 1441.93 1513.18   7
   4  -9   5-1493.14 1316.25  11
   4   9  -5-5.31817 434.132   6
  -4   9  -5 963.327 1310.58  10
  -4  -9  -5-573.786 898.196   3
  -4   9   5-842.057 726.083  10
  -4  -9   5 1091.58 1283.34   5
   4   9   5 0.44715 345.415  14
   5  -9  -5-303.248 1136.02  12
   5   9  -5 2327.56 1760.41   7
   5  -9   5-1566.76 1410.88  11
   5   9  -5 887.670 1354.49   6
  -5   9  -5-554.783 1124.70  10
  -5  -9  -5-820.166 1188.07   3
  -5   9   5 1004.23 1417.16  10
  -5  -9   5 416.537 907.353   5
   5   9   5-837.917 1154.31  14
   6  -9  -5-872.569 399.275  12
   6  -9   5 544.336 681.281  12
   6   9  -5 1885.06 1455.70   7
   6   9  -5 967.309 1065.71   6
  -6   9  -5 303.070 456.684  10
  -6  -9  -5 288.829 386.393   3
  -6   9   5-198.414 234.182  10
  -6  -9   5-226.114 1135.90   5
   6   9   5 125.512 812.411  14
   7  -9   5 353.654 815.861  12
   7   9  -5-162.721 291.178   6
   8  -9   5 219.886 491.641  12
   0  -9   6 3308.04 1991.29   5
   0  -9   6 2284.88 1772.35  11
   0   9  -6-5.85467 603.700  10
   0   9   6-558.450 2156.00  10
   0  -9  -6 754.899 877.370   3
  -1  -9   6 1684.12 1495.70   5
  -1  -9   6 1249.00 1268.29  11
   1   9  -6 1847.45 1770.66   7
   1  -9   6 1202.99 1302.17  11
   1   9  -6 594.523 294.570  10
  -1   9  -6 209.533 278.439  10
  -1   9   6-811.719 2186.47  10
  -1  -9  -6-357.334 302.397   3
   1  -9  -6 286.116 432.165   3
  -2  -9   6 946.468 1401.54   5
   2   9   6 1283.22 1017.09  14
  -2  -9   6 2389.76 1604.26  11
   2   9  -6 3845.82 2235.60   7
   2  -9   6 1668.52 1545.68  11
  -2   9  -6 1581.60 1277.55  10
  -2   9   6-1299.57 2307.47  10
  -2  -9  -6 1402.87 1144.36   3
   2  -9  -6 1343.53 1033.96   3
   3   9   6 770.336 240.530  14
   3  -9  -6 1353.48 1562.99  12
   3   9  -6 2674.79 1947.75   7
   3  -9   6 453.762 780.048  11
  -3   9  -6 1231.20 1223.47  10
  -3   9   6-1554.28 2494.90  10
  -3  -9  -6 1298.33 1323.72   3
   3  -9  -6-679.597 1419.18   3
  -3  -9   6 1459.05 1286.98   5
   4   9   6 1364.15 1260.96  14
   4  -9  -6 1996.12 1465.07  12
   4   9  -6 1486.37 1325.92   7
  -4   9  -6 1814.29 1643.67  10
  -4   9   6-52.2830 844.217  10
  -4  -9   6 1012.96 1237.10   5
   5   9  -6 2287.41 1863.14   7
   5   9  -6 3801.94 2461.62   6
   6   9  -6 2953.47 1903.32   7
   0  -9   7 1486.93 1297.02   5
   0   9  -7 1607.40 1198.98  10
  -1  -9   7 239.579 1144.69   5
   1  -9   7 732.437 963.736   5
   1   9  -7-233.676 1148.98  10
  -1   9  -7 78.3752 300.484  10
  -2   9  -7 845.376 362.457  10
  -2  -9   7 2062.84 1795.41   5
  -5  -9   7 4574.53 2488.50   8
  -6  -9   7 3481.16 2168.24   8
   0 -10   0 53501.8 6561.91  12
   0 -10   0 51961.3 5782.52  11
   0 -10   0 35086.8 4816.99   3
   0  10   0 52890.2 6878.47   6
   0  10   0 50581.4 6624.61  10
  -1 -10   0 1464.57 1407.36  12
   1 -10   0 612.458 793.922  12
  -1 -10   0 115.819 680.609  11
   1 -10   0 52.5203 761.943  11
  -1  10   0 1633.22 1579.14   6
   1  10   0-189.787 516.275   6
  -1  10   0 691.682 989.059  10
  -1 -10   0 555.486 645.750   3
   1 -10   0 15.5405 484.620   3
   2 -10   0 58010.4 7164.84  12
  -2 -10   0 63866.4 6492.04  11
  -2 -10   0 40832.9 5114.64   3
   2 -10   0 52123.1 5914.32  11
  -2  10   0 55228.2 6951.77   6
   2  10   0 57631.9 7598.36   6
   2 -10   0 38196.3 5147.28   3
  -2  10   0 55233.9 7475.18  10
   3 -10   0 485.579 732.153  12
  -3 -10   0 1837.34 1402.28  11
   3 -10   0-196.208 1102.27  11
   3  10   0-1445.07 1737.54   6
  -3  10   0 146.304 649.985  10
  -3 -10   0 716.488 391.940   3
   3 -10   0-438.215 870.027   3
   4 -10   0 37291.6 5928.59  12
  -4 -10   0 48617.7 5813.10  11
   4  10   0 39409.0 6625.40   6
  -4  10   0 40634.6 6805.10  10
   5 -10   0-463.225 492.340  12
  -5 -10   0 1748.05 1500.28  11
  -5  10   0-203.083 893.361  10
   6 -10   0 21789.5 5161.61  12
  -6  10   0 16912.8 4524.25  10
   8  10   0 22302.4 4948.87  14
   9  10   0 2001.01 1568.53  14
   0 -10  -1 2845.99 1961.31  12
   0 -10   1 970.496 1326.22  12
   0 -10   1 430.121 718.034  11
   0 -10  -1 603.529 157.526  11
   0  10  -1 705.142 905.164   6
   0  10   1 232.598 793.241   6
   0  10  -1 1035.03 1217.65  10
   0  10   1 994.464 952.118  10
   0 -10  -1 394.512 628.248   3
  -1 -10   1 38076.0 5390.36  12
   1 -10  -1 38029.8 5708.43  12
   1 -10   1 37901.8 5653.83  12
  -1 -10   1 35546.6 5029.70  11
  -1 -10  -1 42329.5 5145.66  11
   1 -10   1 37114.9 5029.31  11
   1 -10  -1 33744.7 4686.93  11
  -1 -10  -1 29067.1 4486.37   3
  -1  10  -1 37716.7 5937.68   6
  -1  10   1 35919.2 5635.88   6
   1  10  -1 37499.9 5974.84   6
   1 -10  -1 25943.6 4253.76   3
   1  10   1 35747.2 5851.31   6
  -1  10  -1 43952.5 6401.03  10
  -1  10   1 35220.8 5828.40  10
   2 -10  -1 1392.02 1046.33  12
   2 -10   1 274.705 383.974  12
  -2 -10   1 1188.59 1405.92  11
  -2 -10  -1 1160.13 1109.18  11
  -2  10  -1 3214.56 2371.83   6
   2 -10   1 64.8869 1104.69  11
   2 -10  -1-436.182 1125.46  11
  -2  10   1 1533.42 1591.61   6
   2  10  -1 1414.02 1061.99   6
   2  10   1-1804.04 1921.52   6
  -2  10  -1 1695.26 1425.02  10
  -2  10   1-807.169 973.234  10
  -2 -10  -1 1104.16 1188.15   3
   2 -10  -1 414.271 492.812   3
   3 -10  -1 40391.9 6259.15  12
   3 -10   1 39414.5 5981.15  12
  -3 -10   1 44144.5 5803.14  11
  -3 -10  -1 44523.4 5426.00  11
  -3 -10  -1 32199.3 4724.20   3
   3 -10   1 38465.6 5233.89  11
  -3  10   1 39231.9 5864.94   6
   3  10  -1 41034.7 6603.19   6
   3  10   1 35985.8 6037.90   6
   3 -10  -1 24648.3 4509.61   3
  -3  10  -1 35781.6 6178.67  10
  -3  10   1 36307.8 6377.03  10
   4 -10  -1 1851.15 1276.51  12
   4 -10   1 2691.35 1619.91  12
  -4 -10  -1 2765.91 1497.26  11
  -4 -10   1 3888.27 1953.72  11
   4 -10   1 598.658 1082.71  11
   4  10  -1 884.245 497.420   6
   4  10   1-278.458 1823.93   6
  -4  10  -1 2019.47 1564.93  10
  -4  10   1 1864.84 1198.98  10
  -4 -10  -1 1764.84 853.782   3
   5 -10  -1 29063.0 5545.09  12
   5 -10   1 31137.6 5685.26  12
  -5 -10  -1 25115.8 4185.86   3
  -5 -10  -1 32594.2 4738.16  11
  -5 -10   1 33310.1 5141.66  11
   5  10  -1 28541.5 5614.48   6
  -5  10  -1 28983.9 5900.96  10
  -5  10   1 25609.4 5547.41  10
   5  10   1 30448.8 5380.97  14
   6 -10   1 7208.51 3403.44  12
  -6 -10  -1 2788.88 1462.07   3
  -6  10  -1 4205.90 2483.37  10
  -6  10   1 316.064 606.960  10
   6  10   1 2959.50 1688.95  14
  -7 -10  -1 22041.8 4285.91   3
   7  10   1 27122.2 5376.29  14
  -8 -10  -1 828.236 761.412   3
   8  10   1 1105.38 1175.95  14
   0 -10  -2 17408.2 4172.62  12
   0 -10   2 16203.5 3552.00  12
   0 -10   2 15382.5 3399.59  11
   0 -10  -2 14620.5 3123.47  11
   0  10  -2 15911.4 4026.75   6
   0  10   2 13219.0 3383.04   6
   0  10  -2 12977.5 3163.78  10
   0  10   2 12281.4 3428.39  10
   0 -10  -2 11450.4 2939.47   3
  -1 -10   2 1896.94 1524.67  12
   1 -10  -2 956.955 1268.02  12
   1 -10   2-442.788 736.650  12
  -1 -10   2 718.356 1019.35  11
  -1  10  -2 2041.74 1911.88   6
  -1 -10  -2 788.279 733.462  11
   1 -10   2 443.451 476.891  11
   1 -10  -2 115.045 385.411  11
   1  10  -2 26.2513 767.584   6
  -1  10   2 1199.76 1333.10   6
   1  10   2-1800.49 1933.86   6
  -1  10  -2-679.806 1042.97  10
  -1  10   2-867.555 1954.29  10
  -1 -10  -2 490.838 604.215   3
   1 -10  -2-684.105 977.515   3
   2 -10  -2 25748.3 4961.74  12
   2 -10   2 23836.9 4454.83  12
  -2 -10   2 24428.8 4383.84  11
  -2 -10  -2 26212.9 4070.51  11
   2 -10   2 22940.1 4238.05  11
   2 -10  -2 21271.7 3686.61  11
  -2 -10  -2 21358.6 4001.59   3
  -2  10   2 19575.0 4209.40   6
   2  10  -2 25849.1 5079.96   6
   2 -10  -2 17142.1 3748.68   3
   2  10   2 21734.0 4649.97   6
  -2  10  -2 21727.2 4316.87  10
  -2  10   2 17277.8 4216.71  10
   3 -10  -2 1853.29 1485.22  12
   3 -10   2 1652.03 1177.28  12
  -3 -10   2 2812.94 1959.26  11
   3 -10   2 737.622 683.526  11
  -3  10   2 2251.31 1427.69   6
   3  10  -2 2748.07 1957.72   6
   3  10   2 1371.64 431.670   6
  -3  10  -2 1335.29 1295.52  10
  -3  10   2-96.0078 2039.86  10
  -3 -10  -2 3103.68 1769.33   3
   3 -10  -2 1242.59 646.950   3
   3  10   2 2302.07 1390.49  14
   4 -10  -2 34523.8 5796.47  12
   4 -10   2 31477.0 5422.47  12
  -4 -10  -2 28239.4 4561.59   3
  -4 -10   2 38070.8 5624.53  11
   4 -10   2 30247.1 4613.97  11
   4  10  -2 36168.7 6338.02   6
  -4  10  -2 31132.7 5945.69  10
  -4  10   2 28235.6 6027.60  10
   4  10   2 39552.9 6379.01  14
   5 -10   2 5032.00 2758.80  12
  -5 -10   2 2312.17 1973.31  11
  -5  10  -2 2475.69 1617.40  10
  -5 -10  -2-526.267 991.452   3
  -5  10   2-1042.45 2186.18  10
   5  10   2 874.101 1258.82  14
   6 -10   2 31346.3 5991.81  12
  -6 -10  -2 26054.2 4568.83   3
   6  10   2 36658.5 6302.90  14
  -7 -10  -2 72.9797 775.439   3
   7  10   2 686.098 774.145  14
   0 -10   3 1472.67 1431.83  11
   0  10   3-1563.61 1604.01   6
   0  10  -3 1185.20 1041.59  10
   0 -10  -3 620.238 638.478   3
   1 -10  -3 29166.2 5308.20  12
   1 -10   3 27558.7 4575.25  12
  -1 -10   3 29840.6 4961.22  11
   1 -10   3 29055.7 4748.39  11
  -1 -10  -3 24545.2 4378.44   3
   1  10  -3 29195.4 5429.63   6
   1 -10  -3 23167.0 4321.52   3
  -1  10   3 24979.6 4639.79   6
   1  10   3 25910.6 4990.83   6
  -1  10  -3 27798.2 5024.22  10
  -1  10   3 26191.4 5611.91  10
   1  10   3 36145.3 5927.82  14
   2 -10  -3 4480.76 2468.58  12
   2 -10   3 1745.67 1268.33  12
  -2 -10   3 3158.35 2041.29  11
   2 -10   3 2186.37 1070.46  11
   2 -10  -3 362.411 939.836  11
   2  10  -3 1366.21 1638.23   6
  -2  10   3 1202.92 756.611   6
   2  10   3-65.1017 894.910   6
  -2  10  -3 1630.54 1017.27  10
  -2  10   3-503.343 1284.42  10
  -2 -10  -3 2145.36 1469.58   3
   2 -10  -3 518.889 473.880   3
   2  10   3 1830.77 1120.76  14
   3 -10  -3 40037.2 6353.95  12
   3 -10   3 28725.1 4837.25  12
  -3 -10   3 38209.2 5808.38  11
  -3 -10  -3 30325.5 4856.53   3
   3 -10   3 33982.1 5181.90  11
  -3  10   3 33420.4 5201.58   6
   3  10  -3 36239.1 6272.15   6
   3 -10  -3 28813.1 5105.85   3
  -3  10  -3 33456.3 5853.07  10
  -3  10   3 33763.0 6905.73  10
   3  10   3 44915.5 6690.59  14
   4 -10   3 3328.48 1731.54  12
  -4 -10   3 3417.39 2220.32  11
  -4  10  -3 1220.03 866.574  10
  -4  10   3 1378.98 1571.10  10
  -4 -10  -3 1804.75 1164.23   3
   4 -10  -3 1324.59 695.092   3
   4  10   3 2676.00 1687.94  14
   5 -10   3 26643.9 5380.05  12
  -5 -10  -3 25256.3 4500.97   3
  -5  10  -3 26451.2 5296.55  10
  -5  10   3 27327.7 6614.96  10
   5  10   3 36552.8 6251.04  14
   6 -10   3 5551.74 2988.56  12
   6  10   3 1467.12 1393.94  14
   0 -10  -4 40906.9 5857.42   3
   0  10   4 38819.9 6013.24   6
   0  10   4 53314.9 7645.21  14
   1  10   4-390.627 1045.71  14
  -1  10   4 899.362 1263.80  14
  -1  10   4 1290.56 1133.03   6
   1  10   4-2068.80 1827.53   6
  -1  10  -4 2580.31 2087.16  10
  -1  10   4 4979.88 3563.89  10
  -1 -10  -4 129.448 505.414   3
   1 -10  -4-204.900 669.528   3
  -2 -10  -4 41705.0 5859.60   3
   2 -10  -4 34523.6 5592.07   3
   2  10   4 38316.2 6206.00   6
  -2  10  -4 41285.8 6324.99  10
  -2  10   4 42960.7 8153.65  10
   2  10   4 49488.9 7376.68  14
  -3  10  -4 1642.18 1394.30  10
   3  10   4 112.236 798.561  14
  -4  10  -4 30236.3 5669.49  10
  -4  10   4 35896.1 7875.81  10
   4  10   4 40368.1 6719.44  14
   5 -10   4 3008.14 2278.06  12
   5  10   4 263.407 950.030  14
   6 -10   4 21061.6 4909.16  12
   0  10   5-189.066 423.782  14
   1  10   5 25094.6 4898.25   6
  -1  10  -5 31249.2 5656.85  10
  -1  10   5 30710.8 7220.73  10
   1  10   5 37378.2 6721.59  14
  -1  10   5 33420.3 6544.71  14
   2  10   5-450.972 1178.65  14
  -2  10  -5 2737.35 2350.97  10
  -2  10   5 1427.23 2123.09  10
  -2  11   0 2894.28 2074.60  10
   0 -11  -1 621.483 595.369  11
   0 -11  -1 996.477 627.560   3
  -1 -11  -1 1295.24 1325.96  11
   1 -11  -1-368.382 211.729  11
  -1 -11  -1 721.390 980.309   3
   1 -11  -1 161.577 656.531   3
  -2 -11  -1 5562.53 2329.65  11
  -2  11  -1 2487.46 1704.91  10
  -2  11   1 2542.05 1786.51  10
   2 -11  -1 1283.52 888.139   3
   3 -11  -1-707.696 625.081   3
   0 -11   2 1921.20 1754.19  12
   2 -11  -2 1255.54 629.501  11
   0   0   0    0.00    0.00   0
TITL 7175-8629_n2 in Pnma
REM Pnma (#62, found as Pmcn in cab setting)
CELL 0.71073  14.004488   7.768951   9.178032  90.0000  90.0000  90.0000
ZERR    6.00   0.000620   0.000353   0.000465   0.0000   0.0000   0.0000
LATT  1
SYMM -x+1/2,-y, z+1/2
SYMM -x, y+1/2,-z
SYMM  x+1/2,-y+1/2,-z+1/2
SFAC C H N Br Pb
UNIT 30.00 36.00 6.00 18.00 6.00
TREF
HKLF 4
END
;
_shelx_hkl_checksum              57556
_olex2_submission_special_instructions 'No special instructions were received'
loop_
_space_group_symop_operation_xyz
'x, y, z'
'-x+1/2, -y, z+1/2'
'x+1/2, -y+1/2, -z+1/2'
'-x, y+1/2, -z'
'-x, -y, -z'
'x-1/2, y, -z-1/2'
'-x-1/2, y-1/2, z-1/2'
'x, -y-1/2, z'
loop_
_atom_site_label
_atom_site_type_symbol
_atom_site_fract_x
_atom_site_fract_y
_atom_site_fract_z
_atom_site_U_iso_or_equiv
_atom_site_adp_type
_atom_site_occupancy
_atom_site_site_symmetry_order
_atom_site_calc_flag
_atom_site_refinement_flags_posn
_atom_site_refinement_flags_adp
_atom_site_refinement_flags_occupancy
_atom_site_disorder_assembly
_atom_site_disorder_group
Pb1 Pb 0.5000 0.5000 0.0000 0.0116(2) Uani 1 2 d S T P . .
Br1 Br 0.33832(14) 0.7500 0.0442(2) 0.0267(5) Uani 1 2 d S T P . .
Br2 Br 0.60842(15) 0.7500 0.1893(2) 0.0329(6) Uani 1 2 d S T P . .
C1 C 0.3963(11) 0.8331(19) 0.4251(15) 0.027(3) Uani 0.5 1 d . . . A 1
H1 H 0.4298 0.8930 0.3507 0.032 Uiso 1 1 calc R . . A 1
C0AA C 0.3495(12) 0.924(2) 0.5291(17) 0.029(3) Uani 1 1 d . . . . .
H0AA H 0.3504 1.0461 0.5291 0.035 Uiso 1 1 calc R . . A 1
C2 C 0.3000(10) 0.833(2) 0.6357(17) 0.028(4) Uani 1 1 d . . . . .
H2 H 0.2660 0.8941 0.7090 0.034 Uiso 1 1 calc R . . . .
Br3 Br 0.44597(16) 0.2500 0.2458(3) 0.0599(11) Uani 1 2 d S T P . .
N25 N 0.3963(11) 0.8331(19) 0.4251(15) 0.027(3) Uani 0.5 1 d . . . A -1
loop_
_atom_site_aniso_label
_atom_site_aniso_U_11
_atom_site_aniso_U_22
_atom_site_aniso_U_33
_atom_site_aniso_U_23
_atom_site_aniso_U_13
_atom_site_aniso_U_12
Pb1 0.0142(4) 0.0106(4) 0.0101(4) 0.0002(2) 0.0009(3) -0.0003(2)
Br1 0.0128(9) 0.0515(14) 0.0160(10) 0.000 0.0021(8) 0.000
Br2 0.0173(10) 0.0683(17) 0.0132(10) 0.000 -0.0052(8) 0.000
C1 0.035(8) 0.030(7) 0.015(6) -0.005(6) 0.000(6) -0.002(7)
C0AA 0.033(8) 0.034(9) 0.019(7) -0.006(7) -0.006(6) 0.007(8)
C2 0.013(6) 0.045(9) 0.026(8) -0.007(7) -0.002(6) 0.003(6)
Br3 0.0121(10) 0.160(4) 0.0074(10) 0.000 0.0013(9) 0.000
N25 0.035(8) 0.030(7) 0.015(6) -0.005(6) 0.000(6) -0.002(7)
loop_
_atom_type_symbol
_atom_type_description
_atom_type_scat_dispersion_real
_atom_type_scat_dispersion_imag
_atom_type_scat_source
C C 0.0033 0.0016 'International Tables Vol C Tables 4.2.6.8 and 6.1.1.4'
H H 0.0000 0.0000 'International Tables Vol C Tables 4.2.6.8 and 6.1.1.4'
Br Br -0.2901 2.4595 'International Tables Vol C Tables 4.2.6.8 and 6.1.1.4'
N N 0.0061 0.0033 'International Tables Vol C Tables 4.2.6.8 and 6.1.1.4'
Pb Pb -3.3944 10.1111 'International Tables Vol C Tables 4.2.6.8 and 6.1.1.4'
loop_
_geom_angle_atom_site_label_1
_geom_angle_atom_site_label_2
_geom_angle_atom_site_label_3
_geom_angle
_geom_angle_site_symmetry_1
_geom_angle_site_symmetry_3
Br1 Pb1 Br1 180.0 . 5_665
Br1 Pb1 Br2 83.43(5) 5_665 5_665
Br1 Pb1 Br2 96.57(5) . 5_665
Br1 Pb1 Br2 96.57(5) 5_665 .
Br1 Pb1 Br2 83.43(5) . .
Br1 Pb1 Br3 82.90(5) . 5_665
Br1 Pb1 Br3 82.90(5) 5_665 .
Br1 Pb1 Br3 97.10(5) 5_665 5_665
Br1 Pb1 Br3 97.10(5) . .
Br2 Pb1 Br2 180.0 . 5_665
Br2 Pb1 Br3 83.79(5) . 5_665
Br2 Pb1 Br3 96.21(5) . .
Br2 Pb1 Br3 83.79(5) 5_665 .
Br2 Pb1 Br3 96.21(5) 5_665 5_665
Br3 Pb1 Br3 180.0 5_665 .
Pb1 Br1 Pb1 80.35(5) 4_655 .
Pb1 Br2 Pb1 80.18(5) . 4_655
C1 C1 C0AA 121.3(10) 8_575 .
C1 C0AA C2 118.3(16) . .
N25 C0AA C1 0.0 . .
N25 C0AA C2 118.3(16) . .
C2 C2 C0AA 120.4(10) 8_575 .
Pb1 Br3 Pb1 78.44(5) 4_645 .
loop_
_geom_bond_atom_site_label_1
_geom_bond_atom_site_label_2
_geom_bond_distance
_geom_bond_site_symmetry_2
Pb1 Br1 3.0106(15) .
Pb1 Br1 3.0106(15) 5_665
Pb1 Br2 3.0158(16) .
Pb1 Br2 3.0159(16) 5_665
Pb1 Br3 3.0716(18) 5_665
Pb1 Br3 3.0716(18) .
Br1 Pb1 3.0106(15) 4_655
Br2 Pb1 3.0158(16) 4_655
C1 C1 1.29(3) 8_575
C1 C0AA 1.36(2) .
C0AA C2 1.39(2) .
C0AA N25 1.36(2) .
C2 C2 1.29(4) 8_575
Br3 Pb1 3.0716(18) 4_645
