#------------------------------------------------------------------------------
#$Date: 2018-08-22 02:05:50 +0300 (Wed, 22 Aug 2018) $
#$Revision: 210040 $
#$URL: file:///home/coder/svn-repositories/cod/cif/7/04/73/7047329.cif $
#------------------------------------------------------------------------------
#
# This file is available in the Crystallography Open Database (COD),
# http://www.crystallography.net/
#
# All data on this site have been placed in the public domain by the
# contributors.
#
data_7047329
loop_
_publ_author_name
'Yue, Zenghui'
'Lin, Jian'
'Silver, Mark Andrew'
'Han, Ling'
'Li, Xiaoyun'
'Zhou, Jing'
'Guo, Xiaojing'
'Bao, Hong-liang'
'Huang, Yuying'
'Wang, Jian-Qiang'
_publ_section_title
;
 Anionic Uranyl Oxyfluorides as a Bifunctional Platform for Highly
 Selective Ion-Exchange and Photocatalytic Degradation of Organic Dyes
;
_journal_name_full               'Dalton Transactions'
_journal_paper_doi               10.1039/C8DT02309C
_journal_year                    2018
_chemical_formula_moiety         F7O8U3
_chemical_formula_sum            'F7 O7 U3'
_chemical_formula_weight         959.09
_chemical_melting_point          ?
_chemical_name_common            'Tetrapropylammonium uranyl oxyfluoride'
_space_group_crystal_system      orthorhombic
_space_group_IT_number           57
_space_group_name_Hall           '-P 2c 2b'
_space_group_name_H-M_alt        'P b c m'
_symmetry_space_group_name_Hall  '-P 2c 2b'
_symmetry_space_group_name_H-M   'P b c m'
_audit_creation_method           SHELXL-2014/7
_audit_update_record
;
2018-08-08 deposited with the CCDC.
2018-08-21 downloaded from the CCDC.
;
_cell_angle_alpha                90
_cell_angle_beta                 90
_cell_angle_gamma                90
_cell_formula_units_Z            4
_cell_length_a                   9.8238(11)
_cell_length_b                   12.5892(16)
_cell_length_c                   20.661(3)
_cell_measurement_reflns_used    19300
_cell_measurement_temperature    173(2)
_cell_measurement_theta_max      27.436
_cell_measurement_theta_min      2.630
_cell_volume                     2555.2(6)
_computing_cell_refinement       'Bruker SAINT'
_computing_data_collection       'Bruker APEX2'
_computing_data_reduction        'Bruker SAINT'
_computing_molecular_graphics    'Bruker SHELXTL'
_computing_publication_material  'Bruker SHELXTL'
_computing_structure_refinement  'SHELXL-2014/7 (Sheldrick, 2014)'
_diffrn_ambient_temperature      173(2)
_diffrn_measured_fraction_theta_full 0.998
_diffrn_measured_fraction_theta_max 0.998
_diffrn_measurement_device_type  'Bruker APEX-II'
_diffrn_measurement_method       '0.5 wide w/ exposures'
_diffrn_radiation_type           MoK\a
_diffrn_radiation_wavelength     0.71073
_diffrn_reflns_av_R_equivalents  0.0547
_diffrn_reflns_av_unetI/netI     0.0349
_diffrn_reflns_Laue_measured_fraction_full 0.998
_diffrn_reflns_Laue_measured_fraction_max 0.998
_diffrn_reflns_limit_h_max       12
_diffrn_reflns_limit_h_min       -12
_diffrn_reflns_limit_k_max       16
_diffrn_reflns_limit_k_min       -16
_diffrn_reflns_limit_l_max       26
_diffrn_reflns_limit_l_min       -22
_diffrn_reflns_number            19300
_diffrn_reflns_point_group_measured_fraction_full 0.998
_diffrn_reflns_point_group_measured_fraction_max 0.998
_diffrn_reflns_theta_full        25.242
_diffrn_reflns_theta_max         27.436
_diffrn_reflns_theta_min         2.630
_diffrn_source                   'Turbo X-ray Source'
_exptl_absorpt_coefficient_mu    19.018
_exptl_absorpt_correction_T_max  0.684
_exptl_absorpt_correction_T_min  0.023
_exptl_absorpt_correction_type   multi-scan
_exptl_absorpt_process_details   SHELTXPREP
_exptl_crystal_colour            Yellow
_exptl_crystal_density_diffrn    2.493
_exptl_crystal_density_meas      ?
_exptl_crystal_density_method    'Not measured'
_exptl_crystal_description       Plate
_exptl_crystal_F_000             1580
_exptl_crystal_size_max          0.25
_exptl_crystal_size_mid          0.18
_exptl_crystal_size_min          0.02
_refine_diff_density_max         1.325
_refine_diff_density_min         -1.505
_refine_diff_density_rms         0.156
_refine_ls_extinction_method     none
_refine_ls_goodness_of_fit_ref   0.975
_refine_ls_hydrogen_treatment    undef
_refine_ls_matrix_type           full
_refine_ls_number_parameters     107
_refine_ls_number_reflns         3001
_refine_ls_number_restraints     26
_refine_ls_restrained_S_all      1.076
_refine_ls_R_factor_all          0.0321
_refine_ls_R_factor_gt           0.0213
_refine_ls_shift/su_max          0.002
_refine_ls_shift/su_mean         0.000
_refine_ls_structure_factor_coef Fsqd
_refine_ls_weighting_details
'w=1/[\s^2^(Fo^2^)+(0.0155P)^2^] where P=(Fo^2^+2Fc^2^)/3'
_refine_ls_weighting_scheme      calc
_refine_ls_wR_factor_gt          0.0426
_refine_ls_wR_factor_ref         0.0449
_reflns_Friedel_coverage         0.000
_reflns_number_gt                2385
_reflns_number_total             3001
_reflns_threshold_expression     'I > 2\s(I)'
_cod_data_source_file            c8dt02309c2.cif
_cod_data_source_block           PrUF
_cod_depositor_comments
;
The following automatic conversions were performed:

'_chemical_melting_point' value 'N/A' was changed to '?' - the value
is undefined or not given.

'_exptl_crystal_density_meas' value 'Not measured' was changed to '?'
- the value is perceived as not measured.

Automatic conversion script
Id: cif_fix_values 4973 2017-02-22 13:04:09Z antanas 
;
_cod_original_cell_volume        2555.2(5)
_cod_database_code               7047329
_shelx_shelxl_version_number     2014/7
_shelx_space_group_comment
;
The symmetry employed for this shelxl refinement is uniquely defined
by the following loop, which should always be used as a source of
symmetry information in preference to the above space-group names.
They are only intended as comments.
;
_shelx_res_file
;

    part_sq.res created by SHELXL-2014/7


TITL save in Pbcm
CELL 0.71073   9.82380  12.58920  20.66060  90.0000  90.0000  90.0000
ZERR   4.00   0.00110   0.00160   0.00260   0.0000   0.0000   0.0000
LATT  1
SYMM -X, -Y, 0.5+Z
SYMM -X, 0.5+Y, 0.5-Z
SYMM X, 0.5-Y, -Z
SFAC O F U
UNIT 28 28 12
TEMP 23.000

L.S. 20
ACTA
ISOR 0.010 O3B F5
ISOR 0.008 F6 F7
DFIX 1.8 U1 O3A
DFIX 1.8 U1 O3B
BOND
FREE U1 U2
FREE U1 U3
FREE U2 U3
FMAP 2
PLAN 50
ABIN
WGHT    0.015500
FVAR       0.03848   0.52134
U1    3    0.580045    0.118579    0.750000    10.50000    0.00779    0.00623 =
         0.05153    0.00000    0.00000    0.00011
U2    3    0.814236   -0.198230    0.750000    10.50000    0.00795    0.00543 =
         0.03228    0.00000    0.00000   -0.00068
U3    3    1.188724   -0.063943    0.750000    10.50000    0.00798    0.00547 =
         0.05589    0.00000    0.00000   -0.00022
F1    2    0.673170   -0.051217    0.750000    10.50000    0.01591    0.00909 =
         0.06721    0.00000    0.00000    0.00281
F2    2    1.053514   -0.221213    0.750000    10.50000    0.00832    0.00852 =
         0.07440    0.00000    0.00000   -0.00051
F3    2    0.952835   -0.042214    0.750000    10.50000    0.00788    0.00946 =
         0.06119    0.00000    0.00000   -0.00012
F4    2    1.150268    0.118846    0.750000    10.50000    0.01223    0.00566 =
         0.07554    0.00000    0.00000   -0.00094
F5    2    0.397690    0.230816    0.750000    10.50000    0.01847    0.01290 =
         0.10491    0.00000    0.00000    0.00346
F6    2    1.328552   -0.209626    0.750000    10.50000    0.01700    0.01300 =
         0.18417    0.00000    0.00000    0.00213
F7    2    0.399375    0.010337    0.750000    10.50000    0.01402    0.01971 =
         0.18000    0.00000    0.00000   -0.00417
O1    1    0.817345   -0.197496    0.665408    11.00000    0.03667    0.03674 =
         0.03759   -0.00346   -0.00294    0.00792
O2    1    1.187085   -0.064501    0.665240    11.00000    0.07180    0.03170 =
         0.05663   -0.00232    0.03709   -0.00085
PART   1
O3A   1    0.538158    0.109177    0.662247    21.00000    0.03345    0.03460 =
         0.04805    0.00854   -0.00434    0.00213
PART   2
O3B   1    0.623672    0.129708    0.672768   -21.00000    0.01195    0.04862 =
         0.05491    0.01860    0.00358    0.00097
PART   0
O4    1    0.817723    0.117746    0.704695    10.50000    0.01945    0.01333 =
         0.04839    0.00262    0.00468   -0.00189

HKLF 4

REM  save in Pbcm
REM R1 =  0.0213 for    2385 Fo > 4sig(Fo)  and  0.0321 for all    3001 data
REM    107 parameters refined using     26 restraints

END

WGHT      0.0131      0.0000

REM Highest difference peak  1.325,  deepest hole -1.505,  1-sigma level  0.156
Q1    1   1.3155 -0.2015  0.7188  11.00000  0.05    1.32
Q2    1   0.3938  0.0086  0.7185  11.00000  0.05    1.23
Q3    1   1.3040 -0.1208  0.7500  10.50000  0.05    0.84
Q4    1   0.8216 -0.0846  0.7500  10.50000  0.05    0.83
Q5    1   0.4885  0.3413  0.7500  10.50000  0.05    0.82
Q6    1   0.4963  0.1198  0.7500  10.50000  0.05    0.78
Q7    1   0.8472  0.1239  0.7500  10.50000  0.05    0.77
Q8    1   0.4363  0.0771  0.7500  10.50000  0.05    0.74
Q9    1   0.7606 -0.1366  0.7005  11.00000  0.05    0.68
Q10   1   0.8450 -0.2848  0.6599  11.00000  0.05    0.67
Q11   1   1.0960  0.2122  0.7500  10.50000  0.05    0.66
Q12   1   0.3209  0.2432  0.7500  10.50000  0.05    0.66
Q13   1   1.1233  0.0758  0.7500  10.50000  0.05    0.64
Q14   1   0.5520  0.1649  0.6897  11.00000  0.05    0.63
Q15   1   0.7205 -0.1154  0.7500  10.50000  0.05    0.62
Q16   1   0.6139  0.1270  0.7216  11.00000  0.05    0.62
Q17   1   0.5981 -0.1266  0.7500  10.50000  0.05    0.58
Q18   1   0.7040  0.1265  0.6938  11.00000  0.05    0.56
Q19   1   1.3351 -0.1235  0.6979  11.00000  0.05    0.56
Q20   1   1.2039  0.0861  0.7500  10.50000  0.05    0.56
Q21   1   1.1366  0.0359  0.6592  11.00000  0.05    0.56
Q22   1   0.9205  0.0624  0.7218  11.00000  0.05    0.55
Q23   1   0.8936  0.0305  0.6767  11.00000  0.05    0.55
Q24   1   0.8031 -0.2663  0.7500  10.50000  0.05    0.55
Q25   1   0.4033  0.2356  0.7206  11.00000  0.05    0.54
Q26   1   1.1667  0.0508  0.7088  11.00000  0.05    0.54
Q27   1   0.8801 -0.1264  0.6484  11.00000  0.05    0.54
Q28   1   0.6778  0.1042  0.7500  10.50000  0.05    0.53
Q29   1   1.0613 -0.1276  0.7104  11.00000  0.05    0.53
Q30   1   1.1387 -0.0175  0.6874  11.00000  0.05    0.52
Q31   1   0.3054  0.1441  0.6980  11.00000  0.05    0.52
Q32   1   0.8992  0.1588  0.7077  11.00000  0.05    0.51
Q33   1   0.8583 -0.1298  0.6947  11.00000  0.05    0.50
Q34   1   0.3851  0.2487  0.7900  11.00000  0.05    0.50
Q35   1   0.5625  0.1036  0.6382  11.00000  0.05    0.50
Q36   1   0.3710  0.1597  0.7500  10.50000  0.05    0.50
Q37   1   0.9469  0.1348  0.7500  10.50000  0.05    0.49
Q38   1   0.6621 -0.1372  0.7119  11.00000  0.05    0.49
Q39   1   1.1098  0.1188  0.7135  11.00000  0.05    0.49
Q40   1   1.1630 -0.1045  0.6914  11.00000  0.05    0.49
Q41   1   0.6178  0.0244  0.6349  11.00000  0.05    0.48
Q42   1   1.1050  0.0252  0.7500  10.50000  0.05    0.48
Q43   1   1.2386  0.0102  0.6919  11.00000  0.05    0.48
Q44   1   1.1953 -0.1309  0.7500  10.50000  0.05    0.48
Q45   1   1.1410 -0.0664  0.7226  11.00000  0.05    0.48
Q46   1   0.3732  0.3110  0.7500  10.50000  0.05    0.48
Q47   1   1.3180  0.0271  0.6638  11.00000  0.05    0.47
Q48   1   0.8995 -0.1262  0.7500  10.50000  0.05    0.46
Q49   1   0.9749  0.0721  0.6711  11.00000  0.05    0.46
Q50   1   0.3751  0.1264  0.6604  11.00000  0.05    0.46
;
_shelx_res_checksum              27625
_shelx_fab_file
;
    2    0    0     11.13      0.00
    3    0    0     -9.52      0.00
    4    0    0     22.70      0.00
    5    0    0     -4.53      0.00
    6    0    0     -9.28      0.00
    7    0    0    -10.73      0.00
    8    0    0      2.65      0.00
    9    0    0    -11.79      0.00
   10    0    0      0.72      0.00
   11    0    0      1.94      0.00
   12    0    0      0.09      0.00
    1    1    0     61.46      0.00
    2    1    0     19.10      0.00
    3    1    0     16.94      0.00
    4    1    0    -10.77      0.00
    5    1    0      6.79      0.00
    6    1    0      0.53      0.00
    7    1    0      3.49      0.00
    8    1    0     12.32      0.00
    9    1    0      8.12      0.00
   10    1    0     -4.58      0.00
   11    1    0      1.53      0.00
   12    1    0     -5.05      0.00
    0    2    0    -60.12      0.00
    1    2    0     -8.13      0.00
    2    2    0      7.30      0.00
    3    2    0      7.57      0.00
    4    2    0      7.79      0.00
    5    2    0     -6.04      0.00
    6    2    0     -7.28      0.00
    7    2    0     -1.57      0.00
    8    2    0     -4.08      0.00
    9    2    0      8.64      0.00
   10    2    0      1.29      0.00
   11    2    0     -6.01      0.00
   12    2    0     13.56      0.00
    1    3    0    -52.54      0.00
    2    3    0     13.24      0.00
    3    3    0      0.76      0.00
    4    3    0      0.88      0.00
    5    3    0      6.86      0.00
    6    3    0      2.94      0.00
    7    3    0     -8.16      0.00
    8    3    0    -10.08      0.00
    9    3    0      2.45      0.00
   10    3    0      4.31      0.00
   11    3    0     -9.03      0.00
   12    3    0     -1.85      0.00
    0    4    0    -31.94      0.00
    1    4    0     -2.81      0.00
    2    4    0    -28.99      0.00
    3    4    0     12.45      0.00
    4    4    0     -8.31      0.00
    5    4    0      5.34      0.00
    6    4    0     -1.25      0.00
    7    4    0     16.20      0.00
    8    4    0      4.56      0.00
    9    4    0     -6.20      0.00
   10    4    0     -3.26      0.00
   11    4    0     -0.64      0.00
   12    4    0     -2.01      0.00
    1    5    0     24.68      0.00
    2    5    0     19.65      0.00
    3    5    0     -8.61      0.00
    4    5    0      8.67      0.00
    5    5    0      4.70      0.00
    6    5    0      0.80      0.00
    7    5    0     -6.85      0.00
    8    5    0      4.74      0.00
    9    5    0     -2.55      0.00
   10    5    0     -1.72      0.00
   11    5    0     -4.43      0.00
   12    5    0      1.83      0.00
    0    6    0    -25.56      0.00
    1    6    0     -3.54      0.00
    2    6    0      9.45      0.00
    3    6    0     -8.31      0.00
    4    6    0      0.88      0.00
    5    6    0      4.38      0.00
    6    6    0      6.80      0.00
    7    6    0     -5.59      0.00
    8    6    0      2.58      0.00
    9    6    0      1.09      0.00
   10    6    0      5.05      0.00
   11    6    0      9.53      0.00
    1    7    0     -0.30      0.00
    2    7    0      1.09      0.00
    3    7    0      4.68      0.00
    4    7    0      0.33      0.00
    5    7    0     -2.62      0.00
    6    7    0     11.77      0.00
    7    7    0      6.48      0.00
    8    7    0      0.50      0.00
    9    7    0     -1.83      0.00
   10    7    0     -2.20      0.00
   11    7    0      2.41      0.00
    0    8    0     12.07      0.00
    1    8    0      0.72      0.00
    2    8    0    -11.52      0.00
    3    8    0     -1.28      0.00
    4    8    0     13.70      0.00
    5    8    0     -5.25      0.00
    6    8    0     -9.32      0.00
    7    8    0      1.56      0.00
    8    8    0      2.38      0.00
    9    8    0      1.50      0.00
   10    8    0     -0.06      0.00
   11    8    0      1.29      0.00
    1    9    0      1.49      0.00
    2    9    0    -15.34      0.00
    3    9    0    -14.71      0.00
    4    9    0     -1.25      0.00
    5    9    0      5.50      0.00
    6    9    0    -10.31      0.00
    7    9    0     -4.58      0.00
    8    9    0      0.39      0.00
    9    9    0      5.52      0.00
   10    9    0     -8.35      0.00
    0   10    0     12.91      0.00
    1   10    0      6.81      0.00
    2   10    0      6.02      0.00
    3   10    0      2.17      0.00
    4   10    0     -3.93      0.00
    5   10    0      6.67      0.00
    6   10    0     -4.46      0.00
    7   10    0     -2.64      0.00
    8   10    0     -3.01      0.00
    9   10    0      9.19      0.00
   10   10    0     -6.61      0.00
    1   11    0      9.49      0.00
    2   11    0      1.16      0.00
    3   11    0      6.70      0.00
    4   11    0      0.39      0.00
    5   11    0     -1.09      0.00
    6   11    0     -0.79      0.00
    7   11    0      1.22      0.00
    8   11    0     -3.85      0.00
    9   11    0      0.03      0.00
    0   12    0      1.65      0.00
    1   12    0     -3.07      0.00
    2   12    0     -8.66      0.00
    3   12    0     -3.28      0.00
    4   12    0      2.61      0.00
    5   12    0     -3.91      0.00
    6   12    0     -0.91      0.00
    7   12    0     -1.97      0.00
    8   12    0      3.89      0.00
    1   13    0      1.54      0.00
    2   13    0      3.57      0.00
    3   13    0     -9.11      0.00
    4   13    0     -2.57      0.00
    5   13    0      1.61      0.00
    6   13    0     -0.48      0.00
    7   13    0     -3.67      0.00
    0   14    0      9.26      0.00
    1   14    0     -4.12      0.00
    2   14    0      2.80      0.00
    3   14    0     -1.25      0.00
    4   14    0     -5.72      0.00
    5   14    0      1.36      0.00
    6   14    0      1.40      0.00
    1   15    0      2.94      0.00
    2   15    0      2.98      0.00
    3   15    0     -0.66      0.00
    4   15    0     -6.87      0.00
    5   15    0     -1.73      0.00
    0   16    0     -1.23      0.00
    1   16    0      6.84      0.00
    2   16    0      2.06      0.00
    2    1    1     -9.61      0.00
    3    1    1     -9.59      0.00
    4    1    1     -5.92      0.00
    5    1    1     -5.63      0.00
    6    1    1      0.19      0.00
    7    1    1     -0.94      0.00
    8    1    1     -0.33      0.00
    9    1    1      0.56      0.00
   10    1    1      1.43      0.00
   11    1    1      0.70      0.00
   12    1    1     -0.42      0.00
    0    2    1      2.81      0.00
    1    2    1     51.89      0.00
    2    2    1     -9.34      0.00
    3    2    1     10.68      0.00
    4    2    1     -2.35      0.00
    5    2    1      2.11      0.00
    6    2    1     -3.33      0.00
    7    2    1     -1.26      0.00
    8    2    1     -4.41      0.00
    9    2    1      0.52      0.00
   10    2    1     -0.63      0.00
   11    2    1     -0.03      0.00
   12    2    1     -0.47      0.00
    1    3    1    -10.09      0.00
    2    3    1      6.81      0.00
    3    3    1      3.54      0.00
    4    3    1      2.61      0.00
    5    3    1     -3.26      0.00
    6    3    1      2.98      0.00
    7    3    1     -0.69      0.00
    8    3    1      1.36      0.00
    9    3    1      1.03      0.00
   10    3    1     -0.20      0.00
   11    3    1     -4.65      0.00
   12    3    1      2.50      0.00
    0    4    1      1.80      0.00
    1    4    1      0.72      0.00
    2    4    1      0.53      0.00
    3    4    1      7.64      0.00
    4    4    1      1.52      0.00
    5    4    1     -2.12      0.00
    6    4    1     -0.63      0.00
    7    4    1     -3.93      0.00
    8    4    1      0.98      0.00
    9    4    1     -3.23      0.00
   10    4    1     -4.65      0.00
   11    4    1      4.49      0.00
   12    4    1     -0.05      0.00
    1    5    1     -3.15      0.00
    2    5    1     -9.08      0.00
    3    5    1      3.10      0.00
    4    5    1      1.71      0.00
    5    5    1     -0.91      0.00
    6    5    1     -1.92      0.00
    7    5    1     -0.70      0.00
    8    5    1     -1.54      0.00
    9    5    1      0.19      0.00
   10    5    1      1.23      0.00
   11    5    1      0.58      0.00
   12    5    1      1.78      0.00
    0    6    1      1.78      0.00
    1    6    1      0.12      0.00
    2    6    1      3.36      0.00
    3    6    1     -5.17      0.00
    4    6    1      1.17      0.00
    5    6    1     -3.90      0.00
    6    6    1     -0.05      0.00
    7    6    1      0.98      0.00
    8    6    1     -0.60      0.00
    9    6    1     -1.43      0.00
   10    6    1      0.02      0.00
   11    6    1      0.48      0.00
    1    7    1      2.43      0.00
    2    7    1      4.32      0.00
    3    7    1      6.68      0.00
    4    7    1     -1.07      0.00
    5    7    1      3.26      0.00
    6    7    1     -1.44      0.00
    7    7    1     -1.87      0.00
    8    7    1     -1.64      0.00
    9    7    1      1.57      0.00
   10    7    1     -3.41      0.00
   11    7    1      6.48      0.00
    0    8    1     -1.60      0.00
    1    8    1     -4.95      0.00
    2    8    1     -5.70      0.00
    3    8    1      1.46      0.00
    4    8    1     -0.38      0.00
    5    8    1      4.04      0.00
    6    8    1      0.47      0.00
    7    8    1      3.05      0.00
    8    8    1      0.49      0.00
    9    8    1      4.09      0.00
   10    8    1     -0.41      0.00
   11    8    1      0.40      0.00
    1    9    1      1.49      0.00
    2    9    1     -1.92      0.00
    3    9    1      0.51      0.00
    4    9    1      1.64      0.00
    5    9    1      3.46      0.00
    6    9    1      2.14      0.00
    7    9    1      0.32      0.00
    8    9    1      1.44      0.00
    9    9    1     -1.01      0.00
   10    9    1      7.24      0.00
    0   10    1      0.27      0.00
    1   10    1     -0.64      0.00
    2   10    1     -0.78      0.00
    3   10    1     -2.79      0.00
    4   10    1      0.44      0.00
    5   10    1      0.91      0.00
    6   10    1     -1.23      0.00
    7   10    1      0.42      0.00
    8   10    1      0.59      0.00
    9   10    1     -0.48      0.00
   10   10    1      0.80      0.00
    1   11    1     -2.71      0.00
    2   11    1      0.45      0.00
    3   11    1     -1.15      0.00
    4   11    1     -0.16      0.00
    5   11    1     -2.51      0.00
    6   11    1      1.62      0.00
    7   11    1     -0.41      0.00
    8   11    1     -1.30      0.00
    9   11    1     -1.25      0.00
    0   12    1      3.26      0.00
    1   12    1     -1.13      0.00
    2   12    1     -0.35      0.00
    3   12    1      0.25      0.00
    4   12    1      4.99      0.00
    5   12    1     -0.71      0.00
    6   12    1     -0.70      0.00
    7   12    1      0.60      0.00
    8   12    1      1.93      0.00
    1   13    1      1.08      0.00
    2   13    1      0.78      0.00
    3   13    1      0.59      0.00
    4   13    1      1.78      0.00
    5   13    1     -0.79      0.00
    6   13    1     -1.79      0.00
    7   13    1      0.47      0.00
    0   14    1     -2.17      0.00
    1   14    1     -0.02      0.00
    2   14    1     -2.29      0.00
    3   14    1     -0.42      0.00
    4   14    1     -0.01      0.00
    5   14    1      1.03      0.00
    6   14    1      1.15      0.00
    1   15    1     -1.18      0.00
    2   15    1     -0.44      0.00
    3   15    1      0.79      0.00
    4   15    1     -2.74      0.00
    5   15    1     -0.08      0.00
    0   16    1      0.50      0.00
    1   16    1      1.84      0.00
    2   16    1      0.55      0.00
    2    0    2    -25.08      0.00
    3    0    2    -11.44      0.00
    4    0    2     11.34      0.00
    5    0    2      0.47      0.00
    6    0    2     -6.07      0.00
    7    0    2     -5.25      0.00
    8    0    2      1.50      0.00
    9    0    2     -6.79      0.00
   10    0    2     -0.80      0.00
   11    0    2      4.31      0.00
   12    0    2      0.71      0.00
    1    1    2     52.56      0.00
    2    1    2     10.11      0.00
    3    1    2      9.76      0.00
    4    1    2    -15.59      0.00
    5    1    2      1.92      0.00
    6    1    2      1.55      0.00
    7    1    2      1.62      0.00
    8    1    2     10.03      0.00
    9    1    2      6.67      0.00
   10    1    2     -2.11      0.00
   11    1    2      0.63      0.00
   12    1    2     -3.05      0.00
    0    2    2    -56.13      0.00
    1    2    2    -11.25      0.00
    2    2    2      1.64      0.00
    3    2    2      6.35      0.00
    4    2    2      5.86      0.00
    5    2    2     -8.75      0.00
    6    2    2     -3.05      0.00
    7    2    2     -1.33      0.00
    8    2    2     -0.28      0.00
    9    2    2     10.17      0.00
   10    2    2      0.68      0.00
   11    2    2     -3.79      0.00
   12    2    2      5.15      0.00
    1    3    2    -37.23      0.00
    2    3    2      7.61      0.00
    3    3    2     -1.61      0.00
    4    3    2     -4.94      0.00
    5    3    2      5.00      0.00
    6    3    2     -0.90      0.00
    7    3    2     -6.70      0.00
    8    3    2    -11.00      0.00
    9    3    2      3.71      0.00
   10    3    2      4.03      0.00
   11    3    2     -6.36      0.00
   12    3    2     -2.79      0.00
    0    4    2    -17.37      0.00
    1    4    2     -7.74      0.00
    2    4    2    -15.28      0.00
    3    4    2      7.90      0.00
    4    4    2     -2.70      0.00
    5    4    2      4.43      0.00
    6    4    2      0.40      0.00
    7    4    2     13.44      0.00
    8    4    2      5.42      0.00
    9    4    2     -6.67      0.00
   10    4    2     -1.81      0.00
   11    4    2     -1.79      0.00
   12    4    2     -3.50      0.00
    1    5    2     16.98      0.00
    2    5    2     11.10      0.00
    3    5    2     -7.88      0.00
    4    5    2      3.07      0.00
    5    5    2      5.30      0.00
    6    5    2     -0.23      0.00
    7    5    2     -5.41      0.00
    8    5    2      3.95      0.00
    9    5    2     -1.51      0.00
   10    5    2     -1.81      0.00
   11    5    2     -2.45      0.00
   12    5    2      0.33      0.00
    0    6    2    -14.16      0.00
    1    6    2      1.86      0.00
    2    6    2     13.85      0.00
    3    6    2     -5.85      0.00
    4    6    2      0.77      0.00
    5    6    2      5.68      0.00
    6    6    2      2.76      0.00
    7    6    2     -7.06      0.00
    8    6    2     -1.57      0.00
    9    6    2      3.87      0.00
   10    6    2      0.65      0.00
   11    6    2      9.56      0.00
    1    7    2     -1.39      0.00
    2    7    2      0.55      0.00
    3    7    2      3.79      0.00
    4    7    2     -0.18      0.00
    5    7    2     -5.01      0.00
    6    7    2      9.80      0.00
    7    7    2      6.10      0.00
    8    7    2      3.06      0.00
    9    7    2     -2.98      0.00
   10    7    2      1.17      0.00
   11    7    2      2.33      0.00
    0    8    2     12.08      0.00
    1    8    2      2.66      0.00
    2    8    2     -7.10      0.00
    3    8    2     -1.98      0.00
    4    8    2     10.59      0.00
    5    8    2     -6.69      0.00
    6    8    2     -9.35      0.00
    7    8    2      0.81      0.00
    8    8    2      1.91      0.00
    9    8    2      4.46      0.00
   10    8    2     -0.51      0.00
   11    8    2      1.88      0.00
    1    9    2      0.39      0.00
    2    9    2     -8.76      0.00
    3    9    2    -13.63      0.00
    4    9    2      4.09      0.00
    5    9    2      2.56      0.00
    6    9    2     -8.11      0.00
    7    9    2     -5.77      0.00
    8    9    2      2.45      0.00
    9    9    2      1.94      0.00
   10    9    2     -6.51      0.00
    0   10    2     10.94      0.00
    1   10    2      3.51      0.00
    2   10    2      3.13      0.00
    3   10    2      0.28      0.00
    4   10    2     -2.39      0.00
    5   10    2      4.92      0.00
    6   10    2     -4.02      0.00
    7   10    2     -1.38      0.00
    8   10    2     -3.01      0.00
    9   10    2     10.79      0.00
   10   10    2     -6.56      0.00
    1   11    2      8.92      0.00
    2   11    2      0.66      0.00
    3   11    2      7.57      0.00
    4   11    2      0.26      0.00
    5   11    2      2.11      0.00
    6   11    2      0.70      0.00
    7   11    2      1.12      0.00
    8   11    2     -3.30      0.00
    9   11    2      1.69      0.00
    0   12    2     -1.55      0.00
    1   12    2     -2.32      0.00
    2   12    2     -9.08      0.00
    3   12    2     -1.51      0.00
    4   12    2      2.05      0.00
    5   12    2     -3.81      0.00
    6   12    2      0.57      0.00
    7   12    2     -1.37      0.00
    8   12    2      2.25      0.00
    1   13    2      1.58      0.00
    2   13    2      2.21      0.00
    3   13    2     -8.60      0.00
    4   13    2     -2.45      0.00
    5   13    2      4.71      0.00
    6   13    2     -1.15      0.00
    7   13    2     -2.65      0.00
    0   14    2      4.63      0.00
    1   14    2     -0.78      0.00
    2   14    2      2.36      0.00
    3   14    2     -1.59      0.00
    4   14    2     -4.82      0.00
    5   14    2      3.04      0.00
    6   14    2      2.17      0.00
    1   15    2      2.76      0.00
    2   15    2      1.60      0.00
    3   15    2      0.17      0.00
    4   15    2     -6.23      0.00
    0   16    2      1.02      0.00
    1   16    2      2.30      0.00
    2   16    2     -0.11      0.00
    1    1    3    -10.97      0.00
    2    1    3    -17.37      0.00
    3    1    3    -13.75      0.00
    4    1    3    -10.13      0.00
    5    1    3     -7.62      0.00
    6    1    3      2.74      0.00
    7    1    3     -0.28      0.00
    8    1    3     -0.38      0.00
    9    1    3      0.93      0.00
   10    1    3      2.17      0.00
   11    1    3      0.44      0.00
   12    1    3      1.11      0.00
    0    2    3     15.38      0.00
    1    2    3     79.97      0.00
    2    2    3    -11.38      0.00
    3    2    3      8.64      0.00
    4    2    3     -5.50      0.00
    5    2    3      4.44      0.00
    6    2    3     -6.36      0.00
    7    2    3     -3.69      0.00
    8    2    3     -8.15      0.00
    9    2    3     -0.81      0.00
   10    2    3      1.51      0.00
   11    2    3      0.76      0.00
   12    2    3     -0.28      0.00
    1    3    3    -16.16      0.00
    2    3    3     19.98      0.00
    3    3    3     10.29      0.00
    4    3    3      8.00      0.00
    5    3    3     -5.76      0.00
    6    3    3      3.84      0.00
    7    3    3      0.68      0.00
    8    3    3      2.80      0.00
    9    3    3      0.43      0.00
   10    3    3      0.37      0.00
   11    3    3    -10.52      0.00
   12    3    3      3.72      0.00
    0    4    3     -1.51      0.00
    1    4    3     -7.99      0.00
    2    4    3      0.63      0.00
    3    4    3     12.76      0.00
    4    4    3      1.31      0.00
    5    4    3     -3.44      0.00
    6    4    3     -2.77      0.00
    7    4    3     -2.80      0.00
    8    4    3      4.13      0.00
    9    4    3     -1.41      0.00
   10    4    3     -9.97      0.00
   11    4    3      8.05      0.00
   12    4    3      0.77      0.00
    1    5    3     -7.36      0.00
    2    5    3    -20.71      0.00
    3    5    3      4.46      0.00
    4    5    3      5.31      0.00
    5    5    3     -5.05      0.00
    6    5    3     -3.86      0.00
    7    5    3     -5.13      0.00
    8    5    3     -2.90      0.00
    9    5    3      0.23      0.00
   10    5    3      0.95      0.00
   11    5    3      0.32      0.00
   12    5    3      2.70      0.00
    0    6    3      3.36      0.00
    1    6    3      1.16      0.00
    2    6    3      6.12      0.00
    3    6    3    -10.46      0.00
    4    6    3      4.71      0.00
    5    6    3     -6.05      0.00
    6    6    3      0.76      0.00
    7    6    3      3.56      0.00
    8    6    3     -0.29      0.00
    9    6    3     -2.47      0.00
   10    6    3     -1.85      0.00
   11    6    3     -1.44      0.00
    1    7    3      2.75      0.00
    2    7    3     11.59      0.00
    3    7    3      9.38      0.00
    4    7    3     -0.60      0.00
    5    7    3      5.03      0.00
    6    7    3     -1.79      0.00
    7    7    3     -2.77      0.00
    8    7    3     -1.78      0.00
    9    7    3      1.14      0.00
   10    7    3     -5.47      0.00
   11    7    3     11.48      0.00
    0    8    3     -1.31      0.00
    1    8    3     -8.68      0.00
    2    8    3    -11.02      0.00
    3    8    3      4.35      0.00
    4    8    3      2.45      0.00
    5    8    3      7.80      0.00
    6    8    3     -0.64      0.00
    7    8    3      3.40      0.00
    8    8    3     -2.07      0.00
    9    8    3      5.92      0.00
   10    8    3     -4.86      0.00
   11    8    3      0.22      0.00
    1    9    3      3.50      0.00
    2    9    3     -6.93      0.00
    3    9    3      0.88      0.00
    4    9    3      1.50      0.00
    5    9    3      5.67      0.00
    6    9    3      3.51      0.00
    7    9    3      0.98      0.00
    8    9    3      2.61      0.00
    9    9    3     -2.41      0.00
   10    9    3     10.63      0.00
    0   10    3      1.80      0.00
    1   10    3      2.34      0.00
    2   10    3     -3.35      0.00
    3   10    3     -4.49      0.00
    4   10    3     -1.15      0.00
    5   10    3      1.72      0.00
    6   10    3     -1.75      0.00
    7   10    3     -0.89      0.00
    8   10    3      0.94      0.00
    9   10    3     -1.52      0.00
    1   11    3     -4.88      0.00
    2   11    3      1.14      0.00
    3   11    3     -0.38      0.00
    4   11    3     -1.43      0.00
    5   11    3     -3.81      0.00
    6   11    3      0.82      0.00
    7   11    3      0.72      0.00
    8   11    3     -5.52      0.00
    9   11    3     -0.45      0.00
    0   12    3      5.76      0.00
    1   12    3     -2.00      0.00
    2   12    3     -1.05      0.00
    3   12    3      0.57      0.00
    4   12    3      9.47      0.00
    5   12    3     -2.18      0.00
    6   12    3     -2.97      0.00
    7   12    3     -1.29      0.00
    8   12    3      4.53      0.00
    1   13    3      1.16      0.00
    2   13    3      4.32      0.00
    3   13    3      1.85      0.00
    4   13    3      5.64      0.00
    5   13    3      1.77      0.00
    6   13    3     -4.32      0.00
    7   13    3     -0.32      0.00
    0   14    3     -3.47      0.00
    1   14    3     -3.22      0.00
    2   14    3     -4.88      0.00
    3   14    3     -1.88      0.00
    4   14    3     -1.00      0.00
    5   14    3      4.26      0.00
    6   14    3      0.29      0.00
    1   15    3     -3.98      0.00
    2   15    3      2.12      0.00
    3   15    3     -0.54      0.00
    4   15    3     -3.99      0.00
    0   16    3      0.41      0.00
    1   16    3      1.67      0.00
    2   16    3      1.03      0.00
    1    0    4      4.37      0.00
    2    0    4    -54.73      0.00
    3    0    4    -14.21      0.00
    4    0    4     -2.55      0.00
    5    0    4      9.50      0.00
    6    0    4     -0.90      0.00
    7    0    4      3.68      0.00
    8    0    4     -1.84      0.00
    9    0    4     -1.51      0.00
   10    0    4     -3.26      0.00
   11    0    4      4.39      0.00
   12    0    4      1.46      0.00
    1    1    4     29.58      0.00
    2    1    4     -4.11      0.00
    3    1    4     -4.38      0.00
    4    1    4    -23.71      0.00
    5    1    4     -3.64      0.00
    6    1    4      2.41      0.00
    7    1    4      1.36      0.00
    8    1    4      5.42      0.00
    9    1    4      3.81      0.00
   10    1    4      1.15      0.00
   11    1    4      0.53      0.00
   12    1    4      0.94      0.00
    0    2    4    -35.36      0.00
    1    2    4    -11.92      0.00
    2    2    4     -4.51      0.00
    3    2    4      5.00      0.00
    4    2    4      2.90      0.00
    5    2    4    -12.88      0.00
    6    2    4      0.10      0.00
    7    2    4     -2.14      0.00
    8    2    4      2.56      0.00
    9    2    4     11.27      0.00
   10    2    4     -0.18      0.00
   11    2    4      0.58      0.00
   12    2    4     -4.01      0.00
    1    3    4    -12.36      0.00
    2    3    4     -0.50      0.00
    3    3    4     -2.85      0.00
    4    3    4    -12.19      0.00
    5    3    4      1.05      0.00
    6    3    4     -3.71      0.00
    7    3    4     -4.32      0.00
    8    3    4     -9.79      0.00
    9    3    4      5.22      0.00
   10    3    4      1.70      0.00
   11    3    4      0.34      0.00
   12    3    4     -3.18      0.00
    0    4    4     -4.87      0.00
    1    4    4     -8.27      0.00
    2    4    4      0.65      0.00
    3    4    4      2.02      0.00
    4    4    4      4.33      0.00
    5    4    4      2.04      0.00
    6    4    4      3.71      0.00
    7    4    4      8.17      0.00
    8    4    4      4.14      0.00
    9    4    4     -6.65      0.00
   10    4    4      1.82      0.00
   11    4    4     -0.37      0.00
   12    4    4     -6.15      0.00
    1    5    4      3.90      0.00
    2    5    4     -0.02      0.00
    3    5    4     -4.70      0.00
    4    5    4     -3.35      0.00
    5    5    4      5.10      0.00
    6    5    4     -1.21      0.00
    7    5    4     -4.62      0.00
    8    5    4      3.00      0.00
    9    5    4     -0.77      0.00
   10    5    4     -0.88      0.00
   11    5    4     -0.81      0.00
    0    6    4     -1.41      0.00
    1    6    4     10.35      0.00
    2    6    4     16.61      0.00
    3    6    4     -2.06      0.00
    4    6    4     -1.45      0.00
    5    6    4      4.92      0.00
    6    6    4     -0.43      0.00
    7    6    4     -8.31      0.00
    8    6    4     -5.24      0.00
    9    6    4      7.76      0.00
   10    6    4     -2.90      0.00
   11    6    4      9.99      0.00
    1    7    4     -2.50      0.00
    2    7    4     -0.14      0.00
    3    7    4      2.64      0.00
    4    7    4     -2.22      0.00
    5    7    4     -6.95      0.00
    6    7    4      4.19      0.00
    7    7    4      3.05      0.00
    8    7    4      5.45      0.00
    9    7    4     -3.35      0.00
   10    7    4      3.75      0.00
   11    7    4      0.85      0.00
    0    8    4      8.42      0.00
    1    8    4      6.54      0.00
    2    8    4     -0.56      0.00
    3    8    4     -0.84      0.00
    4    8    4      4.37      0.00
    5    8    4     -7.87      0.00
    6    8    4     -8.42      0.00
    7    8    4     -1.18      0.00
    8    8    4      2.72      0.00
    9    8    4      6.62      0.00
   10    8    4     -2.14      0.00
    1    9    4      0.60      0.00
    2    9    4     -0.44      0.00
    3    9    4     -7.43      0.00
    4    9    4      9.08      0.00
    5    9    4     -0.33      0.00
    6    9    4     -5.83      0.00
    7    9    4     -4.18      0.00
    8    9    4      2.39      0.00
    9    9    4     -0.61      0.00
   10    9    4     -7.06      0.00
    0   10    4      6.42      0.00
    1   10    4     -1.37      0.00
    2   10    4     -3.35      0.00
    3   10    4     -2.43      0.00
    4   10    4      1.31      0.00
    5   10    4      3.52      0.00
    6   10    4     -7.37      0.00
    7   10    4     -0.27      0.00
    8   10    4     -1.52      0.00
    9   10    4      7.83      0.00
    1   11    4      6.91      0.00
    2   11    4      0.62      0.00
    3   11    4      5.83      0.00
    4   11    4      1.11      0.00
    5   11    4      4.31      0.00
    6   11    4      2.56      0.00
    7   11    4      1.29      0.00
    8   11    4     -2.69      0.00
    9   11    4      2.87      0.00
    0   12    4     -0.90      0.00
    1   12    4     -2.07      0.00
    2   12    4     -6.19      0.00
    3   12    4      1.57      0.00
    4   12    4      0.06      0.00
    5   12    4     -3.16      0.00
    6   12    4      1.18      0.00
    7   12    4     -0.14      0.00
    8   12    4     -0.78      0.00
    1   13    4      1.76      0.00
    2   13    4      1.16      0.00
    3   13    4     -5.35      0.00
    4   13    4      0.72      0.00
    5   13    4      7.25      0.00
    6   13    4      0.11      0.00
    7   13    4     -3.28      0.00
    0   14    4      0.14      0.00
    1   14    4      2.60      0.00
    2   14    4      3.50      0.00
    3   14    4     -3.10      0.00
    4   14    4     -4.73      0.00
    5   14    4      2.45      0.00
    6   14    4      2.72      0.00
    1   15    4      1.98      0.00
    2   15    4     -0.73      0.00
    3   15    4      1.51      0.00
    4   15    4     -3.55      0.00
    0   16    4      2.55      0.00
    1   16    4     -3.13      0.00
    1    1    5     -6.79      0.00
    2    1    5     -7.84      0.00
    3    1    5      1.13      0.00
    4    1    5     -4.46      0.00
    5    1    5      2.36      0.00
    6    1    5      5.75      0.00
    7    1    5      3.01      0.00
    8    1    5     -0.91      0.00
    9    1    5      1.20      0.00
   10    1    5     -0.11      0.00
   11    1    5     -1.44      0.00
   12    1    5      2.02      0.00
    0    2    5     12.81      0.00
    1    2    5     36.72      0.00
    2    2    5     -5.99      0.00
    3    2    5    -10.15      0.00
    4    2    5     -4.74      0.00
    5    2    5      3.80      0.00
    6    2    5     -1.98      0.00
    7    2    5     -4.90      0.00
    8    2    5     -4.79      0.00
    9    2    5     -3.99      0.00
   10    2    5      4.44      0.00
   11    2    5      1.89      0.00
   12    2    5     -0.55      0.00
    1    3    5     -6.73      0.00
    2    3    5     25.67      0.00
    3    3    5     12.67      0.00
    4    3    5     10.89      0.00
    5    3    5     -5.81      0.00
    6    3    5      1.03      0.00
    7    3    5      3.55      0.00
    8    3    5      4.88      0.00
    9    3    5     -3.99      0.00
   10    3    5      4.02      0.00
   11    3    5    -11.02      0.00
   12    3    5      3.09      0.00
    0    4    5    -13.37      0.00
    1    4    5    -20.13      0.00
    2    4    5     -2.60      0.00
    3    4    5      5.44      0.00
    4    4    5     -2.60      0.00
    5    4    5     -4.19      0.00
    6    4    5     -4.83      0.00
    7    4    5      2.09      0.00
    8    4    5      9.87      0.00
    9    4    5      6.37      0.00
   10    4    5     -8.50      0.00
   11    4    5      3.47      0.00
   12    4    5      1.30      0.00
    1    5    5     -9.54      0.00
    2    5    5    -22.04      0.00
    3    5    5      1.73      0.00
    4    5    5      6.47      0.00
    5    5    5     -9.79      0.00
    6    5    5     -5.43      0.00
    7    5    5     -9.95      0.00
    8    5    5     -2.74      0.00
    9    5    5      1.06      0.00
   10    5    5     -0.97      0.00
   11    5    5      0.48      0.00
    0    6    5      0.76      0.00
    1    6    5      0.77      0.00
    2    6    5      4.34      0.00
    3    6    5     -7.92      0.00
    4    6    5      8.53      0.00
    5    6    5     -0.66      0.00
    6    6    5      3.75      0.00
    7    6    5      5.56      0.00
    8    6    5      2.22      0.00
    9    6    5     -1.65      0.00
   10    6    5     -3.04      0.00
   11    6    5     -4.84      0.00
    1    7    5     -2.08      0.00
    2    7    5     11.49      0.00
    3    7    5      2.13      0.00
    4    7    5     -1.11      0.00
    5    7    5      1.75      0.00
    6    7    5     -1.69      0.00
    7    7    5      2.35      0.00
    8    7    5     -1.09      0.00
    9    7    5      1.00      0.00
   10    7    5     -5.24      0.00
   11    7    5      9.97      0.00
    0    8    5      5.39      0.00
    1    8    5     -5.66      0.00
    2    8    5     -7.98      0.00
    3    8    5      6.43      0.00
    4    8    5      5.75      0.00
    5    8    5      7.42      0.00
    6    8    5     -6.26      0.00
    7    8    5      0.40      0.00
    8    8    5     -5.43      0.00
    9    8    5     -0.67      0.00
   10    8    5     -6.79      0.00
    1    9    5      3.37      0.00
    2    9    5     -9.11      0.00
    3    9    5     -2.07      0.00
    4    9    5     -1.20      0.00
    5    9    5      1.17      0.00
    6    9    5      2.35      0.00
    7    9    5      0.71      0.00
    8    9    5      1.98      0.00
    9    9    5     -3.29      0.00
   10    9    5     -0.12      0.00
    0   10    5      6.68      0.00
    1   10    5      6.84      0.00
    2   10    5     -2.78      0.00
    3   10    5     -3.10      0.00
    4   10    5     -4.39      0.00
    5   10    5      1.49      0.00
    6   10    5     -1.71      0.00
    7   10    5     -2.80      0.00
    8   10    5     -0.25      0.00
    9   10    5     -3.12      0.00
    1   11    5     -3.80      0.00
    2   11    5      3.81      0.00
    3   11    5      1.06      0.00
    4   11    5     -0.23      0.00
    5   11    5     -4.24      0.00
    6   11    5      0.38      0.00
    7   11    5      1.27      0.00
    8   11    5     -6.69      0.00
    9   11    5      1.56      0.00
    0   12    5      6.21      0.00
    1   12    5     -2.72      0.00
    2   12    5      0.74      0.00
    3   12    5      0.64      0.00
    4   12    5      8.19      0.00
    5   12    5     -3.84      0.00
    6   12    5     -4.72      0.00
    7   12    5     -6.36      0.00
    8   12    5      3.41      0.00
    1   13    5     -0.92      0.00
    2   13    5      7.23      0.00
    3   13    5      3.24      0.00
    4   13    5      7.32      0.00
    5   13    5      7.10      0.00
    6   13    5     -4.89      0.00
    7   13    5     -2.60      0.00
    0   14    5     -2.17      0.00
    1   14    5     -4.96      0.00
    2   14    5     -4.97      0.00
    3   14    5     -3.37      0.00
    4   14    5     -1.66      0.00
    5   14    5      4.87      0.00
    6   14    5     -2.53      0.00
    1   15    5     -7.53      0.00
    2   15    5      9.27      0.00
    3   15    5     -3.24      0.00
    4   15    5     -1.48      0.00
    0   16    5     -0.98      0.00
    0    0    6      0.90      0.00
    1    0    6     -0.84      0.00
    2    0    6    -30.85      0.00
    3    0    6     -3.74      0.00
    4    0    6     -4.54      0.00
    5    0    6     10.14      0.00
    6    0    6      1.39      0.00
    7    0    6      6.04      0.00
    8    0    6     -4.77      0.00
    9    0    6     -2.99      0.00
   10    0    6     -2.31      0.00
   11    0    6     -0.10      0.00
   12    0    6      1.10      0.00
    1    1    6      5.72      0.00
    2    1    6     -5.99      0.00
    3    1    6    -12.42      0.00
    4    1    6    -24.21      0.00
    5    1    6     -1.55      0.00
    6    1    6      2.91      0.00
    7    1    6      3.45      0.00
    8    1    6      3.57      0.00
    9    1    6     -0.35      0.00
   10    1    6      2.29      0.00
   11    1    6      0.31      0.00
   12    1    6      4.14      0.00
    0    2    6     -3.34      0.00
    1    2    6     -0.79      0.00
    2    2    6     -1.63      0.00
    3    2    6      7.56      0.00
    4    2    6      2.32      0.00
    5    2    6    -12.12      0.00
    6    2    6     -2.24      0.00
    7    2    6     -6.64      0.00
    8    2    6      0.25      0.00
    9    2    6      6.23      0.00
   10    2    6      0.83      0.00
   11    2    6      1.93      0.00
   12    2    6      1.26      0.00
    1    3    6     -0.88      0.00
    2    3    6     -0.15      0.00
    3    3    6      3.55      0.00
    4    3    6     -8.81      0.00
    5    3    6      1.20      0.00
    6    3    6      2.12      0.00
    7    3    6     -0.37      0.00
    8    3    6     -4.67      0.00
    9    3    6      5.51      0.00
   10    3    6     -1.93      0.00
   11    3    6      2.70      0.00
   12    3    6     -1.69      0.00
    0    4    6     -5.39      0.00
    1    4    6     -8.50      0.00
    2    4    6      5.11      0.00
    3    4    6     -2.78      0.00
    4    4    6      4.13      0.00
    5    4    6     -0.21      0.00
    6    4    6      4.66      0.00
    7    4    6      4.05      0.00
    8    4    6     -0.95      0.00
    9    4    6     -4.36      0.00
   10    4    6      3.10      0.00
   11    4    6      2.98      0.00
   12    4    6     -6.51      0.00
    1    5    6     -1.56      0.00
    2    5    6      0.33      0.00
    3    5    6      2.81      0.00
    4    5    6     -1.92      0.00
    5    5    6      5.48      0.00
    6    5    6     -2.05      0.00
    7    5    6     -3.27      0.00
    8    5    6     -0.53      0.00
    9    5    6      2.57      0.00
   10    5    6     -3.85      0.00
   11    5    6      1.65      0.00
    0    6    6     -3.79      0.00
    1    6    6      7.35      0.00
    2    6    6     10.56      0.00
    3    6    6     -1.61      0.00
    4    6    6     -7.91      0.00
    5    6    6      3.29      0.00
    6    6    6     -1.75      0.00
    7    6    6     -1.44      0.00
    8    6    6     -4.54      0.00
    9    6    6      6.17      0.00
   10    6    6      1.51      0.00
   11    6    6      7.10      0.00
    1    7    6     -2.20      0.00
    2    7    6      1.32      0.00
    3    7    6      0.32      0.00
    4    7    6     -2.90      0.00
    5    7    6     -7.49      0.00
    6    7    6     -1.82      0.00
    7    7    6     -4.27      0.00
    8    7    6      4.51      0.00
    9    7    6     -2.34      0.00
   10    7    6      0.29      0.00
   11    7    6     -0.84      0.00
    0    8    6      0.94      0.00
    1    8    6      4.25      0.00
    2    8    6      2.85      0.00
    3    8    6      3.02      0.00
    4    8    6      0.73      0.00
    5    8    6     -4.19      0.00
    6    8    6     -6.28      0.00
    7    8    6     -1.51      0.00
    8    8    6      4.24      0.00
    9    8    6      2.53      0.00
   10    8    6     -4.79      0.00
    1    9    6      0.70      0.00
    2    9    6      0.01      0.00
    3    9    6     -2.32      0.00
    4    9    6      7.72      0.00
    5    9    6     -3.54      0.00
    6    9    6     -3.00      0.00
    7    9    6     -0.62      0.00
    8    9    6     -0.42      0.00
    9    9    6     -0.01      0.00
   10    9    6     -7.40      0.00
    0   10    6      3.60      0.00
    1   10    6     -4.23      0.00
    2   10    6     -7.06      0.00
    3   10    6     -5.90      0.00
    4   10    6      5.41      0.00
    5   10    6      2.74      0.00
    6   10    6    -11.30      0.00
    7   10    6     -1.85      0.00
    8   10    6      1.36      0.00
    9   10    6      0.86      0.00
    1   11    6      3.69      0.00
    2   11    6      0.77      0.00
    3   11    6     -0.52      0.00
    4   11    6     -0.44      0.00
    5   11    6      0.57      0.00
    6   11    6      1.03      0.00
    7   11    6      1.87      0.00
    8   11    6     -2.75      0.00
    0   12    6      5.15      0.00
    1   12    6      0.11      0.00
    2   12    6     -1.40      0.00
    3   12    6      3.90      0.00
    4   12    6     -1.30      0.00
    5   12    6     -3.81      0.00
    6   12    6      0.59      0.00
    7   12    6     -0.66      0.00
    8   12    6     -1.22      0.00
    1   13    6      2.28      0.00
    2   13    6      1.19      0.00
    3   13    6      2.41      0.00
    4   13    6      3.63      0.00
    5   13    6      6.30      0.00
    6   13    6      1.36      0.00
    7   13    6     -4.45      0.00
    0   14    6      2.28      0.00
    1   14    6      2.87      0.00
    2   14    6      4.93      0.00
    3   14    6     -2.16      0.00
    4   14    6     -9.14      0.00
    5   14    6     -1.03      0.00
    1   15    6      0.35      0.00
    2   15    6     -0.80      0.00
    3   15    6      1.54      0.00
    4   15    6     -0.11      0.00
    1    1    7     -1.78      0.00
    2    1    7     -0.60      0.00
    3    1    7     10.77      0.00
    4    1    7     -1.96      0.00
    5    1    7      7.18      0.00
    6    1    7      3.70      0.00
    7    1    7      2.80      0.00
    8    1    7     -3.43      0.00
    9    1    7      1.51      0.00
   10    1    7     -1.57      0.00
   11    1    7     -1.78      0.00
   12    1    7     -2.52      0.00
    0    2    7      5.38      0.00
    1    2    7     15.33      0.00
    2    2    7     -2.65      0.00
    3    2    7    -16.31      0.00
    4    2    7      1.98      0.00
    5    2    7      0.94      0.00
    6    2    7      4.26      0.00
    7    2    7     -4.02      0.00
    8    2    7     -1.02      0.00
    9    2    7     -4.56      0.00
   10    2    7      1.75      0.00
   11    2    7      1.69      0.00
   12    2    7     -3.41      0.00
    1    3    7     -4.22      0.00
    2    3    7     18.37      0.00
    3    3    7      7.92      0.00
    4    3    7      7.13      0.00
    5    3    7     -7.78      0.00
    6    3    7      0.95      0.00
    7    3    7      6.01      0.00
    8    3    7      5.68      0.00
    9    3    7     -3.01      0.00
   10    3    7      3.44      0.00
   11    3    7     -5.05      0.00
   12    3    7      2.50      0.00
    0    4    7    -14.03      0.00
    1    4    7    -18.13      0.00
    2    4    7     -2.86      0.00
    3    4    7      0.29      0.00
    4    4    7     -5.07      0.00
    5    4    7     -5.18      0.00
    6    4    7     -8.81      0.00
    7    4    7      0.51      0.00
    8    4    7      9.24      0.00
    9    4    7      8.81      0.00
   10    4    7     -5.44      0.00
   11    4    7     -1.05      0.00
    1    5    7    -11.04      0.00
    2    5    7    -15.66      0.00
    3    5    7      3.52      0.00
    4    5    7      8.32      0.00
    5    5    7    -10.58      0.00
    6    5    7     -4.84      0.00
    7    5    7    -10.59      0.00
    8    5    7      0.05      0.00
    9    5    7      0.82      0.00
   10    5    7      0.75      0.00
   11    5    7      3.82      0.00
    0    6    7     -8.21      0.00
    1    6    7      2.15      0.00
    2    6    7      0.03      0.00
    3    6    7     -2.01      0.00
    4    6    7      8.55      0.00
    5    6    7      3.65      0.00
    6    6    7      5.73      0.00
    7    6    7      5.10      0.00
    8    6    7      2.74      0.00
    9    6    7     -0.91      0.00
   10    6    7     -0.42      0.00
   11    6    7     -2.80      0.00
    1    7    7     -4.40      0.00
    2    7    7      6.53      0.00
    3    7    7     -1.12      0.00
    4    7    7     -1.32      0.00
    5    7    7     -3.46      0.00
    6    7    7     -0.83      0.00
    7    7    7      4.73      0.00
    8    7    7      0.01      0.00
    9    7    7      2.44      0.00
   10    7    7     -5.07      0.00
   11    7    7      7.70      0.00
    0    8    7     11.03      0.00
    1    8    7     -3.82      0.00
    2    8    7     -5.38      0.00
    3    8    7      4.36      0.00
    4    8    7      5.60      0.00
    5    8    7      4.11      0.00
    6    8    7     -7.55      0.00
    7    8    7     -0.27      0.00
    8    8    7     -0.75      0.00
    9    8    7     -6.62      0.00
   10    8    7      0.46      0.00
    1    9    7      3.43      0.00
    2    9    7     -5.37      0.00
    3    9    7     -5.45      0.00
    4    9    7     -3.73      0.00
    5    9    7     -0.73      0.00
    6    9    7      0.73      0.00
    7    9    7      0.27      0.00
    8    9    7      0.98      0.00
    9    9    7     -3.64      0.00
   10    9    7     -5.60      0.00
    0   10    7      6.66      0.00
    1   10    7      6.96      0.00
    2   10    7     -0.69      0.00
    3   10    7     -3.88      0.00
    4   10    7     -3.56      0.00
    5   10    7     -0.40      0.00
    6   10    7     -2.09      0.00
    7   10    7     -2.87      0.00
    8   10    7      0.00      0.00
    9   10    7     -6.08      0.00
    1   11    7     -2.34      0.00
    2   11    7      3.47      0.00
    3   11    7      2.33      0.00
    4   11    7     -0.66      0.00
    5   11    7     -5.04      0.00
    6   11    7      2.88      0.00
    7   11    7     -0.19      0.00
    8   11    7     -3.50      0.00
    0   12    7      4.92      0.00
    1   12    7     -3.69      0.00
    2   12    7      1.40      0.00
    3   12    7      2.31      0.00
    4   12    7      4.53      0.00
    5   12    7     -1.87      0.00
    6   12    7     -5.02      0.00
    7   12    7     -6.48      0.00
    1   13    7     -2.33      0.00
    2   13    7      3.95      0.00
    3   13    7      3.09      0.00
    4   13    7      4.49      0.00
    5   13    7      5.07      0.00
    6   13    7     -4.31      0.00
    0   14    7     -0.53      0.00
    1   14    7     -0.91      0.00
    2   14    7     -3.00      0.00
    3   14    7     -3.25      0.00
    4   14    7     -1.45      0.00
    5   14    7      0.74      0.00
    1   15    7    -10.82      0.00
    2   15    7     16.52      0.00
    3   15    7     -4.28      0.00
    0    0    8      6.55      0.00
    1    0    8      7.40      0.00
    2    0    8     -5.27      0.00
    3    0    8      3.85      0.00
    4    0    8     -2.42      0.00
    5    0    8     -2.20      0.00
    6    0    8      1.12      0.00
    7    0    8      3.57      0.00
    8    0    8     -4.35      0.00
    9    0    8     -3.41      0.00
   10    0    8      1.40      0.00
   11    0    8      1.36      0.00
   12    0    8     -0.34      0.00
    1    1    8     -6.47      0.00
    2    1    8      1.64      0.00
    3    1    8    -13.28      0.00
    4    1    8    -17.12      0.00
    5    1    8      0.74      0.00
    6    1    8      3.03      0.00
    7    1    8      0.84      0.00
    8    1    8      2.41      0.00
    9    1    8     -3.70      0.00
   10    1    8      2.13      0.00
   11    1    8     -1.08      0.00
   12    1    8      2.97      0.00
    0    2    8     15.61      0.00
    1    2    8      8.66      0.00
    2    2    8      5.35      0.00
    3    2    8     11.34      0.00
    4    2    8      2.82      0.00
    5    2    8     -3.73      0.00
    6    2    8     -2.30      0.00
    7    2    8     -7.61      0.00
    8    2    8     -2.03      0.00
    9    2    8      0.21      0.00
   10    2    8     -0.34      0.00
   11    2    8     -0.80      0.00
   12    2    8      6.78      0.00
    1    3    8      3.93      0.00
    2    3    8      4.61      0.00
    3    3    8      6.89      0.00
    4    3    8      0.19      0.00
    5    3    8      3.89      0.00
    6    3    8      9.86      0.00
    7    3    8      3.49      0.00
    8    3    8      0.70      0.00
    9    3    8      4.55      0.00
   10    3    8     -0.55      0.00
   11    3    8     -5.69      0.00
    0    4    8     -6.55      0.00
    1    4    8    -10.03      0.00
    2    4    8      4.89      0.00
    3    4    8     -3.74      0.00
    4    4    8     -1.49      0.00
    5    4    8      0.45      0.00
    6    4    8      1.73      0.00
    7    4    8      1.36      0.00
    8    4    8     -3.68      0.00
    9    4    8      1.55      0.00
   10    4    8     -2.24      0.00
   11    4    8     -0.25      0.00
    1    5    8     -2.50      0.00
    2    5    8      3.53      0.00
    3    5    8      9.20      0.00
    4    5    8      2.15      0.00
    5    5    8      5.91      0.00
    6    5    8     -0.29      0.00
    7    5    8     -0.42      0.00
    8    5    8     -2.70      0.00
    9    5    8      4.44      0.00
   10    5    8     -7.28      0.00
   11    5    8      3.08      0.00
    0    6    8     -9.18      0.00
    1    6    8     -0.75      0.00
    2    6    8      3.27      0.00
    3    6    8     -2.29      0.00
    4    6    8    -11.07      0.00
    5    6    8      2.33      0.00
    6    6    8     -4.70      0.00
    7    6    8      4.93      0.00
    8    6    8     -1.97      0.00
    9    6    8     -3.00      0.00
   10    6    8      6.40      0.00
   11    6    8     -1.84      0.00
    1    7    8     -1.43      0.00
    2    7    8      2.95      0.00
    3    7    8     -0.47      0.00
    4    7    8     -2.43      0.00
    5    7    8     -7.75      0.00
    6    7    8     -9.10      0.00
    7    7    8     -6.81      0.00
    8    7    8      2.58      0.00
    9    7    8     -2.52      0.00
   10    7    8     -1.60      0.00
    0    8    8     -3.75      0.00
    1    8    8     -4.58      0.00
    2    8    8      5.65      0.00
    3    8    8      5.86      0.00
    4    8    8      1.65      0.00
    5    8    8      1.04      0.00
    6    8    8     -1.93      0.00
    7    8    8     -0.54      0.00
    8    8    8      3.84      0.00
    9    8    8     -2.19      0.00
   10    8    8     -6.01      0.00
    1    9    8     -2.16      0.00
    2    9    8     -3.76      0.00
    3    9    8     -1.25      0.00
    4    9    8      4.56      0.00
    5    9    8     -5.68      0.00
    6    9    8      0.43      0.00
    7    9    8      2.46      0.00
    8    9    8     -1.65      0.00
    9    9    8      0.25      0.00
    0   10    8      3.77      0.00
    1   10    8     -4.46      0.00
    2   10    8     -6.24      0.00
    3   10    8     -8.43      0.00
    4   10    8      4.13      0.00
    5   10    8      2.57      0.00
    6   10    8     -7.13      0.00
    7   10    8     -0.43      0.00
    8   10    8      0.62      0.00
    9   10    8      3.61      0.00
    1   11    8      0.12      0.00
    2   11    8      0.64      0.00
    3   11    8     -5.70      0.00
    4   11    8     -5.30      0.00
    5   11    8     -2.52      0.00
    6   11    8     -1.21      0.00
    7   11    8      2.15      0.00
    8   11    8     -2.69      0.00
    0   12    8      6.12      0.00
    1   12    8      3.33      0.00
    2   12    8     -1.68      0.00
    3   12    8      4.84      0.00
    4   12    8      0.24      0.00
    5   12    8     -5.11      0.00
    6   12    8      0.79      0.00
    7   12    8     -1.48      0.00
    1   13    8      0.01      0.00
    2   13    8      3.71      0.00
    3   13    8      4.33      0.00
    4   13    8      4.12      0.00
    5   13    8      4.24      0.00
    6   13    8     -2.03      0.00
    0   14    8      3.80      0.00
    1   14    8      2.66      0.00
    2   14    8      4.88      0.00
    3   14    8      0.15      0.00
    4   14    8    -10.40      0.00
    5   14    8     -2.46      0.00
    1   15    8     -0.92      0.00
    2   15    8      0.05      0.00
    3   15    8      1.38      0.00
    1    1    9     -2.02      0.00
    2    1    9     -4.70      0.00
    3    1    9      4.98      0.00
    4    1    9     -5.04      0.00
    5    1    9      0.26      0.00
    6    1    9     -0.55      0.00
    7    1    9     -2.06      0.00
    8    1    9     -4.16      0.00
    9    1    9     -0.64      0.00
   10    1    9      0.50      0.00
   11    1    9     -0.13      0.00
    0    2    9     15.60      0.00
    1    2    9     11.40      0.00
    2    2    9      4.84      0.00
    3    2    9    -12.77      0.00
    4    2    9      3.17      0.00
    5    2    9     -0.34      0.00
    6    2    9      4.70      0.00
    7    2    9     -1.63      0.00
    8    2    9      0.17      0.00
    9    2    9     -2.17      0.00
   10    2    9     -0.69      0.00
   11    2    9      0.56      0.00
    1    3    9     -6.44      0.00
    2    3    9      7.45      0.00
    3    3    9      1.41      0.00
    4    3    9      0.92      0.00
    5    3    9     -8.41      0.00
    6    3    9      1.58      0.00
    7    3    9      7.28      0.00
    8    3    9      2.32      0.00
    9    3    9      2.98      0.00
   10    3    9     -3.92      0.00
   11    3    9      0.93      0.00
    0    4    9     -3.30      0.00
    1    4    9     -6.99      0.00
    2    4    9      3.21      0.00
    3    4    9      2.85      0.00
    4    4    9     -4.10      0.00
    5    4    9     -2.15      0.00
    6    4    9     -9.03      0.00
    7    4    9     -0.36      0.00
    8    4    9      2.63      0.00
    9    4    9      4.40      0.00
   10    4    9     -1.23      0.00
   11    4    9     -3.39      0.00
    1    5    9     -8.22      0.00
    2    5    9     -4.58      0.00
    3    5    9     10.03      0.00
    4    5    9     11.45      0.00
    5    5    9     -4.03      0.00
    6    5    9     -0.62      0.00
    7    5    9     -7.09      0.00
    8    5    9      4.36      0.00
    9    5    9     -2.04      0.00
   10    5    9      2.51      0.00
   11    5    9      4.54      0.00
    0    6    9     -9.72      0.00
    1    6    9      2.40      0.00
    2    6    9     -2.98      0.00
    3    6    9      0.13      0.00
    4    6    9      6.57      0.00
    5    6    9      0.58      0.00
    6    6    9      4.36      0.00
    7    6    9      0.83      0.00
    8    6    9      1.12      0.00
    9    6    9     -0.27      0.00
   10    6    9      0.91      0.00
   11    6    9      2.61      0.00
    1    7    9     -0.73      0.00
    2    7    9      4.49      0.00
    3    7    9     -0.72      0.00
    4    7    9      4.19      0.00
    5    7    9     -5.99      0.00
    6    7    9      1.01      0.00
    7    7    9      2.85      0.00
    8    7    9      1.27      0.00
    9    7    9      1.46      0.00
   10    7    9     -3.73      0.00
    0    8    9      9.51      0.00
    1    8    9     -4.76      0.00
    2    8    9     -4.84      0.00
    3    8    9     -1.75      0.00
    4    8    9      6.79      0.00
    5    8    9     -0.04      0.00
    6    8    9     -2.69      0.00
    7    8    9     -0.07      0.00
    8    8    9      2.34      0.00
    9    8    9     -3.68      0.00
   10    8    9      1.49      0.00
    1    9    9      4.76      0.00
    2    9    9     -0.89      0.00
    3    9    9     -3.62      0.00
    4    9    9     -4.88      0.00
    5    9    9     -0.27      0.00
    6    9    9     -0.31      0.00
    7    9    9      0.06      0.00
    8    9    9      0.16      0.00
    9    9    9     -1.88      0.00
    0   10    9     -2.71      0.00
    1   10    9      4.19      0.00
    2   10    9     -5.05      0.00
    3   10    9     -2.89      0.00
    4   10    9     -0.74      0.00
    5   10    9     -2.79      0.00
    6   10    9     -0.40      0.00
    7   10    9     -1.51      0.00
    8   10    9      2.24      0.00
    9   10    9     -7.89      0.00
    1   11    9     -1.90      0.00
    2   11    9     -1.70      0.00
    3   11    9      2.95      0.00
    4   11    9     -4.02      0.00
    5   11    9     -2.56      0.00
    6   11    9      1.35      0.00
    7   11    9     -1.76      0.00
    8   11    9     -1.41      0.00
    0   12    9     -2.85      0.00
    1   12    9     -4.01      0.00
    2   12    9     -0.95      0.00
    3   12    9      2.32      0.00
    4   12    9     -1.48      0.00
    5   12    9      1.54      0.00
    6   12    9     -0.38      0.00
    7   12    9     -2.13      0.00
    1   13    9     -3.00      0.00
    2   13    9     -2.13      0.00
    3   13    9      1.91      0.00
    4   13    9      0.58      0.00
    5   13    9     -2.62      0.00
    6   13    9     -2.81      0.00
    0   14    9      0.86      0.00
    1   14    9      0.80      0.00
    2   14    9     -0.46      0.00
    3   14    9     -1.99      0.00
    4   14    9     -2.16      0.00
    1   15    9     -8.87      0.00
    2   15    9     14.69      0.00
    0    0   10     -1.10      0.00
    1    0   10     -6.07      0.00
    2    0   10      5.85      0.00
    3    0   10     -8.03      0.00
    4    0   10      0.12      0.00
    5    0   10    -11.06      0.00
    6    0   10     -0.97      0.00
    7    0   10      1.88      0.00
    8    0   10     -1.20      0.00
    9    0   10     -2.03      0.00
   10    0   10      2.24      0.00
   11    0   10      6.75      0.00
    1    1   10     -7.79      0.00
    2    1   10      4.12      0.00
    3    1   10    -13.95      0.00
    4    1   10    -12.96      0.00
    5    1   10     -2.45      0.00
    6    1   10     -0.10      0.00
    7    1   10     -3.73      0.00
    8    1   10     -2.77      0.00
    9    1   10     -3.21      0.00
   10    1   10      0.97      0.00
   11    1   10      0.07      0.00
    0    2   10     13.93      0.00
    1    2   10      4.25      0.00
    2    2   10      9.81      0.00
    3    2   10     10.21      0.00
    4    2   10      2.41      0.00
    5    2   10      5.06      0.00
    6    2   10      0.48      0.00
    7    2   10     -1.16      0.00
    8    2   10     -3.64      0.00
    9    2   10     -0.52      0.00
   10    2   10     -5.98      0.00
   11    2   10     -5.03      0.00
    1    3   10      6.92      0.00
    2    3   10      1.66      0.00
    3    3   10     -1.14      0.00
    4    3   10      0.30      0.00
    5    3   10      1.70      0.00
    6    3   10      9.28      0.00
    7    3   10      2.04      0.00
    8    3   10      3.09      0.00
    9    3   10      3.19      0.00
   10    3   10      5.71      0.00
   11    3   10    -13.45      0.00
    0    4   10    -11.89      0.00
    1    4   10      0.14      0.00
    2    4   10     -0.31      0.00
    3    4   10     -0.17      0.00
    4    4   10     -5.05      0.00
    5    4   10      0.12      0.00
    6    4   10      0.69      0.00
    7    4   10     -0.88      0.00
    8    4   10     -2.07      0.00
    9    4   10      8.01      0.00
   10    4   10     -9.57      0.00
   11    4   10     -4.24      0.00
    1    5   10     -4.96      0.00
    2    5   10      2.55      0.00
    3    5   10      6.96      0.00
    4    5   10      3.90      0.00
    5    5   10      3.49      0.00
    6    5   10      3.82      0.00
    7    5   10      1.15      0.00
    8    5   10      0.65      0.00
    9    5   10     -2.24      0.00
   10    5   10     -3.71      0.00
   11    5   10     -0.74      0.00
    0    6   10     -8.44      0.00
    1    6   10      0.64      0.00
    2    6   10      1.98      0.00
    3    6   10     -2.11      0.00
    4    6   10     -4.09      0.00
    5    6   10     -2.38      0.00
    6    6   10     -3.20      0.00
    7    6   10      2.31      0.00
    8    6   10      1.83      0.00
    9    6   10     -7.21      0.00
   10    6   10      4.26      0.00
    1    7   10     -1.19      0.00
    2    7   10      3.12      0.00
    3    7   10      4.47      0.00
    4    7   10     -2.02      0.00
    5    7   10     -4.67      0.00
    6    7   10    -14.92      0.00
    7    7   10     -1.74      0.00
    8    7   10      0.69      0.00
    9    7   10     -2.27      0.00
   10    7   10     -0.74      0.00
    0    8   10     -5.58      0.00
    1    8   10     -3.99      0.00
    2    8   10      4.12      0.00
    3    8   10      9.28      0.00
    4    8   10      1.71      0.00
    5    8   10      3.18      0.00
    6    8   10      2.17      0.00
    7    8   10     -0.16      0.00
    8    8   10      2.26      0.00
    9    8   10     -2.87      0.00
   10    8   10     -3.94      0.00
    1    9   10     -2.98      0.00
    2    9   10     -5.30      0.00
    3    9   10      3.71      0.00
    4    9   10      1.84      0.00
    5    9   10      0.81      0.00
    6    9   10      1.29      0.00
    7    9   10      6.24      0.00
    8    9   10      0.06      0.00
    9    9   10      0.55      0.00
    0   10   10      1.79      0.00
    1   10   10      0.51      0.00
    2   10   10     -5.44      0.00
    3   10   10     -4.76      0.00
    4   10   10     -0.60      0.00
    5   10   10      3.46      0.00
    6   10   10      2.03      0.00
    7   10   10      2.26      0.00
    8   10   10     -1.19      0.00
    1   11   10     -1.94      0.00
    2   11   10      2.50      0.00
    3   11   10     -4.81      0.00
    4   11   10     -7.15      0.00
    5   11   10     -0.94      0.00
    6   11   10     -0.03      0.00
    7   11   10      1.52      0.00
    8   11   10     -1.55      0.00
    0   12   10      5.05      0.00
    1   12   10      1.19      0.00
    2   12   10     -2.05      0.00
    3   12   10      3.52      0.00
    4   12   10      3.10      0.00
    5   12   10     -4.43      0.00
    6   12   10     -0.42      0.00
    7   12   10      0.26      0.00
    1   13   10     -2.84      0.00
    2   13   10      5.50      0.00
    3   13   10     -0.51      0.00
    4   13   10      5.99      0.00
    5   13   10      0.07      0.00
    6   13   10     -5.99      0.00
    0   14   10      0.53      0.00
    1   14   10     -0.12      0.00
    2   14   10      4.29      0.00
    3   14   10     -0.98      0.00
    4   14   10     -4.12      0.00
    1   15   10     -0.85      0.00
    1    1   11     -2.98      0.00
    2    1   11     -6.00      0.00
    3    1   11     -1.24      0.00
    4    1   11     -5.08      0.00
    5    1   11     -2.65      0.00
    6    1   11     -1.50      0.00
    7    1   11     -4.99      0.00
    8    1   11     -0.99      0.00
    9    1   11     -1.70      0.00
   10    1   11      3.43      0.00
   11    1   11      1.09      0.00
    0    2   11      6.71      0.00
    1    2   11      9.34      0.00
    2    2   11      0.88      0.00
    3    2   11     -4.26      0.00
    4    2   11     -5.42      0.00
    5    2   11     -0.47      0.00
    6    2   11      3.39      0.00
    7    2   11      0.23      0.00
    8    2   11      0.15      0.00
    9    2   11     -0.41      0.00
   10    2   11      0.18      0.00
   11    2   11      0.60      0.00
    1    3   11      0.12      0.00
    2    3   11      2.58      0.00
    3    3   11     -3.63      0.00
    4    3   11     -1.45      0.00
    5    3   11     -8.02      0.00
    6    3   11     -0.12      0.00
    7    3   11      3.71      0.00
    8    3   11     -0.71      0.00
    9    3   11      2.44      0.00
   10    3   11     -5.96      0.00
   11    3   11     -1.85      0.00
    0    4   11     -2.67      0.00
    1    4   11      3.14      0.00
    2    4   11      7.74      0.00
    3    4   11      6.66      0.00
    4    4   11     -1.64      0.00
    5    4   11      0.88      0.00
    6    4   11      1.35      0.00
    7    4   11      2.05      0.00
    8    4   11      1.29      0.00
    9    4   11     -3.74      0.00
   10    4   11      1.94      0.00
   11    4   11     -4.46      0.00
    1    5   11     -3.50      0.00
    2    5   11      2.74      0.00
    3    5   11     10.07      0.00
    4    5   11      8.06      0.00
    5    5   11      4.19      0.00
    6    5   11      0.37      0.00
    7    5   11      0.33      0.00
    8    5   11      3.76      0.00
    9    5   11     -2.63      0.00
   10    5   11     -0.37      0.00
    0    6   11      1.71      0.00
    1    6   11     -3.07      0.00
    2    6   11     -4.30      0.00
    3    6   11     -0.43      0.00
    4    6   11      3.28      0.00
    5    6   11     -3.71      0.00
    6    6   11      1.06      0.00
    7    6   11     -3.62      0.00
    8    6   11      1.72      0.00
    9    6   11      2.13      0.00
   10    6   11      0.21      0.00
    1    7   11      4.47      0.00
    2    7   11      1.06      0.00
    3    7   11     -0.40      0.00
    4    7   11      6.70      0.00
    5    7   11     -2.09      0.00
    6    7   11      0.37      0.00
    7    7   11      5.19      0.00
    8    7   11     -2.20      0.00
    9    7   11      1.01      0.00
   10    7   11     -4.06      0.00
    0    8   11      4.18      0.00
    1    8   11     -3.72      0.00
    2    8   11     -2.41      0.00
    3    8   11     -4.65      0.00
    4    8   11      7.49      0.00
    5    8   11      1.93      0.00
    6    8   11     -1.70      0.00
    7    8   11     -0.04      0.00
    8    8   11     -1.91      0.00
    9    8   11      2.93      0.00
    1    9   11      5.04      0.00
    2    9   11      0.16      0.00
    3    9   11      0.59      0.00
    4    9   11     -2.45      0.00
    5    9   11     -5.06      0.00
    6    9   11      1.23      0.00
    7    9   11     -1.18      0.00
    8    9   11      1.14      0.00
    9    9   11     -0.13      0.00
    0   10   11     -4.49      0.00
    1   10   11     -2.72      0.00
    2   10   11     -7.08      0.00
    3   10   11      0.82      0.00
    4   10   11      0.85      0.00
    5   10   11     -3.09      0.00
    6   10   11      2.32      0.00
    7   10   11      2.63      0.00
    8   10   11      2.54      0.00
    1   11   11     -2.04      0.00
    2   11   11     -3.00      0.00
    3   11   11     -1.52      0.00
    4   11   11     -0.32      0.00
    5   11   11     -0.51      0.00
    6   11   11     -0.47      0.00
    7   11   11     -3.67      0.00
    0   12   11     -4.40      0.00
    1   12   11     -5.37      0.00
    2   12   11      4.31      0.00
    3   12   11     -0.99      0.00
    4   12   11     -5.87      0.00
    5   12   11      1.24      0.00
    6   12   11      8.81      0.00
    1   13   11     -3.86      0.00
    2   13   11     -1.53      0.00
    3   13   11      2.42      0.00
    4   13   11      0.10      0.00
    5   13   11     -5.32      0.00
    0   14   11     -1.54      0.00
    1   14   11      0.80      0.00
    2   14   11     -1.35      0.00
    3   14   11     -0.16      0.00
    0    0   12    -10.79      0.00
    1    0   12    -12.46      0.00
    2    0   12      1.03      0.00
    3    0   12    -10.64      0.00
    4    0   12      2.18      0.00
    5    0   12     -8.22      0.00
    6    0   12     -0.09      0.00
    7    0   12     -0.82      0.00
    8    0   12      1.70      0.00
    9    0   12     -3.71      0.00
   10    0   12     -1.26      0.00
   11    0   12      5.94      0.00
    1    1   12     -4.29      0.00
    2    1   12     -0.33      0.00
    3    1   12    -15.00      0.00
    4    1   12    -11.77      0.00
    5    1   12     -6.15      0.00
    6    1   12     -2.42      0.00
    7    1   12     -3.00      0.00
    8    1   12     -5.04      0.00
    9    1   12     -1.84      0.00
   10    1   12     -0.41      0.00
   11    1   12      1.83      0.00
    0    2   12      0.47      0.00
    1    2   12     -1.95      0.00
    2    2   12      7.40      0.00
    3    2   12      6.63      0.00
    4    2   12      0.84      0.00
    5    2   12      6.07      0.00
    6    2   12      2.18      0.00
    7    2   12      1.20      0.00
    8    2   12     -3.02      0.00
    9    2   12      0.65      0.00
   10    2   12     -8.31      0.00
   11    2   12     -5.88      0.00
    1    3   12      0.36      0.00
    2    3   12     -5.81      0.00
    3    3   12     -7.24      0.00
    4    3   12     -6.55      0.00
    5    3   12     -2.19      0.00
    6    3   12      3.41      0.00
    7    3   12     -2.53      0.00
    8    3   12      2.05      0.00
    9    3   12      3.92      0.00
   10    3   12      6.94      0.00
   11    3   12     -9.21      0.00
    0    4   12     -5.49      0.00
    1    4   12      4.67      0.00
    2    4   12     -1.58      0.00
    3    4   12     -1.74      0.00
    4    4   12     -3.34      0.00
    5    4   12     -2.07      0.00
    6    4   12      3.76      0.00
    7    4   12     -1.06      0.00
    8    4   12     -1.76      0.00
    9    4   12      5.58      0.00
   10    4   12    -10.00      0.00
    1    5   12     -3.61      0.00
    2    5   12      2.17      0.00
    3    5   12      1.92      0.00
    4    5   12      2.69      0.00
    5    5   12      3.00      0.00
    6    5   12      2.69      0.00
    7    5   12      2.16      0.00
    8    5   12      1.44      0.00
    9    5   12     -8.69      0.00
   10    5   12     -1.99      0.00
    0    6   12     -3.11      0.00
    1    6   12      4.58      0.00
    2    6   12      6.81      0.00
    3    6   12     -2.50      0.00
    4    6   12      2.10      0.00
    5    6   12     -5.58      0.00
    6    6   12     -0.31      0.00
    7    6   12      1.82      0.00
    8    6   12      2.29      0.00
    9    6   12     -2.43      0.00
   10    6   12      0.03      0.00
    1    7   12     -2.90      0.00
    2    7   12      2.80      0.00
    3    7   12      8.31      0.00
    4    7   12      0.09      0.00
    5    7   12     -2.25      0.00
    6    7   12     -8.67      0.00
    7    7   12     -3.32      0.00
    8    7   12      1.20      0.00
    9    7   12     -1.51      0.00
    0    8   12     -3.05      0.00
    1    8   12      3.00      0.00
    2    8   12      0.24      0.00
    3    8   12      9.46      0.00
    4    8   12     -0.09      0.00
    5    8   12      1.01      0.00
    6    8   12      1.11      0.00
    7    8   12      1.63      0.00
    8    8   12      0.21      0.00
    9    8   12     -1.39      0.00
    1    9   12     -1.13      0.00
    2    9   12     -0.33      0.00
    3    9   12      4.84      0.00
    4    9   12      3.51      0.00
    5    9   12      6.14      0.00
    6    9   12      3.67      0.00
    7    9   12      5.07      0.00
    8    9   12      4.51      0.00
    0   10   12     -1.62      0.00
    1   10   12      1.14      0.00
    2   10   12     -4.72      0.00
    3   10   12     -1.84      0.00
    4   10   12      1.39      0.00
    5   10   12      0.35      0.00
    6   10   12      6.25      0.00
    7   10   12     -1.44      0.00
    8   10   12      0.11      0.00
    1   11   12     -0.62      0.00
    2   11   12      5.12      0.00
    3   11   12     -0.27      0.00
    4   11   12     -4.82      0.00
    5   11   12      0.13      0.00
    6   11   12      1.87      0.00
    7   11   12      1.25      0.00
    0   12   12      2.86      0.00
    1   12   12     -0.27      0.00
    2   12   12      1.52      0.00
    3   12   12      3.26      0.00
    4   12   12      3.82      0.00
    5   12   12     -3.19      0.00
    6   12   12     -1.49      0.00
    1   13   12      0.23      0.00
    2   13   12     -1.36      0.00
    3   13   12      3.20      0.00
    4   13   12      5.83      0.00
    5   13   12     -2.30      0.00
    0   14   12     -5.09      0.00
    1   14   12     -1.93      0.00
    2   14   12      0.70      0.00
    3   14   12     -0.62      0.00
    1    1   13      1.23      0.00
    2    1   13      1.50      0.00
    3    1   13      0.77      0.00
    4    1   13     -0.93      0.00
    5    1   13      4.54      0.00
    6    1   13      1.02      0.00
    7    1   13     -4.67      0.00
    8    1   13      0.27      0.00
    9    1   13      3.70      0.00
   10    1   13      3.98      0.00
   11    1   13      0.87      0.00
    0    2   13     -7.81      0.00
    1    2   13      3.24      0.00
    2    2   13     -2.08      0.00
    3    2   13      1.11      0.00
    4    2   13     -7.11      0.00
    5    2   13     -1.49      0.00
    6    2   13      3.36      0.00
    7    2   13      2.62      0.00
    8    2   13     -0.37      0.00
    9    2   13     -0.83      0.00
   10    2   13      0.01      0.00
   11    2   13      1.01      0.00
    1    3   13      6.05      0.00
    2    3   13      0.46      0.00
    3    3   13     -7.20      0.00
    4    3   13     -2.59      0.00
    5    3   13     -7.75      0.00
    6    3   13     -2.57      0.00
    7    3   13     -0.92      0.00
    8    3   13     -2.03      0.00
    9    3   13     -1.52      0.00
   10    3   13     -1.40      0.00
    0    4   13     -6.21      0.00
    1    4   13      4.35      0.00
    2    4   13     10.60      0.00
    3    4   13      4.07      0.00
    4    4   13     -0.01      0.00
    5    4   13      0.22      0.00
    6    4   13      7.36      0.00
    7    4   13      4.37      0.00
    8    4   13      0.56      0.00
    9    4   13    -10.05      0.00
   10    4   13     -0.82      0.00
    1    5   13     -4.29      0.00
    2    5   13      1.91      0.00
    3    5   13      0.81      0.00
    4    5   13      1.25      0.00
    5    5   13      3.58      0.00
    6    5   13     -0.79      0.00
    7    5   13      5.66      0.00
    8    5   13      2.38      0.00
    9    5   13     -0.29      0.00
   10    5   13     -2.62      0.00
    0    6   13      4.86      0.00
    1    6   13     -4.20      0.00
    2    6   13     -7.18      0.00
    3    6   13      1.30      0.00
    4    6   13     -1.29      0.00
    5    6   13     -2.69      0.00
    6    6   13     -2.19      0.00
    7    6   13     -2.30      0.00
    8    6   13      0.92      0.00
    9    6   13      6.79      0.00
   10    6   13      0.72      0.00
    1    7   13      3.71      0.00
    2    7   13     -4.68      0.00
    3    7   13     -0.99      0.00
    4    7   13      4.46      0.00
    5    7   13     -0.10      0.00
    6    7   13      3.01      0.00
    7    7   13      6.05      0.00
    8    7   13     -5.97      0.00
    9    7   13      0.84      0.00
    0    8   13      2.88      0.00
    1    8   13      1.71      0.00
    2    8   13      2.03      0.00
    3    8   13     -3.02      0.00
    4    8   13      4.92      0.00
    5    8   13      3.90      0.00
    6    8   13     -1.03      0.00
    7    8   13     -2.23      0.00
    8    8   13     -0.72      0.00
    9    8   13      3.81      0.00
    1    9   13      3.58      0.00
    2    9   13     -1.88      0.00
    3    9   13      2.40      0.00
    4    9   13      0.20      0.00
    5    9   13     -7.70      0.00
    6    9   13      0.92      0.00
    7    9   13      0.34      0.00
    8    9   13      1.12      0.00
    0   10   13      0.98      0.00
    1   10   13     -6.00      0.00
    2   10   13     -2.16      0.00
    3   10   13      3.80      0.00
    4   10   13      2.07      0.00
    5   10   13     -3.45      0.00
    6   10   13      3.78      0.00
    7   10   13      6.83      0.00
    1   11   13      0.82      0.00
    2   11   13     -2.89      0.00
    3   11   13     -2.52      0.00
    4   11   13      1.56      0.00
    5   11   13      2.23      0.00
    6   11   13      0.14      0.00
    7   11   13     -2.94      0.00
    0   12   13      1.75      0.00
    1   12   13     -2.34      0.00
    2   12   13     11.14      0.00
    3   12   13      2.54      0.00
    4   12   13     -9.48      0.00
    5   12   13      2.37      0.00
    6   12   13     10.55      0.00
    1   13   13     -4.22      0.00
    2   13   13      6.15      0.00
    3   13   13      3.63      0.00
    4   13   13      1.32      0.00
    0   14   13     -2.88      0.00
    1   14   13      2.23      0.00
    2   14   13     -2.60      0.00
    0    0   14      0.77      0.00
    1    0   14     -4.57      0.00
    2    0   14     -8.31      0.00
    3    0   14     -3.71      0.00
    4    0   14      2.32      0.00
    5    0   14     -6.63      0.00
    6    0   14      2.88      0.00
    7    0   14     -3.59      0.00
    8    0   14      1.38      0.00
    9    0   14     -4.61      0.00
   10    0   14     -3.07      0.00
    1    1   14      1.72      0.00
    2    1   14     -1.25      0.00
    3    1   14    -12.81      0.00
    4    1   14     -6.85      0.00
    5    1   14     -4.53      0.00
    6    1   14     -1.77      0.00
    7    1   14      1.54      0.00
    8    1   14      2.15      0.00
    9    1   14     -1.67      0.00
   10    1   14     -1.65      0.00
    0    2   14     -8.76      0.00
    1    2   14     -4.51      0.00
    2    2   14      4.96      0.00
    3    2   14      4.87      0.00
    4    2   14     -0.16      0.00
    5    2   14      4.94      0.00
    6    2   14      0.34      0.00
    7    2   14     -2.58      0.00
    8    2   14     -1.63      0.00
    9    2   14      2.79      0.00
   10    2   14     -4.05      0.00
    1    3   14    -10.27      0.00
    2    3   14     -4.74      0.00
    3    3   14     -2.85      0.00
    4    3   14     -5.56      0.00
    5    3   14     -0.18      0.00
    6    3   14      3.15      0.00
    7    3   14     -4.76      0.00
    8    3   14      1.23      0.00
    9    3   14      4.51      0.00
   10    3   14      2.03      0.00
    0    4   14      5.22      0.00
    1    4   14      1.95      0.00
    2    4   14     -3.55      0.00
    3    4   14     -4.76      0.00
    4    4   14     -2.83      0.00
    5    4   14     -1.10      0.00
    6    4   14      5.19      0.00
    7    4   14      2.58      0.00
    8    4   14     -5.24      0.00
    9    4   14     -3.15      0.00
   10    4   14     -5.50      0.00
    1    5   14      3.64      0.00
    2    5   14      4.55      0.00
    3    5   14      0.87      0.00
    4    5   14      1.36      0.00
    5    5   14      5.40      0.00
    6    5   14     -1.44      0.00
    7    5   14      0.01      0.00
    8    5   14     -2.20      0.00
    9    5   14     -9.92      0.00
   10    5   14     -3.26      0.00
    0    6   14     -3.67      0.00
    1    6   14      4.81      0.00
    2    6   14      8.25      0.00
    3    6   14      0.20      0.00
    4    6   14     -0.22      0.00
    5    6   14     -4.03      0.00
    6    6   14      1.19      0.00
    7    6   14      2.34      0.00
    8    6   14      0.14      0.00
    9    6   14     -5.91      0.00
    1    7   14     -5.09      0.00
    2    7   14     -0.10      0.00
    3    7   14      5.85      0.00
    4    7   14     -0.80      0.00
    5    7   14     -2.40      0.00
    6    7   14      3.89      0.00
    7    7   14     -8.90      0.00
    8    7   14      2.11      0.00
    9    7   14     -1.41      0.00
    0    8   14      1.89      0.00
    1    8   14      1.27      0.00
    2    8   14      0.37      0.00
    3    8   14      2.25      0.00
    4    8   14      0.40      0.00
    5    8   14     -5.61      0.00
    6    8   14     -0.44      0.00
    7    8   14      1.70      0.00
    8    8   14      0.16      0.00
    1    9   14      0.35      0.00
    2    9   14      2.48      0.00
    3    9   14     -2.09      0.00
    4    9   14      2.88      0.00
    5    9   14      5.46      0.00
    6    9   14      4.81      0.00
    7    9   14      0.54      0.00
    8    9   14      3.78      0.00
    0   10   14     -3.28      0.00
    1   10   14     -5.30      0.00
    2   10   14     -5.93      0.00
    3   10   14     -2.54      0.00
    4   10   14      1.67      0.00
    5   10   14      0.05      0.00
    6   10   14     -0.59      0.00
    7   10   14     -3.90      0.00
    1   11   14      1.84      0.00
    2   11   14      4.90      0.00
    3   11   14      1.14      0.00
    4   11   14     -2.92      0.00
    5   11   14     -4.09      0.00
    6   11   14      2.32      0.00
    0   12   14     -0.37      0.00
    1   12   14     -0.71      0.00
    2   12   14      6.39      0.00
    3   12   14      5.65      0.00
    4   12   14      0.80      0.00
    5   12   14     -0.82      0.00
    1   13   14      1.89      0.00
    2   13   14     -6.07      0.00
    3   13   14      7.19      0.00
    1    1   15      6.30      0.00
    2    1   15      7.27      0.00
    3    1   15      1.91      0.00
    4    1   15      1.08      0.00
    5    1   15      8.22      0.00
    6    1   15      3.41      0.00
    7    1   15     -4.68      0.00
    8    1   15     -3.66      0.00
    9    1   15      8.97      0.00
   10    1   15      2.54      0.00
    0    2   15     -7.78      0.00
    1    2   15     -2.47      0.00
    2    2   15      0.47      0.00
    3    2   15      3.43      0.00
    4    2   15     -4.40      0.00
    5    2   15     -0.28      0.00
    6    2   15      1.35      0.00
    7    2   15      5.47      0.00
    8    2   15     -1.16      0.00
    9    2   15     -0.46      0.00
   10    2   15     -0.26      0.00
    1    3   15      2.74      0.00
    2    3   15     -3.40      0.00
    3    3   15     -6.29      0.00
    4    3   15     -4.33      0.00
    5    3   15     -6.63      0.00
    6    3   15      0.32      0.00
    7    3   15     -2.14      0.00
    8    3   15     -1.11      0.00
    9    3   15     -2.69      0.00
   10    3   15      2.72      0.00
    0    4   15     -6.47      0.00
    1    4   15      2.75      0.00
    2    4   15      9.26      0.00
    3    4   15     -0.95      0.00
    4    4   15      0.53      0.00
    5    4   15     -3.42      0.00
    6    4   15      4.00      0.00
    7    4   15     -0.07      0.00
    8    4   15     -0.53      0.00
    9    4   15    -14.19      0.00
   10    4   15     -0.69      0.00
    1    5   15     -5.85      0.00
    2    5   15     -1.54      0.00
    3    5   15     -2.55      0.00
    4    5   15     -0.19      0.00
    5    5   15      1.45      0.00
    6    5   15      0.03      0.00
    7    5   15      5.12      0.00
    8    5   15      5.91      0.00
    9    5   15      1.47      0.00
    0    6   15      1.56      0.00
    1    6   15     -3.27      0.00
    2    6   15     -5.65      0.00
    3    6   15     -1.10      0.00
    4    6   15     -0.88      0.00
    5    6   15     -1.42      0.00
    6    6   15     -1.92      0.00
    7    6   15     -2.23      0.00
    8    6   15     -1.76      0.00
    9    6   15      6.71      0.00
    1    7   15     -0.59      0.00
    2    7   15     -6.32      0.00
    3    7   15     -0.63      0.00
    4    7   15      5.17      0.00
    5    7   15     -0.89      0.00
    6    7   15      6.55      0.00
    7    7   15      1.91      0.00
    8    7   15     -8.53      0.00
    9    7   15      2.77      0.00
    0    8   15      8.88      0.00
    1    8   15      4.45      0.00
    2    8   15      5.68      0.00
    3    8   15     -0.96      0.00
    4    8   15     -0.34      0.00
    5    8   15      1.72      0.00
    6    8   15     -0.16      0.00
    7    8   15     -1.43      0.00
    8    8   15      0.99      0.00
    1    9   15      1.55      0.00
    2    9   15     -3.89      0.00
    3    9   15      0.92      0.00
    4    9   15      1.19      0.00
    5    9   15     -3.33      0.00
    6    9   15     -1.77      0.00
    7    9   15      3.82      0.00
    0   10   15      0.85      0.00
    1   10   15     -2.72      0.00
    2   10   15     -0.69      0.00
    3   10   15      5.25      0.00
    4   10   15     -0.08      0.00
    5   10   15     -2.85      0.00
    6   10   15      0.55      0.00
    7   10   15      8.24      0.00
    1   11   15      1.88      0.00
    2   11   15     -1.98      0.00
    3   11   15     -0.81      0.00
    4   11   15     -4.68      0.00
    5   11   15      4.98      0.00
    6   11   15     -0.23      0.00
    0   12   15     -0.81      0.00
    1   12   15      3.50      0.00
    2   12   15      7.25      0.00
    3   12   15      6.22      0.00
    4   12   15     -8.87      0.00
    1   13   15     -2.70      0.00
    2   13   15      8.92      0.00
    0    0   16     11.25      0.00
    1    0   16     -1.08      0.00
    2    0   16     -8.74      0.00
    3    0   16     -2.36      0.00
    4    0   16     -4.81      0.00
    5    0   16     -7.34      0.00
    6    0   16      0.45      0.00
    7    0   16     -3.78      0.00
    8    0   16     -1.56      0.00
    9    0   16     -2.07      0.00
   10    0   16     -1.18      0.00
    1    1   16      8.59      0.00
    2    1   16      1.57      0.00
    3    1   16     -7.42      0.00
    4    1   16     -1.55      0.00
    5    1   16     -0.84      0.00
    6    1   16     -2.92      0.00
    7    1   16      1.51      0.00
    8    1   16     13.86      0.00
    9    1   16     -1.86      0.00
   10    1   16     -0.35      0.00
    0    2   16     -8.53      0.00
    1    2   16     -5.22      0.00
    2    2   16      8.31      0.00
    3    2   16      5.10      0.00
    4    2   16      3.26      0.00
    5    2   16      3.73      0.00
    6    2   16     -1.05      0.00
    7    2   16     -8.15      0.00
    8    2   16     -1.41      0.00
    9    2   16      2.33      0.00
   10    2   16      2.30      0.00
    1    3   16    -11.17      0.00
    2    3   16     -1.25      0.00
    3    3   16      2.93      0.00
    4    3   16     -0.59      0.00
    5    3   16      6.00      0.00
    6    3   16      4.74      0.00
    7    3   16     -3.16      0.00
    8    3   16      1.22      0.00
    9    3   16      2.44      0.00
    0    4   16      6.44      0.00
    1    4   16     -1.38      0.00
    2    4   16     -7.43      0.00
    3    4   16     -6.74      0.00
    4    4   16     -1.48      0.00
    5    4   16     -1.41      0.00
    6    4   16      4.61      0.00
    7    4   16      5.26      0.00
    8    4   16     -4.31      0.00
    9    4   16     -5.36      0.00
    1    5   16      8.37      0.00
    2    5   16      6.86      0.00
    3    5   16     -0.09      0.00
    4    5   16      0.04      0.00
    5    5   16      6.86      0.00
    6    5   16     -4.62      0.00
    7    5   16     -1.25      0.00
    8    5   16     -8.90      0.00
    9    5   16     -5.70      0.00
    0    6   16     -8.00      0.00
    1    6   16      0.24      0.00
    2    6   16      4.65      0.00
    3    6   16      7.52      0.00
    4    6   16     -2.43      0.00
    5    6   16     -0.46      0.00
    6    6   16      0.15      0.00
    7    6   16      2.83      0.00
    8    6   16     -7.16      0.00
    9    6   16    -10.47      0.00
    1    7   16     -4.77      0.00
    2    7   16     -3.19      0.00
    3    7   16      1.13      0.00
    4    7   16     -4.25      0.00
    5    7   16     -2.64      0.00
    6    7   16     11.04      0.00
    7    7   16     -4.56      0.00
    8    7   16      0.45      0.00
    0    8   16      0.29      0.00
    1    8   16     -0.71      0.00
    2    8   16     -1.46      0.00
    3    8   16     -1.02      0.00
    4    8   16     -0.80      0.00
    5    8   16     -7.76      0.00
    6    8   16     -0.42      0.00
    7    8   16     -0.18      0.00
    8    8   16      1.20      0.00
    1    9   16      0.35      0.00
    2    9   16     -0.98      0.00
    3    9   16     -7.85      0.00
    4    9   16     -2.38      0.00
    5    9   16      6.93      0.00
    6    9   16      2.05      0.00
    7    9   16     -2.42      0.00
    0   10   16     -4.46      0.00
    1   10   16     -2.16      0.00
    2   10   16     -8.65      0.00
    3   10   16     -1.29      0.00
    4   10   16     -4.63      0.00
    5   10   16      5.17      0.00
    6   10   16     -6.16      0.00
    1   11   16      2.53      0.00
    2   11   16      1.11      0.00
    3   11   16      0.60      0.00
    4   11   16     -3.46      0.00
    5   11   16     -7.13      0.00
    0   12   16     -0.86      0.00
    1   12   16     -6.85      0.00
    2   12   16      9.13      0.00
    3   12   16      4.80      0.00
    4   12   16     -0.97      0.00
    1   13   16     -1.39      0.00
    1    1   17      6.89      0.00
    2    1   17      4.35      0.00
    3    1   17      1.34      0.00
    4    1   17     -4.59      0.00
    5    1   17      6.23      0.00
    6    1   17      2.70      0.00
    7    1   17     -3.53      0.00
    8    1   17     -5.64      0.00
    9    1   17      5.22      0.00
    0    2   17     -8.77      0.00
    1    2   17     -1.54      0.00
    2    2   17     -0.03      0.00
    3    2   17      3.75      0.00
    4    2   17     -5.30      0.00
    5    2   17      2.25      0.00
    6    2   17      1.34      0.00
    7    2   17      5.09      0.00
    8    2   17     -1.19      0.00
    9    2   17      1.30      0.00
    1    3   17      0.15      0.00
    2    3   17     -4.58      0.00
    3    3   17     -2.51      0.00
    4    3   17     -4.53      0.00
    5    3   17     -6.12      0.00
    6    3   17      4.12      0.00
    7    3   17      1.70      0.00
    8    3   17     -1.26      0.00
    9    3   17     -0.23      0.00
    0    4   17     -8.27      0.00
    1    4   17      4.99      0.00
    2    4   17      0.84      0.00
    3    4   17     -0.58      0.00
    4    4   17     -0.95      0.00
    5    4   17     -2.98      0.00
    6    4   17     -1.15      0.00
    7    4   17     -4.32      0.00
    8    4   17     -1.32      0.00
    9    4   17    -10.58      0.00
    1    5   17     -2.63      0.00
    2    5   17     -1.43      0.00
    3    5   17      1.08      0.00
    4    5   17      4.11      0.00
    5    5   17      4.35      0.00
    6    5   17      1.83      0.00
    7    5   17      0.45      0.00
    8    5   17      9.29      0.00
    9    5   17      2.12      0.00
    0    6   17      1.79      0.00
    1    6   17     -3.18      0.00
    2    6   17     -5.96      0.00
    3    6   17     -4.63      0.00
    4    6   17     -1.01      0.00
    5    6   17     -0.05      0.00
    6    6   17     -0.25      0.00
    7    6   17     -8.04      0.00
    8    6   17     -0.64      0.00
    1    7   17     -0.96      0.00
    2    7   17     -4.39      0.00
    3    7   17      0.79      0.00
    4    7   17      8.27      0.00
    5    7   17     -0.33      0.00
    6    7   17      3.94      0.00
    7    7   17     -3.92      0.00
    8    7   17     -7.28      0.00
    0    8   17      7.46      0.00
    1    8   17      1.41      0.00
    2    8   17      3.74      0.00
    3    8   17      1.64      0.00
    4    8   17     -3.97      0.00
    5    8   17     -0.24      0.00
    6    8   17     -1.39      0.00
    7    8   17      0.24      0.00
    1    9   17      0.85      0.00
    2    9   17     -4.49      0.00
    3    9   17      0.18      0.00
    4    9   17      0.62      0.00
    5    9   17      0.94      0.00
    6    9   17     -1.99      0.00
    0   10   17      0.96      0.00
    1   10   17     -5.05      0.00
    2   10   17     -1.48      0.00
    3   10   17      2.14      0.00
    4   10   17     -2.75      0.00
    5   10   17     -1.34      0.00
    1   11   17     -0.93      0.00
    2   11   17      1.08      0.00
    3   11   17     -3.32      0.00
    4   11   17     -6.97      0.00
    0   12   17     -5.26      0.00
    1   12   17      1.03      0.00
    2   12   17      2.12      0.00
    3   12   17     -1.49      0.00
    0    0   18      8.36      0.00
    1    0   18      7.65      0.00
    2    0   18     -5.81      0.00
    3    0   18     -1.08      0.00
    4    0   18    -10.86      0.00
    5    0   18     -4.66      0.00
    6    0   18     -2.77      0.00
    7    0   18     -5.67      0.00
    8    0   18     -2.07      0.00
    9    0   18     -0.20      0.00
    1    1   18     11.46      0.00
    2    1   18      3.18      0.00
    3    1   18     -4.34      0.00
    4    1   18      3.21      0.00
    5    1   18     -1.84      0.00
    6    1   18     -4.86      0.00
    7    1   18     -2.39      0.00
    8    1   18     19.24      0.00
    9    1   18     -1.11      0.00
    0    2   18     -7.54      0.00
    1    2   18     -2.16      0.00
    2    2   18      8.98      0.00
    3    2   18      6.00      0.00
    4    2   18      8.24      0.00
    5    2   18     -0.95      0.00
    6    2   18     -1.19      0.00
    7    2   18    -11.09      0.00
    8    2   18     -4.20      0.00
    9    2   18     -0.75      0.00
    1    3   18     -6.83      0.00
    2    3   18     -2.93      0.00
    3    3   18      1.54      0.00
    4    3   18      1.27      0.00
    5    3   18      4.53      0.00
    6    3   18      2.08      0.00
    7    3   18     -1.75      0.00
    8    3   18      0.73      0.00
    9    3   18     -0.35      0.00
    0    4   18      7.41      0.00
    1    4   18     -5.02      0.00
    2    4   18     -7.05      0.00
    3    4   18     -4.74      0.00
    4    4   18      2.50      0.00
    5    4   18     -3.71      0.00
    6    4   18      5.04      0.00
    7    4   18      4.08      0.00
    8    4   18      3.41      0.00
    1    5   18      8.78      0.00
    2    5   18      7.31      0.00
    3    5   18     -2.86      0.00
    4    5   18     -2.66      0.00
    5    5   18      3.62      0.00
    6    5   18     -4.63      0.00
    7    5   18     -0.16      0.00
    8    5   18    -11.77      0.00
    0    6   18     -5.24      0.00
    1    6   18     -7.32      0.00
    2    6   18      2.93      0.00
    3    6   18     11.27      0.00
    4    6   18      1.80      0.00
    5    6   18     -0.39      0.00
    6    6   18     -1.89      0.00
    7    6   18      6.17      0.00
    8    6   18    -12.70      0.00
    1    7   18     -1.89      0.00
    2    7   18     -3.35      0.00
    3    7   18      1.12      0.00
    4    7   18     -6.07      0.00
    5    7   18     -0.07      0.00
    6    7   18     12.01      0.00
    7    7   18      3.22      0.00
    0    8   18      0.64      0.00
    1    8   18      1.28      0.00
    2    8   18     -4.34      0.00
    3    8   18     -0.12      0.00
    4    8   18     -1.58      0.00
    5    8   18     -2.52      0.00
    6    8   18     -1.46      0.00
    7    8   18      0.10      0.00
    1    9   18     -0.12      0.00
    2    9   18     -3.99      0.00
    3    9   18     -8.48      0.00
    4    9   18     -2.70      0.00
    5    9   18      9.95      0.00
    6    9   18     -0.55      0.00
    0   10   18     -0.76      0.00
    1   10   18      5.79      0.00
    2   10   18     -3.14      0.00
    3   10   18     -1.61      0.00
    4   10   18     -4.14      0.00
    5   10   18      4.60      0.00
    1   11   18      0.92      0.00
    2   11   18     -0.88      0.00
    3   11   18      0.73      0.00
    0   12   18     -2.54      0.00
    1   12   18     -9.23      0.00
    1    1   19      3.20      0.00
    2    1   19      0.97      0.00
    3    1   19      1.71      0.00
    4    1   19     -9.60      0.00
    5    1   19      4.42      0.00
    6    1   19      4.96      0.00
    7    1   19     -2.20      0.00
    8    1   19     -0.13      0.00
    0    2   19     -6.98      0.00
    1    2   19     -0.67      0.00
    2    2   19      3.18      0.00
    3    2   19      0.57      0.00
    4    2   19     -5.80      0.00
    5    2   19      7.47      0.00
    6    2   19      3.04      0.00
    7    2   19      3.89      0.00
    8    2   19     -0.26      0.00
    1    3   19      2.64      0.00
    2    3   19     -2.01      0.00
    3    3   19      0.19      0.00
    4    3   19     -5.57      0.00
    5    3   19     -8.34      0.00
    6    3   19      0.43      0.00
    7    3   19      6.47      0.00
    8    3   19     -3.21      0.00
    0    4   19     -4.70      0.00
    1    4   19      2.17      0.00
    2    4   19     -3.69      0.00
    3    4   19      2.13      0.00
    4    4   19     -1.29      0.00
    5    4   19      4.08      0.00
    6    4   19     -7.48      0.00
    7    4   19      0.14      0.00
    8    4   19     -3.84      0.00
    1    5   19     -0.21      0.00
    2    5   19     -1.74      0.00
    3    5   19      1.85      0.00
    4    5   19      5.05      0.00
    5    5   19      6.33      0.00
    6    5   19      1.53      0.00
    7    5   19     -3.52      0.00
    8    5   19      7.25      0.00
    0    6   19      2.60      0.00
    1    6   19     -0.08      0.00
    2    6   19     -9.59      0.00
    3    6   19     -3.96      0.00
    4    6   19     -5.42      0.00
    5    6   19      2.30      0.00
    6    6   19      0.32      0.00
    7    6   19     -9.06      0.00
    1    7   19     -0.33      0.00
    2    7   19     -1.51      0.00
    3    7   19      2.26      0.00
    4    7   19      6.67      0.00
    5    7   19     -2.26      0.00
    6    7   19     -1.39      0.00
    7    7   19     -6.33      0.00
    0    8   19     -4.27      0.00
    1    8   19     -4.34      0.00
    2    8   19      0.91      0.00
    3    8   19      3.07      0.00
    4    8   19      0.52      0.00
    5    8   19     -2.06      0.00
    6    8   19      0.19      0.00
    1    9   19      0.97      0.00
    2    9   19     -2.34      0.00
    3    9   19     -0.53      0.00
    4    9   19     -0.68      0.00
    5    9   19      1.13      0.00
    0   10   19      0.10      0.00
    1   10   19     -7.15      0.00
    2   10   19     -0.24      0.00
    3   10   19     -2.13      0.00
    4   10   19     -1.61      0.00
    1   11   19     -0.33      0.00
    2   11   19     -0.28      0.00
    0    0   20     14.30      0.00
    1    0   20     12.47      0.00
    2    0   20     -3.82      0.00
    3    0   20      1.69      0.00
    4    0   20     -7.37      0.00
    5    0   20      1.76      0.00
    6    0   20     -4.42      0.00
    7    0   20     -5.42      0.00
    8    0   20      0.35      0.00
    1    1   20      8.94      0.00
    2    1   20      3.45      0.00
    3    1   20     -3.26      0.00
    4    1   20      8.48      0.00
    5    1   20     -1.59      0.00
    6    1   20     -4.79      0.00
    7    1   20     -0.92      0.00
    8    1   20     13.40      0.00
    0    2   20     -4.80      0.00
    1    2   20     -3.06      0.00
    2    2   20      4.97      0.00
    3    2   20      3.80      0.00
    4    2   20      7.32      0.00
    5    2   20     -1.42      0.00
    6    2   20     -4.64      0.00
    7    2   20     -5.08      0.00
    8    2   20     -8.04      0.00
    1    3   20     -6.46      0.00
    2    3   20     -1.70      0.00
    3    3   20      0.79      0.00
    4    3   20      2.55      0.00
    5    3   20     -2.22      0.00
    6    3   20     -1.66      0.00
    7    3   20     -0.80      0.00
    8    3   20     -0.20      0.00
    0    4   20      9.29      0.00
    1    4   20     -2.41      0.00
    2    4   20     -4.55      0.00
    3    4   20      2.33      0.00
    4    4   20      7.33      0.00
    5    4   20     -4.62      0.00
    6    4   20      7.57      0.00
    7    4   20      2.34      0.00
    1    5   20     10.18      0.00
    2    5   20      4.73      0.00
    3    5   20     -3.69      0.00
    4    5   20     -3.78      0.00
    5    5   20     -5.02      0.00
    6    5   20     -0.66      0.00
    7    5   20     -1.88      0.00
    0    6   20     -0.89      0.00
    1    6   20     -6.65      0.00
    2    6   20      1.53      0.00
    3    6   20      5.57      0.00
    4    6   20      6.76      0.00
    5    6   20     -7.71      0.00
    6    6   20      0.56      0.00
    7    6   20      4.44      0.00
    1    7   20     -0.45      0.00
    2    7   20     -1.53      0.00
    3    7   20      3.21      0.00
    4    7   20     -6.35      0.00
    5    7   20      4.18      0.00
    6    7   20      8.48      0.00
    0    8   20      5.76      0.00
    1    8   20      1.66      0.00
    2    8   20     -5.18      0.00
    3    8   20     -2.85      0.00
    4    8   20      1.85      0.00
    5    8   20      0.56      0.00
    1    9   20      1.22      0.00
    2    9   20     -6.28      0.00
    3    9   20     -5.42      0.00
    4    9   20      0.75      0.00
    0   10   20      3.09      0.00
    1   10   20      3.77      0.00
    2   10   20      4.45      0.00
    3   10   20     -2.17      0.00
    1    1   21     -1.69      0.00
    2    1   21      2.76      0.00
    3    1   21     -0.09      0.00
    4    1   21     -5.46      0.00
    5    1   21      3.83      0.00
    6    1   21     10.53      0.00
    7    1   21     -1.93      0.00
    0    2   21     -2.63      0.00
    1    2   21      1.43      0.00
    2    2   21      5.16      0.00
    3    2   21     -2.87      0.00
    4    2   21     -2.44      0.00
    5    2   21      9.80      0.00
    6    2   21      3.87      0.00
    7    2   21      2.49      0.00
    1    3   21      2.84      0.00
    2    3   21     -0.73      0.00
    3    3   21      1.68      0.00
    4    3   21     -6.52      0.00
    5    3   21    -11.79      0.00
    6    3   21     -3.08      0.00
    7    3   21      4.26      0.00
    0    4   21     -1.42      0.00
    1    4   21     -0.75      0.00
    2    4   21     -3.08      0.00
    3    4   21      3.43      0.00
    4    4   21      4.94      0.00
    5    4   21      5.66      0.00
    6    4   21     -8.33      0.00
    7    4   21      1.27      0.00
    1    5   21     -2.37      0.00
    2    5   21     -4.30      0.00
    3    5   21      2.30      0.00
    4    5   21      0.68      0.00
    5    5   21      5.13      0.00
    6    5   21     -0.10      0.00
    0    6   21      2.39      0.00
    1    6   21      5.92      0.00
    2    6   21     -4.74      0.00
    3    6   21     -1.72      0.00
    4    6   21     -6.69      0.00
    5    6   21      2.23      0.00
    6    6   21      2.44      0.00
    1    7   21     -4.62      0.00
    2    7   21      3.92      0.00
    3    7   21      5.52      0.00
    4    7   21     -0.05      0.00
    5    7   21     -5.79      0.00
    0    8   21     -5.43      0.00
    1    8   21     -7.94      0.00
    2    8   21      3.39      0.00
    3    8   21      2.81      0.00
    4    8   21      5.95      0.00
    1    9   21      0.83      0.00
    2    9   21      0.93      0.00
    3    9   21     -3.32      0.00
    0   10   21     -4.94      0.00
    1   10   21     -1.91      0.00
    0    0   22     18.78      0.00
    1    0   22      7.50      0.00
    2    0   22     -1.74      0.00
    3    0   22      3.00      0.00
    4    0   22      0.97      0.00
    5    0   22      3.43      0.00
    6    0   22     -4.49      0.00
    7    0   22      0.14      0.00
    1    1   22      5.37      0.00
    2    1   22      1.57      0.00
    3    1   22     -0.08      0.00
    4    1   22      8.61      0.00
    5    1   22      4.53      0.00
    6    1   22     -3.04      0.00
    7    1   22      2.42      0.00
    0    2   22     -0.34      0.00
    1    2   22     -5.56      0.00
    2    2   22      2.20      0.00
    3    2   22     -0.45      0.00
    4    2   22      2.22      0.00
    5    2   22      5.02      0.00
    6    2   22     -5.69      0.00
    7    2   22      2.03      0.00
    1    3   22     -5.46      0.00
    2    3   22      4.46      0.00
    3    3   22      5.89      0.00
    4    3   22      2.64      0.00
    5    3   22     -1.78      0.00
    6    3   22     -2.19      0.00
    0    4   22      5.86      0.00
    1    4   22     -0.07      0.00
    2    4   22     -1.69      0.00
    3    4   22      3.98      0.00
    4    4   22      8.32      0.00
    5    4   22     -3.35      0.00
    6    4   22      7.08      0.00
    1    5   22      9.64      0.00
    2    5   22     -0.10      0.00
    3    5   22     -3.51      0.00
    4    5   22     -1.84      0.00
    5    5   22    -10.99      0.00
    6    5   22     -0.56      0.00
    0    6   22      0.09      0.00
    1    6   22      0.25      0.00
    2    6   22     -0.83      0.00
    3    6   22     -2.76      0.00
    4    6   22      4.77      0.00
    5    6   22    -10.09      0.00
    1    7   22     -1.42      0.00
    2    7   22      1.12      0.00
    3    7   22      0.57      0.00
    4    7   22     -4.20      0.00
    0    8   22      5.80      0.00
    1    8   22      0.51      0.00
    2    8   22     -5.44      0.00
    3    8   22     -4.38      0.00
    1    9   22      2.82      0.00
    1    1   23     -2.79      0.00
    2    1   23      3.05      0.00
    3    1   23     -1.68      0.00
    4    1   23      0.59      0.00
    5    1   23      3.64      0.00
    6    1   23      9.49      0.00
    0    2   23     -0.17      0.00
    1    2   23      2.46      0.00
    2    2   23      1.41      0.00
    3    2   23     -3.68      0.00
    4    2   23      0.24      0.00
    5    2   23      4.47      0.00
    6    2   23      3.33      0.00
    1    3   23     -0.62      0.00
    2    3   23      0.77      0.00
    3    3   23     -0.83      0.00
    4    3   23     -2.44      0.00
    5    3   23    -10.48      0.00
    6    3   23     -1.06      0.00
    0    4   23     -7.27      0.00
    1    4   23      5.74      0.00
    2    4   23     -4.94      0.00
    3    4   23      4.45      0.00
    4    4   23      9.73      0.00
    5    4   23      0.47      0.00
    1    5   23     -4.55      0.00
    2    5   23     -3.28      0.00
    3    5   23      4.17      0.00
    4    5   23     -0.87      0.00
    5    5   23      2.80      0.00
    0    6   23     -0.27      0.00
    1    6   23     11.51      0.00
    2    6   23      2.69      0.00
    3    6   23      0.60      0.00
    4    6   23     -3.72      0.00
    1    7   23     -9.00      0.00
    2    7   23      8.08      0.00
    3    7   23      7.49      0.00
    0    8   23      3.94      0.00
    1    8   23     -4.12      0.00
    0    0   24      8.58      0.00
    1    0   24      4.91      0.00
    2    0   24      2.72      0.00
    3    0   24      3.61      0.00
    4    0   24      6.65      0.00
    5    0   24     -2.67      0.00
    1    1   24      2.60      0.00
    2    1   24     -0.29      0.00
    3    1   24      0.93      0.00
    4    1   24      3.96      0.00
    5    1   24      7.61      0.00
    0    2   24     -3.45      0.00
    1    2   24      1.33      0.00
    2    2   24     -1.12      0.00
    3    2   24     -0.63      0.00
    4    2   24     -1.54      0.00
    5    2   24      8.45      0.00
    1    3   24     -0.74      0.00
    2    3   24      6.90      0.00
    3    3   24      6.85      0.00
    4    3   24      1.69      0.00
    5    3   24      2.24      0.00
    0    4   24     -3.04      0.00
    1    4   24     -1.58      0.00
    2    4   24     -1.68      0.00
    3    4   24      0.11      0.00
    4    4   24      1.35      0.00
    1    5   24      4.25      0.00
    2    5   24     -4.12      0.00
    3    5   24     -3.61      0.00
    4    5   24     -0.51      0.00
    0    6   24      1.76      0.00
    1    6   24      1.39      0.00
    2    6   24     -0.48      0.00
    3    6   24     -5.04      0.00
    1    7   24     -1.19      0.00
    1    1   25      0.19      0.00
    2    1   25      0.70      0.00
    3    1   25     -1.25      0.00
    4    1   25      2.58      0.00
    0    2   25      2.32      0.00
    1    2   25      2.17      0.00
    2    2   25     -1.27      0.00
    3    2   25      0.55      0.00
    4    2   25     -2.08      0.00
    1    3   25     -1.47      0.00
    2    3   25      3.14      0.00
    3    3   25     -5.71      0.00
    0    4   25     -7.44      0.00
    1    4   25      8.62      0.00
    2    4   25     -4.42      0.00
    3    4   25      2.77      0.00
    1    5   25     -3.24      0.00
    2    5   25     -0.51      0.00
    0    0   26     -2.36      0.00
    1    0   26      6.30      0.00
    2    0   26      1.46      0.00
    3    0   26      4.95      0.00
    1    1   26      1.08      0.00
    2    1   26      0.16      0.00
    0    2   26     -8.70      0.00
    1    2   26      5.44      0.00
    2    2   26     -5.07      0.00
    1    3   26      2.57      0.00
    1    0    0     11.64      0.00
    1    1    1     -5.87      0.00
    0    0    2    356.41      0.00
    1    0    2     15.00      0.00
    5   15    2     -1.48      0.00
   10   10    3      1.68      0.00
    5   15    3     -0.55      0.00
    0    0    4     87.40      0.00
   12    5    4      0.26      0.00
   11    8    4      1.96      0.00
   10   10    4     -4.30      0.00
    2   16    4     -2.82      0.00
    1   16    5     -0.84      0.00
    9   11    6      0.50      0.00
    6   14    6      0.01      0.00
    0   16    6      0.72      0.00
    8   12    7     -0.31      0.00
    7   13    7     -2.13      0.00
    4   15    7      0.36      0.00
   12    3    8     -1.37      0.00
   10    9    8     -2.87      0.00
   12    1    9     -5.73      0.00
   12    2    9     -3.04      0.00
    5   14    9     -1.93      0.00
    3   15    9     -2.37      0.00
    9   10   10      7.80      0.00
    2   15   10     -0.28      0.00
   11    5   11      0.99      0.00
    7   12   11      0.20      0.00
    4   14   11     -2.14      0.00
   11    4   12     -1.34      0.00
   10    7   12     -1.69      0.00
    9    9   12     -1.04      0.00
   11    3   13     -4.25      0.00
    8   10   13      1.11      0.00
    9    8   14     -1.07      0.00
    4   13   14      4.24      0.00
    0   14   14     -5.39      0.00
    1   14   14     -0.36      0.00
    8    9   15     -1.80      0.00
    5   12   15      2.18      0.00
    3   13   15      3.93      0.00
   10    3   16     -0.81      0.00
    7    9   17      2.93      0.00
    6   10   17     -2.67      0.00
    5   11   17      4.04      0.00
    9    4   18     -1.77      0.00
    4   11   18     -2.12      0.00
    9    1   19     -1.84      0.00
    3   11   19     -3.49      0.00
    8    4   20      6.23      0.00
    8    1   21      4.08      0.00
    7    5   21     -2.76      0.00
    5    8   21     -1.71      0.00
    2   10   21      1.49      0.00
    7    3   22      1.46      0.00
    5    7   22      4.16      0.00
    4    8   22      2.07      0.00
    2    9   22     -6.48      0.00
    2    8   23      3.83      0.00
    2    7   24      1.67      0.00
    4    3   25      1.93      0.00
    0    6   25     -1.57      0.00
    1    6   25      7.77      0.00
    3    1   26     -0.98      0.00
    3    2   26      0.82      0.00
    2    3   26      2.95      0.00
    0    4   26     -4.38      0.00
    1    4   26     -1.58      0.00
    0    0    0      0.00      0.00
# SQUEEZE RESULTS (Version = 120716)
# Note: Data are Listed for all Voids in the P1 Unit Cell
# i.e. Centre of Gravity, Solvent Accessible Volume,
# Recovered number of Electrons in the Void and
# Details about the Squeezed Material
loop_
  _platon_squeeze_void_nr
  _platon_squeeze_void_average_x
  _platon_squeeze_void_average_y
  _platon_squeeze_void_average_z
  _platon_squeeze_void_volume
  _platon_squeeze_void_count_electrons
  _platon_squeeze_void_content
   1 -0.031 -0.008  0.000       719       227 ' '
   2 -0.027 -0.008  0.500       719       227 ' '
# Missing Reflections Below sin(th)/lambda = 0.25
loop_
  _platon_missing_refln_index_h
  _platon_missing_refln_index_k
  _platon_missing_refln_index_l
  _platon_missing_refln_theta
    1    0    0     2.073
    1    1    1     2.809
    0    0    2     1.971
    1    0    2     2.861
    0    0    4     3.945
_platon_squeeze_void_probe_radius                  1.20
_platon_squeeze_details
)
TITL part      P b c m      R = 0.04
CELL    9.8238   12.5892   20.6610     90.00     90.00     90.00
SPGR Pbcm
# Solvent Accessible Volume =      1441
# Electrons Found in S.A.V. =       444
# Note: Atoms in Void as Cxxx and Qxxx all others
C101 0.277 0.750 0.000 !       5.11 eA-3
C102 0.956 0.204 0.951 !       3.79 eA-3
C103 0.823 0.306 0.484 !       3.40 eA-3
C104 0.767 0.394 0.988 !       3.29 eA-3
C105 0.845 0.273 0.451 !       3.19 eA-3
C106 0.737 0.228 0.454 !       3.19 eA-3
C107 0.905 0.112 0.957 !       2.93 eA-3
Q108 0.679 0.201 0.219 !       2.81 eA-3
C109 0.358 0.700 0.455 !       2.71 eA-3
C110 0.086 0.364 0.000 !       2.67 eA-3
C111 0.795 0.876 0.453 !       2.67 eA-3
C112 0.756 0.487 0.451 !       2.57 eA-3
C113 0.510 0.344 0.580 !       2.54 eA-3
Q114 0.393 0.480 0.220 !       2.54 eA-3
C115 0.599 0.219 0.028 !       2.50 eA-3
Q116 0.936 0.427 0.112 !       2.49 eA-3
C117 0.693 0.576 0.484 !       2.47 eA-3
C118 0.529 0.145 0.030 !       2.23 eA-3
C119 0.541 0.904 0.906 !       2.06 eA-3
Q120 0.100 0.679 0.599 !       1.86 eA-3
Q121 0.173 0.078 0.250 !       1.52 eA-3
Q122 0.600 0.764 0.281 !       1.52 eA-3
Q123 0.500 0.891 0.247 !       1.45 eA-3
C124 0.660 0.642 0.045 !       1.43 eA-3
Q125 0.625 0.140 0.811 !       1.43 eA-3
Q126 0.878 0.563 0.751 !       1.43 eA-3
C127 0.015 0.392 0.410 !       1.38 eA-3
C128 0.486 0.063 0.439 !       1.37 eA-3
C129 0.607 0.563 0.051 !       1.36 eA-3
Q130 1.002 0.985 0.405 !       1.27 eA-3
C131 0.772 0.601-0.002 !       1.27 eA-3
C132 0.941 0.603 0.958 !       1.25 eA-3
Q133 0.592 0.364 0.892 !       1.25 eA-3
C134 0.682 0.916 0.466 !       1.23 eA-3
Q135 0.598 0.530 0.409 !       1.23 eA-3
C136 0.139 0.250 0.000 !       1.21 eA-3
C137 0.290 0.258 0.031 !       1.21 eA-3
Q138 0.262 0.863 0.935 !       1.21 eA-3
Q139 0.313 0.625 0.248 !       1.20 eA-3
C140 0.723 0.156 0.502 !       1.19 eA-3
Q141 0.562 0.438 0.250 !       1.17 eA-3
Q142 0.495 0.156 0.249 !       1.17 eA-3
C143 0.715 0.859 0.422 !       1.15 eA-3
C144 0.441 0.500 0.515 !       1.14 eA-3
C145 0.660 0.111 0.016 !       1.14 eA-3
Q146 0.599 1.004 0.376 !       1.13 eA-3
Q147 0.754 0.645 0.296 !       1.12 eA-3
C148 0.464 0.706 0.967 !       1.11 eA-3
Q149 0.054 0.404 0.157 !       1.07 eA-3
Q150 0.969 0.156 0.623 !       1.07 eA-3
Q151 0.942 0.141 0.750 !       1.07 eA-3
Q152 0.872 0.765 0.344 !       1.07 eA-3
C153 0.433 0.121 0.472 !       1.07 eA-3
C154 0.834 0.063 0.492 !       1.06 eA-3
Q155 0.913 0.781 0.252 !       1.06 eA-3
C156 0.869 0.910 0.029 !       1.06 eA-3
Q157 0.277 0.987 0.188 !       1.05 eA-3
Q158 0.245 0.156 0.752 !       1.05 eA-3
C159 0.808 0.559 0.469 !       1.05 eA-3
C160 0.932 0.239 0.426 !       1.05 eA-3
C161 0.692 0.538 0.435 !       1.04 eA-3
Q162 0.495 0.797 0.252 !       1.03 eA-3
C163 0.036 0.729 0.018 !       1.03 eA-3
C164 0.890 0.999 0.034 !       1.03 eA-3
Q165 0.532 0.267 0.374 !       1.02 eA-3
C166 0.718 0.304 0.452 !       0.99 eA-3
Q167 0.103 0.970 0.329 !       0.99 eA-3
Q168 0.059 0.172 0.186 !       0.99 eA-3
Q169 0.312 0.343 0.127 !       0.99 eA-3
C170 0.656 0.525 0.515 !       0.98 eA-3
C171 0.845 0.013 0.921 !       0.98 eA-3
C172 0.483 0.321 0.502 !       0.98 eA-3
Q173 0.758 0.605 0.638 !       0.98 eA-3
C174 0.362 0.250 0.500 !       0.97 eA-3
Q175 0.625 0.548 0.220 !       0.97 eA-3
Q176 0.849 0.862 0.690 !       0.97 eA-3
Q177 0.286 0.221 0.376 !       0.94 eA-3
C178 0.314 0.536 0.457 !       0.94 eA-3
Q179 0.346 0.281 0.751 !       0.94 eA-3
Q180 0.059 0.984 0.248 !       0.93 eA-3
Q181 0.725 0.655 0.093 !       0.93 eA-3
C182 0.061 0.016 0.390 !       0.93 eA-3
Q183 0.031 0.469 0.220 !       0.92 eA-3
Q184 0.817 0.608 0.408 !       0.92 eA-3
Q185 0.837 0.396 0.408 !       0.92 eA-3
Q186 0.227 0.467 0.188 !       0.92 eA-3
Q187 0.210 0.146 0.593 !       0.91 eA-3
Q188 0.250 0.095 0.123 !       0.90 eA-3
C189 0.902 0.418-0.003 !       0.90 eA-3
C190 0.996 0.985 0.530 !       0.90 eA-3
Q191 0.159 0.040 0.942 !       0.90 eA-3
Q192 0.290 0.659 0.390 !       0.89 eA-3
Q193 0.246 0.488 0.078 !       0.88 eA-3
C194 0.059 0.581 0.454 !       0.88 eA-3
Q195 0.556 0.390 0.144 !       0.88 eA-3
Q196 0.568 0.539 0.141 !       0.88 eA-3
Q197 0.432 0.461 0.859 !       0.88 eA-3
Q198 0.668 0.799 0.404 !       0.88 eA-3
Q199 0.845 0.544 0.796 !       0.88 eA-3
)
;
_shelx_fab_checksum              77474
loop_
_space_group_symop_operation_xyz
'x, y, z'
'-x, -y, z+1/2'
'-x, y+1/2, -z+1/2'
'x, -y+1/2, -z'
'-x, -y, -z'
'x, y, -z-1/2'
'x, -y-1/2, z-1/2'
'-x, y-1/2, z'
loop_
_atom_site_label
_atom_site_type_symbol
_atom_site_fract_x
_atom_site_fract_y
_atom_site_fract_z
_atom_site_U_iso_or_equiv
_atom_site_adp_type
_atom_site_occupancy
_atom_site_site_symmetry_order
_atom_site_calc_flag
_atom_site_refinement_flags_posn
_atom_site_refinement_flags_adp
_atom_site_refinement_flags_occupancy
_atom_site_disorder_assembly
_atom_site_disorder_group
U1 U 0.58004(2) 0.11858(2) 0.7500 0.02185(7) Uani 1 2 d DS T P . .
U2 U 0.81424(2) -0.19823(2) 0.7500 0.01522(7) Uani 1 2 d S T P . .
U3 U 1.18872(2) -0.06394(2) 0.7500 0.02311(8) Uani 1 2 d S T P . .
F1 F 0.6732(3) -0.0512(2) 0.7500 0.0307(10) Uani 1 2 d S T P A .
F2 F 1.0535(3) -0.2212(3) 0.7500 0.0304(10) Uani 1 2 d S T P A .
F3 F 0.9528(3) -0.0422(3) 0.7500 0.0262(10) Uani 1 2 d S T P A .
F4 F 1.1503(3) 0.1188(2) 0.7500 0.0311(10) Uani 1 2 d S T P A .
F5 F 0.3977(4) 0.2308(3) 0.7500 0.0454(12) Uani 1 2 d S TU P A .
F6 F 1.3286(4) -0.2096(3) 0.7500 0.0714(17) Uani 1 2 d S TU P A .
F7 F 0.3994(4) 0.0103(3) 0.7500 0.0712(17) Uani 1 2 d S TU P A .
O1 O 0.8173(3) -0.1975(3) 0.66541(18) 0.0370(9) Uani 1 1 d . . . . .
O2 O 1.1871(4) -0.0645(3) 0.6652(2) 0.0534(12) Uani 1 1 d . . . . .
O3A O 0.5382(13) 0.1092(6) 0.6622(4) 0.039(3) Uani 0.52(2) 1 d D . P A 1
O3B O 0.6237(12) 0.1297(7) 0.6728(4) 0.038(3) Uani 0.48(2) 1 d D U P A 2
O4 O 0.8177(6) 0.1177(4) 0.7047(3) 0.0271(16) Uani 0.5 1 d . . P A .
loop_
_atom_site_aniso_label
_atom_site_aniso_U_11
_atom_site_aniso_U_22
_atom_site_aniso_U_33
_atom_site_aniso_U_23
_atom_site_aniso_U_13
_atom_site_aniso_U_12
U1 0.00779(11) 0.00623(10) 0.05153(19) 0.000 0.000 0.00011(9)
U2 0.00795(12) 0.00543(10) 0.03228(16) 0.000 0.000 -0.00068(8)
U3 0.00798(13) 0.00547(11) 0.0559(2) 0.000 0.000 -0.00022(8)
F1 0.0159(19) 0.0091(16) 0.067(3) 0.000 0.000 0.0028(14)
F2 0.0083(18) 0.0085(16) 0.074(3) 0.000 0.000 -0.0005(13)
F3 0.0079(17) 0.0095(16) 0.061(3) 0.000 0.000 -0.0001(14)
F4 0.0122(18) 0.0057(16) 0.076(3) 0.000 0.000 -0.0009(13)
F5 0.018(2) 0.0129(18) 0.105(4) 0.000 0.000 0.0035(15)
F6 0.017(2) 0.0130(19) 0.184(5) 0.000 0.000 0.0021(16)
F7 0.014(2) 0.020(2) 0.180(5) 0.000 0.000 -0.0042(16)
O1 0.037(2) 0.037(2) 0.038(2) -0.0035(17) -0.0029(18) 0.0079(16)
O2 0.072(3) 0.032(2) 0.057(3) -0.0023(19) 0.037(2) -0.0008(19)
O3A 0.033(8) 0.035(4) 0.048(5) 0.009(4) -0.004(4) 0.002(4)
O3B 0.012(6) 0.049(5) 0.055(6) 0.019(4) 0.004(4) 0.001(4)
O4 0.019(3) 0.013(3) 0.048(5) 0.003(3) 0.005(3) -0.002(3)
loop_
_atom_type_symbol
_atom_type_description
_atom_type_scat_dispersion_real
_atom_type_scat_dispersion_imag
_atom_type_scat_source
O O 0.0106 0.0060 'International Tables Vol C Tables 4.2.6.8 and 6.1.1.4'
F F 0.0171 0.0103 'International Tables Vol C Tables 4.2.6.8 and 6.1.1.4'
U U -9.6767 9.6646 'International Tables Vol C Tables 4.2.6.8 and 6.1.1.4'
loop_
_geom_angle_atom_site_label_1
_geom_angle_atom_site_label_2
_geom_angle_atom_site_label_3
_geom_angle
_geom_angle_site_symmetry_1
_geom_angle_site_symmetry_3
O3B U1 O3B 148.4(10) . 6_557
O3A U1 O3A 153.4(8) . 6_557
O3B U1 F7 104.9(5) . .
O3B U1 F7 104.9(5) 6_557 .
O3A U1 F7 77.6(4) . .
O3A U1 F7 77.6(4) 6_557 .
O3B U1 F5 98.7(3) . .
O3B U1 F5 98.7(3) 6_557 .
O3A U1 F5 82.3(3) . .
O3A U1 F5 82.3(3) 6_557 .
F7 U1 F5 75.78(14) . .
O3B U1 F1 88.6(3) . .
O3B U1 F1 88.6(3) 6_557 .
O3A U1 F1 91.6(2) . .
O3A U1 F1 91.6(2) 6_557 .
F7 U1 F1 75.65(13) . .
F5 U1 F1 151.43(12) . .
O3B U1 F6 79.8(4) . 3_756
O3B U1 F6 79.8(4) 6_557 3_756
O3A U1 F6 98.2(3) . 3_756
O3A U1 F6 98.2(3) 6_557 3_756
F7 U1 F6 150.06(14) . 3_756
F5 U1 F6 74.28(13) . 3_756
F1 U1 F6 134.28(13) . 3_756
O3B U1 O4 53.3(5) . .
O3B U1 O4 96.8(5) 6_557 .
O3A U1 O4 80.9(4) . .
O3A U1 O4 124.5(4) 6_557 .
F7 U1 O4 137.20(15) . .
F5 U1 O4 137.00(15) . .
F1 U1 O4 68.34(14) . .
F6 U1 O4 69.39(15) 3_756 .
O3B U1 O4 96.8(5) . 6_557
O3B U1 O4 53.3(5) 6_557 6_557
O3A U1 O4 124.5(4) . 6_557
O3A U1 O4 80.9(4) 6_557 6_557
F7 U1 O4 137.20(15) . 6_557
F5 U1 O4 137.00(15) . 6_557
F1 U1 O4 68.34(14) . 6_557
F6 U1 O4 69.39(15) 3_756 6_557
O4 U1 O4 43.7(3) . 6_557
O1 U2 O1 177.9(2) 6_557 .
O1 U2 F5 91.04(11) 6_557 3_646
O1 U2 F5 91.04(11) . 3_646
O1 U2 F1 90.36(10) 6_557 .
O1 U2 F1 90.36(10) . .
F5 U2 F1 76.40(13) 3_646 .
O1 U2 F4 90.15(10) 6_557 3_746
O1 U2 F4 90.15(10) . 3_746
F5 U2 F4 75.39(12) 3_646 3_746
F1 U2 F4 151.78(12) . 3_746
O1 U2 F2 89.04(11) 6_557 .
O1 U2 F2 89.04(11) . .
F5 U2 F2 149.76(12) 3_646 .
F1 U2 F2 133.84(12) . .
F4 U2 F2 74.37(11) 3_746 .
O1 U2 F3 89.18(11) 6_557 .
O1 U2 F3 89.18(11) . .
F5 U2 F3 147.95(12) 3_646 .
F1 U2 F3 71.56(12) . .
F4 U2 F3 136.66(11) 3_746 .
F2 U2 F3 62.29(11) . .
O2 U3 O2 178.9(3) 6_557 .
O2 U3 F7 90.57(13) 6_557 1_655
O2 U3 F7 90.57(13) . 1_655
O2 U3 F6 90.13(12) 6_557 .
O2 U3 F6 90.13(12) . .
F7 U3 F6 77.49(15) 1_655 .
O2 U3 F4 90.14(11) 6_557 .
O2 U3 F4 90.14(11) . .
F7 U3 F4 75.00(13) 1_655 .
F6 U3 F4 152.49(13) . .
O2 U3 F3 89.50(13) 6_557 .
O2 U3 F3 89.50(13) . .
F7 U3 F3 148.95(13) 1_655 .
F6 U3 F3 133.56(13) . .
F4 U3 F3 73.94(11) . .
O2 U3 F2 89.52(12) 6_557 .
O2 U3 F2 89.52(12) . .
F7 U3 F2 148.18(13) 1_655 .
F6 U3 F2 70.69(13) . .
F4 U3 F2 136.82(11) . .
F3 U3 F2 62.88(11) . .
U2 F1 U1 166.34(17) . .
U2 F2 U3 116.84(14) . .
U3 F3 U2 118.00(13) . .
U2 F4 U3 162.07(15) 3_756 .
U2 F5 U1 164.96(18) 3_656 .
U3 F6 U1 165.71(19) . 3_746
U1 F7 U3 166.8(2) . 1_455
loop_
_geom_bond_atom_site_label_1
_geom_bond_atom_site_label_2
_geom_bond_distance
_geom_bond_site_symmetry_2
U1 O3B 1.658(8) .
U1 O3B 1.658(8) 6_557
U1 O3A 1.863(8) .
U1 O3A 1.863(8) 6_557
U1 F7 2.238(4) .
U1 F5 2.282(4) .
U1 F1 2.325(3) .
U1 F6 2.342(4) 3_756
U1 O4 2.516(6) .
U1 O4 2.516(6) 6_557
U2 O1 1.748(4) 6_557
U2 O1 1.748(4) .
U2 F5 2.265(4) 3_646
U2 F1 2.312(3) .
U2 F4 2.329(3) 3_746
U2 F2 2.368(3) .
U2 F3 2.390(3) .
U3 O2 1.751(4) 6_557
U3 O2 1.751(4) .
U3 F7 2.271(4) 1_655
U3 F6 2.291(4) .
U3 F4 2.332(3) .
U3 F3 2.333(3) .
U3 F2 2.384(3) .
F4 U2 2.329(3) 3_756
F5 U2 2.266(4) 3_656
F6 U1 2.342(4) 3_746
F7 U3 2.271(4) 1_455
