#------------------------------------------------------------------------------
#$Date: 2019-11-17 12:47:25 +0200 (Sun, 17 Nov 2019) $
#$Revision: 229957 $
#$URL: file:///home/coder/svn-repositories/cod/cif/7/04/79/7047908.cif $
#------------------------------------------------------------------------------
#
# This file is available in the Crystallography Open Database (COD),
# http://www.crystallography.net/
#
# All data on this site have been placed in the public domain by the
# contributors.
#
data_7047908
loop_
_publ_author_name
'Selivanov, N. I.'
'Murashkina, A. A.'
'Kevorkyants, R.'
'Emeline, A. V.'
'Bahnemann, D. W.'
_publ_section_title
;
 Pyridinium lead tribromide and pyridinium lead triiodide:
 quasi-one-dimensional perovskites with an optically active aromatic
 \p-system.
;
_journal_issue                   45
_journal_name_full
'Dalton transactions (Cambridge, England : 2003)'
_journal_page_first              16313
_journal_page_last               16319
_journal_paper_doi               10.1039/c8dt03041c
_journal_volume                  47
_journal_year                    2018
_chemical_formula_moiety         '0.5(I6 Pb2), C5 H6 N'
_chemical_formula_sum            'C5 H6 I3 N Pb'
_chemical_formula_weight         668.00
_space_group_crystal_system      orthorhombic
_space_group_IT_number           62
_space_group_name_Hall           '-P 2ac 2n'
_space_group_name_H-M_alt        'P n m a'
_symmetry_space_group_name_Hall  '-P 2ac 2n'
_symmetry_space_group_name_H-M   'P n m a'
_atom_sites_solution_hydrogens   geom
_atom_sites_solution_primary     iterative
_audit_creation_date             2018-09-19
_audit_creation_method
;
Olex2 1.2
(compiled 2018.05.29 svn.r3508 for OlexSys, GUI svn.r5506)
;
_cell_angle_alpha                90
_cell_angle_beta                 90
_cell_angle_gamma                90
_cell_formula_units_Z            4
_cell_length_a                   14.9049(4)
_cell_length_b                   8.0660(2)
_cell_length_c                   9.5902(3)
_cell_measurement_reflns_used    2055
_cell_measurement_temperature    100(2)
_cell_measurement_theta_max      31.1740
_cell_measurement_theta_min      3.3200
_cell_volume                     1152.96(6)
_computing_cell_refinement
;
CrysAlisPro, Agilent Technologies,
Version 1.171.36.32 (release 02-08-2013 CrysAlis171 .NET)
(compiled Aug  2 2013,16:46:58)
;
_computing_data_collection
;
CrysAlisPro, Agilent Technologies,
Version 1.171.36.32 (release 02-08-2013 CrysAlis171 .NET)
(compiled Aug  2 2013,16:46:58)
;
_computing_data_reduction
;
CrysAlisPro, Agilent Technologies,
Version 1.171.36.32 (release 02-08-2013 CrysAlis171 .NET)
(compiled Aug  2 2013,16:46:58)
;
_computing_molecular_graphics    'Olex2 (Dolomanov et al., 2009)'
_computing_publication_material  'Olex2 (Dolomanov et al., 2009)'
_computing_structure_refinement  'ShelXL (Sheldrick, 2015)'
_computing_structure_solution
;
Superflip (Palatinus & Chapuis, 2007;Palatinus & van der Lee, 2008;
Palatinus et al., 2012)
;
_diffrn_ambient_temperature      100(2)
_diffrn_detector_area_resol_mean 16.2096
_diffrn_measured_fraction_theta_full 0.999
_diffrn_measured_fraction_theta_max 0.999
_diffrn_measurement_details
;
#__ type_ start__ end____ width___ exp.time_
  1 omega  -94.00  -36.00   1.0000    7.0000
omega____ theta____ kappa____ phi______ frames
    -      -23.3621 -178.0000 -120.0000 58

#__ type_ start__ end____ width___ exp.time_
  2 omega  -91.00  -40.00   1.0000    7.0000
omega____ theta____ kappa____ phi______ frames
    -      -23.3621 -178.0000   90.0000 51

#__ type_ start__ end____ width___ exp.time_
  3 omega   17.00   76.00   1.0000    7.0000
omega____ theta____ kappa____ phi______ frames
    -       24.2996   77.0000   90.0000 59

#__ type_ start__ end____ width___ exp.time_
  4 omega  -90.00  -46.00   1.0000    7.0000
omega____ theta____ kappa____ phi______ frames
    -      -23.3621 -178.0000  -30.0000 44

#__ type_ start__ end____ width___ exp.time_
  5 omega  -44.00  -18.00   1.0000    7.0000
omega____ theta____ kappa____ phi______ frames
    -      -23.3621   77.0000  150.0000 26
;
_diffrn_measurement_device_type  'Xcalibur, Eos'
_diffrn_measurement_method       '\w scans'
_diffrn_orient_matrix_UB_11      -0.0221747000
_diffrn_orient_matrix_UB_12      0.0157753000
_diffrn_orient_matrix_UB_13      0.0641593000
_diffrn_orient_matrix_UB_21      0.0057463000
_diffrn_orient_matrix_UB_22      0.0863472000
_diffrn_orient_matrix_UB_23      -0.0102769000
_diffrn_orient_matrix_UB_31      -0.0417074000
_diffrn_orient_matrix_UB_32      0.0035363000
_diffrn_orient_matrix_UB_33      -0.0355013000
_diffrn_radiation_monochromator  graphite
_diffrn_radiation_type           MoK\a
_diffrn_radiation_wavelength     0.71073
_diffrn_reflns_av_R_equivalents  0.0347
_diffrn_reflns_av_unetI/netI     0.0311
_diffrn_reflns_Laue_measured_fraction_full 0.999
_diffrn_reflns_Laue_measured_fraction_max 0.999
_diffrn_reflns_limit_h_max       15
_diffrn_reflns_limit_h_min       -19
_diffrn_reflns_limit_k_max       10
_diffrn_reflns_limit_k_min       -10
_diffrn_reflns_limit_l_max       10
_diffrn_reflns_limit_l_min       -12
_diffrn_reflns_number            5028
_diffrn_reflns_point_group_measured_fraction_full 0.999
_diffrn_reflns_point_group_measured_fraction_max 0.999
_diffrn_reflns_theta_full        25.242
_diffrn_reflns_theta_max         27.495
_diffrn_reflns_theta_min         2.733
_diffrn_source                   'Enhance (Mo) X-ray Source'
_exptl_absorpt_coefficient_mu    22.610
_exptl_absorpt_correction_T_max  1.00000
_exptl_absorpt_correction_T_min  0.25185
_exptl_absorpt_correction_type   multi-scan
_exptl_absorpt_process_details
;
CrysAlisPro, Agilent Technologies,
Version 1.171.36.32 (release 02-08-2013 CrysAlis171 .NET)
(compiled Aug  2 2013,16:46:58)
Empirical absorption correction using spherical harmonics,
 implemented in SCALE3 ABSPACK scaling algorithm.
;
_exptl_crystal_colour            yellow
_exptl_crystal_colour_primary    yellow
_exptl_crystal_density_diffrn    3.848
_exptl_crystal_description       prism
_exptl_crystal_F_000             1136
_exptl_crystal_size_max          0.2
_exptl_crystal_size_mid          0.15
_exptl_crystal_size_min          0.15
_refine_diff_density_max         1.784
_refine_diff_density_min         -3.300
_refine_diff_density_rms         0.405
_refine_ls_extinction_method     none
_refine_ls_goodness_of_fit_ref   1.136
_refine_ls_hydrogen_treatment    constr
_refine_ls_matrix_type           full
_refine_ls_number_parameters     52
_refine_ls_number_reflns         1417
_refine_ls_number_restraints     0
_refine_ls_restrained_S_all      1.136
_refine_ls_R_factor_all          0.0337
_refine_ls_R_factor_gt           0.0306
_refine_ls_shift/su_max          0.000
_refine_ls_shift/su_mean         0.000
_refine_ls_structure_factor_coef Fsqd
_refine_ls_weighting_details
'w=1/[\s^2^(Fo^2^)+(0.0265P)^2^+14.6456P] where P=(Fo^2^+2Fc^2^)/3'
_refine_ls_weighting_scheme      calc
_refine_ls_wR_factor_gt          0.0717
_refine_ls_wR_factor_ref         0.0732
_reflns_Friedel_coverage         0.000
_reflns_number_gt                1314
_reflns_number_total             1417
_reflns_threshold_expression     'I > 2\s(I)'
_cod_data_source_file            c8dt03041c2.cif
_cod_data_source_block           4_pbi3
_cod_depositor_comments
'Adding full bibliography for 7047908--7047909.cif.'
_cod_database_code               7047908
_shelx_shelxl_version_number     2014/7
_chemical_oxdiff_formula         'C5 H6 N Pb I3'
_shelx_space_group_comment
;
The symmetry employed for this shelxl refinement is uniquely defined
by the following loop, which should always be used as a source of
symmetry information in preference to the above space-group names.
They are only intended as comments.
;
_shelx_estimated_absorpt_t_max   0.133
_shelx_estimated_absorpt_t_min   0.093
_reflns_odcompleteness_completeness 99.78
_reflns_odcompleteness_iscentric 1
_reflns_odcompleteness_theta     28.98
_olex2_refinement_description
;
1. Fixed Uiso
 At 1.2 times of:
  All C(H) groups, All C(H,H) groups, All N(H) groups
2. Shared sites
{C3, N4}
3. Uiso/Uaniso restraints and constraints
Uanis(C3) = Uanis(N4)
4. Others
 Fixed Sof: C3(0.5) H3(0.5) N4(0.5) H4(0.5) H1B(0.5) H1A(0.5)
5.a Aromatic/amide H refined with riding coordinates:
 C3(H3), N4(H4), C1(H1B), C1(H1A), C2(H2)
;
_shelx_res_file
;
    4_pbi3.res created by SHELXL-2014/7

TITL CF solution in Pnma
CELL 0.71073 14.904883 8.066026 9.590166 90 90 90
ZERR 4 0.000448 0.000236 0.000253 0 0 0
LATT 1
SYMM 0.5-X,-Y,0.5+Z
SYMM 0.5+X,0.5-Y,0.5-Z
SYMM -X,0.5+Y,-Z
SFAC C H I N Pb
UNIT 20 24 12 4 4
EADP C3 N4
EXYZ C3 N4

L.S. 8
PLAN  25
SIZE 0.2 0.15 0.15
TEMP -173(2)
BOND
fmap 2
acta
OMIT -4 55
REM <olex2.extras>
REM <HklSrc "%.\\4_PbI3.hkl">
REM </olex2.extras>

WGHT    0.026500   14.645600
FVAR       1.88849
PB1   5    0.500000    0.500000    0.500000    10.50000    0.01014    0.01012 =
         0.01049   -0.00041    0.00045    0.00000
I1    3    0.609553    0.750000    0.696580    10.50000    0.01322    0.02948 =
         0.01294    0.00000   -0.00494    0.00000
I2    3    0.335294    0.750000    0.540158    10.50000    0.00771    0.01979 =
         0.01691    0.00000    0.00193    0.00000
I3    3    0.442736    0.250000    0.753256    10.50000    0.01044    0.07745 =
         0.00940    0.00000    0.00179    0.00000
PART 2
C3    1    0.394498    0.833261    0.923792    10.50000    0.02767    0.01864 =
         0.01613    0.00627    0.00085   -0.00442
AFIX  43
H3    2    0.426731    0.891177    0.853575    10.50000   -1.20000
AFIX   0
PART 0
PART 1
N4    4    0.394498    0.833261    0.923792    10.50000    0.02767    0.01864 =
         0.01613    0.00627    0.00085   -0.00442
AFIX  43
H4    2    0.424356    0.886910    0.858749    10.50000   -1.20000
AFIX   0
PART 0
C1    1    0.349699    0.919207    1.021380    11.00000    0.02135    0.01615 =
         0.02141   -0.00179    0.00027    0.00521
PART 2
AFIX  43
H1B   2    0.350808    1.036960    1.020323    10.50000   -1.20000
AFIX  43
PART 0
PART 1
H1A   2    0.350808    1.036960    1.020323    10.50000   -1.20000
AFIX   0
PART 0
C2    1    0.302228    0.836768    1.122825    11.00000    0.01302    0.03069 =
         0.01622   -0.00556    0.00073    0.00178
AFIX  43
H2    2    0.269937    0.896605    1.191827    11.00000   -1.20000
AFIX   0
HKLF 4

REM  CF solution in Pnma
REM R1 =  0.0306 for    1314 Fo > 4sig(Fo)  and  0.0337 for all    1417 data
REM     52 parameters refined using      0 restraints

END

WGHT      0.0265     14.6400

REM Highest difference peak  1.784,  deepest hole -3.300,  1-sigma level  0.405
Q1    1   0.4314  0.1936  0.7816  11.00000  0.05    1.78
Q2    1   0.4632  0.1957  0.7244  11.00000  0.05    1.35
Q3    1   0.4592  0.0869  0.7014  11.00000  0.05    1.06
Q4    1   0.3918  1.2500  0.9892  10.50000  0.05    1.03
Q5    1   0.3906  0.1091  0.7445  11.00000  0.05    1.03
Q6    1   0.6924  0.8516  0.7965  11.00000  0.05    1.02
Q7    1   0.3724  0.8921  0.5024  11.00000  0.05    0.99
Q8    1   0.6334  0.8639  0.5370  11.00000  0.05    0.99
Q9    1   0.5556  0.3681  0.4994  11.00000  0.05    0.98
Q10   1   0.4101  1.1341  0.9700  11.00000  0.05    0.96
Q11   1   0.3558  0.8609  0.5931  11.00000  0.05    0.93
Q12   1   0.1583  0.8623  1.0423  11.00000  0.05    0.93
Q13   1   0.2417  0.8977  1.0500  11.00000  0.05    0.92
Q14   1   0.4064  0.0846  0.7651  11.00000  0.05    0.92
Q15   1   0.4796  0.8866  0.8164  11.00000  0.05    0.88
Q16   1   0.1807  0.8933  1.2154  11.00000  0.05    0.88
Q17   1   0.4899  0.1053  0.8009  11.00000  0.05    0.88
Q18   1   0.3502  1.1425  0.9778  11.00000  0.05    0.87
Q19   1   0.7093  0.8714  0.6460  11.00000  0.05    0.86
Q20   1   0.3911  0.8844  0.6837  11.00000  0.05    0.85
Q21   1   0.6705  0.8679  0.6867  11.00000  0.05    0.84
Q22   1   0.5238  0.6089  0.4366  11.00000  0.05    0.84
Q23   1   0.3005  0.9025  1.1758  11.00000  0.05    0.82
Q24   1   0.4794  0.8598  0.9503  11.00000  0.05    0.82
Q25   1   0.5383  0.0875  0.6961  11.00000  0.05    0.81
;
_shelx_res_checksum              38753
_shelx_hkl_file
;
  -2   0   0 421402. 4756.23   1
  -2   0   0 375308. 5794.99   4
  -3   0   0 552.659 182.564   1
   3   0   0 421.986 235.402   4
   3   0   0 628.039 163.143   1
   4   0   0 4886.50 692.805   4
  -4   0   0 5318.03 533.838   1
  -5   0   0 310.888 184.203   1
  -6   0   0 227202. 4675.45   1
  -7   0   0 524.688 265.918   1
  -8   0   0 69123.1 2772.62   1
  -9   0   0 479.028 239.717   1
 -10   0   0 62631.5 2969.11   1
 -11   0   0 6.39392 271.182   1
 -12   0   0 154971. 5293.23   1
 -13   0   0 846.493 447.116   1
 -14   0   0 17580.8 1905.20   1
 -15   0   0 781.687 604.841   1
 -16   0   0 81003.3 4450.45   1
 -17   0   0 2032.67 884.958   1
 -18   0   0 363912. 10559.0   1
 -19   0   0 3648.97 1143.96   1
 -20   0   0 80478.3 5122.73   1
   2   0   1 726.650 137.373   2
  -2   0  -1 775.920 124.752   5
  -2   0  -1 720.063 134.594   2
  -3   0   1 93474.5 2371.59   1
   3   0   1 84147.9 1621.53   5
   3   0   1 94120.5 1853.07   2
  -3   0   1 88888.1 2117.36   4
   3   0   1 96098.0 1975.35   1
  -3   0  -1 87247.7 1651.15   5
   3   0  -1 89259.2 1890.38   4
   3   0   1 95287.0 3432.67   4
  -4   0   1 49383.2 1862.48   1
   4   0   1 50510.1 1329.03   5
  -4   0  -1 48452.6 1303.88   5
  -4   0  -1 52777.5 1590.01   1
   4   0  -1 51810.5 1658.42   4
  -4   0   1 52594.4 2059.72   4
  -5   0  -1 312195. 4966.45   1
  -5   0   1 317277. 5694.32   1
   5   0  -1 307197. 5227.14   4
  -6   0   1 188691. 4476.94   1
  -6   0  -1 187845. 3940.24   1
   6   0  -1 180508. 4176.62   4
  -7   0  -1 372585. 6439.57   1
  -7   0   1 373495. 7108.36   1
  -8   0  -1 88270.1 3026.41   1
  -8   0   1 89949.4 3353.60   1
  -9   0  -1 56507.6 2570.51   1
  -9   0   1 61762.7 2922.67   1
 -10   0   1 73526.1 3401.88   1
 -10   0  -1 70946.6 3068.13   1
 -11   0   1 218273. 6313.50   1
 -11   0  -1 212541. 5785.81   1
 -12   0   1 137695. 5163.95   1
 -12   0  -1 133806. 4752.19   1
 -13   0   1 155710. 5736.92   1
 -13   0  -1 153220. 5347.61   1
 -14   0   1 5855.31 1144.98   1
 -14   0  -1 6470.14 1152.65   1
 -15   0   1 8419.85 1416.78   1
 -15   0  -1 8801.63 1392.52   1
 -16   0   1 693.188 469.498   1
 -16   0  -1 939.892 571.356   1
 -17   0   1 115531. 5754.93   1
 -17   0  -1 111811. 5355.53   1
 -18   0   1 2958.91 1119.89   1
 -19   0   1 97953.3 5640.63   1
 -20   0   1 486.631 727.633   1
   0   0   2 133653. 1885.95   3
   0   0  -2 117843. 1795.76   3
   1   0   2 3502.30 224.600   3
   1   0   2 3109.24 316.679   2
  -1   0  -2 3397.09 321.613   2
  -2   0  -2 8616.96 535.341   2
   2   0   2 8533.67 540.316   2
  -3   0  -2 88413.3 2006.18   2
  -4   0  -2 190282. 3109.02   5
  -4   0   2 182808. 3252.25   4
  -5   0   2 9200.62 809.218   4
  -5   0   2 9409.48 967.384   1
  -5   0  -2 11040.3 688.394   5
  -6   0  -2 917144. 10432.7   5
  -6   0   2 919114. 12836.5   4
  -7   0   2 110490. 3867.10   1
  -7   0   2 112056. 4167.34   4
  -8   0   2 222110. 5875.66   1
  -9   0   2 107.416 232.115   1
 -10   0   2 89553.4 3936.56   1
 -11   0   2 48086.8 2977.24   1
 -12   0   2 424764. 9826.65   1
 -13   0   2 317.791 414.431   1
 -14   0   2 103117. 5005.76   1
 -15   0   2 9807.24 1623.84   1
 -16   0   2 2670.92 825.482   1
 -17   0   2 217.446 515.889   1
 -18   0   2 17743.1 2350.40   1
 -19   0   2-592.344 591.837   1
 -20   0   2 6166.32 1448.68   1
   0   0  -3 211.005 94.7122   3
   0   0   3 856.602 169.165   3
  -1   0  -3 182067. 2516.97   3
   1   0  -3 173986. 2969.11   3
   1   0   3 178368. 2461.49   3
  -1   0  -3 178355. 3323.47   2
  -2   0  -3 28187.4 1180.93   2
   2   0   3 27648.9 830.279   3
  -3   0  -3 192674. 3504.58   2
  -4   0  -3 112199. 2701.35   2
  -5   0  -3 670407. 8356.62   2
  -5   0  -3 657853. 7847.64   5
  -6   0  -3 182137. 3523.93   5
  -6   0   3 177657. 3867.29   4
  -7   0  -3 195727. 3874.43   5
  -7   0   3 190158. 5536.15   1
  -8   0  -3 1268.28 300.312   5
  -8   0   3 1558.74 563.119   1
  -9   0   3 3260.81 806.985   1
 -10   0   3 3335.51 785.293   1
 -11   0   3 138803. 5478.84   1
 -12   0   3 71074.5 3990.31   1
 -13   0   3 237597. 7671.48   1
 -14   0   3 77842.1 4446.53   1
 -15   0   3 59011.7 3983.21   1
 -16   0   3 12554.5 1889.66   1
 -17   0   3 48559.6 3920.57   1
 -18   0   3 4927.92 1226.67   1
 -19   0   3 37708.5 3578.90   1
   0   0  -4 878575. 9231.40   3
   1   0   4 159249. 2547.03   3
  -1   0  -4 160583. 2554.19   3
  -1   0  -4 157663. 3485.81   2
   2   0   4 412467. 4932.84   3
  -2   0  -4 417827. 6296.10   2
   3   0   4 60713.0 1486.88   3
  -3   0  -4 62424.2 2082.32   2
  -4   0  -4 111413. 2907.42   2
  -5   0  -4 80741.8 2561.53   2
  -6   0   4 158793. 3125.17   4
  -6   0  -4 162134. 3540.43   5
  -6   0  -4 156525. 3821.10   2
  -7   0   4 341.508 312.012   1
  -7   0   4 624.042 233.119   4
  -7   0  -4 965.309 285.352   5
  -8   0   4 27289.6 2235.91   1
  -8   0  -4 30008.6 1561.18   5
  -9   0   4 473.206 388.783   1
  -9   0  -4 601.667 236.125   5
 -10   0   4 10184.7 1480.60   1
 -10   0  -4 9586.25 931.933   5
 -11   0   4 602.870 407.328   1
 -12   0   4 134148. 5761.69   1
 -13   0   4 25394.7 2551.33   1
 -14   0   4 71541.1 4456.77   1
 -15   0   4 6921.71 1445.19   1
 -16   0   4 92575.3 5370.01   1
 -17   0   4 42225.2 3723.07   1
 -18   0   4 191013. 8275.45   1
 -19   0   4 15459.7 2483.87   1
   0   0  -5 30.8663 80.1040   3
  -1   0  -5 459843. 5743.41   3
  -1   0  -5 448600. 7363.44   2
  -2   0  -5 193136. 4344.05   2
   2   0   5 202681. 3192.22   3
  -3   0  -5 45885.3 1991.21   2
   3   0   5 47920.9 1372.51   3
  -4   0  -5 3443.01 544.857   2
   4   0   5 3656.02 388.053   3
   5   0   5 46727.5 1541.61   3
  -5   0  -5 46956.5 2090.28   2
  -6   0   5 28717.0 1138.62   4
  -6   0  -5 27872.5 1662.33   2
  -7   0  -5 166779. 4078.00   5
  -7   0  -5 173157. 4499.77   2
  -8   0   5 36811.7 2710.88   1
  -8   0  -5 34585.2 1799.98   5
  -9   0  -5 277423. 5688.92   5
  -9   0   5 288391. 8109.94   1
 -10   0   5 42963.5 3120.79   1
 -10   0  -5 46402.9 2199.06   5
 -11   0   5 191851. 6920.30   1
 -11   0  -5 163276. 4438.48   5
 -12   0   5 22604.1 2426.37   1
 -13   0   5 19791.0 2360.06   1
 -14   0   5 1441.70 743.076   1
 -15   0   5 16898.6 2278.15   1
 -16   0   5 36913.3 3442.47   1
 -17   0   5 101206. 5963.21   1
 -18   0   5 451.121 683.742   1
 -19   0   5 92766.8 6029.61   1
   0   0  -6 73544.9 2919.70   2
  -1   0  -6 1933.64 462.756   2
  -2   0  -6 49023.1 2268.44   2
   2   0   6 48919.0 1543.17   3
   3   0   6 37543.3 1318.55   3
  -3   0  -6 37038.5 1965.53   2
  -4   0  -6 72240.2 2805.69   2
   4   0   6 77379.4 1948.84   3
  -5   0  -6 33901.8 1911.12   2
   5   0   6 33961.4 1324.48   3
   6   0   6 246450. 4285.35   3
  -6   0  -6 243863. 5677.91   2
  -7   0  -6 107985. 3695.35   2
  -7   0   6 117757. 2268.21   4
   7   0   6 110015. 2831.14   3
  -8   0  -6 333063. 6990.35   2
  -8   0  -6 308024. 6292.38   5
  -9   0  -6 5559.95 767.025   5
  -9   0   6 7398.03 1316.12   1
 -10   0  -6 237890. 5611.04   5
 -10   0   6 255418. 8161.37   1
 -11   0  -6 105018. 3659.28   5
 -11   0   6 112788. 5507.96   1
 -12   0  -6 92840.0 3531.06   5
 -12   0   6 109562. 5572.90   1
 -13   0   6 7285.99 1469.07   1
 -14   0   6 30327.8 3090.75   1
 -15   0   6 17979.1 2448.53   1
 -16   0   6 16640.4 2439.64   1
 -17   0   6 757.077 498.753   1
 -18   0   6 21371.4 2795.99   1
   0   0  -7 349.585 179.703   2
  -1   0  -7 70415.3 3053.44   2
   2   0   7 18958.8 1043.19   3
  -2   0  -7 17902.3 1515.55   2
  -3   0  -7 245804. 5918.49   2
   3   0   7 257243. 4251.06   3
   4   0   7 192784. 3512.83   3
  -4   0  -7 183482. 5032.60   2
  -5   0  -7 179377. 4976.25   2
   5   0   7 182551. 3460.09   3
  -6   0  -7 1510.85 460.405   2
   6   0   7 1862.30 343.692   3
  -7   0  -7 78073.1 3359.86   2
   7   0   7 73674.1 2287.50   3
  -8   0  -7 29157.6 2063.43   2
   8   0   7 30292.9 1513.77   3
  -8   0  -7 26310.9 1801.91   5
   9   0   7 48713.6 2031.18   3
  -9   0  -7 45167.1 2651.36   2
  -9   0  -7 45799.9 2427.21   5
  10   0   7 17483.9 1282.39   3
 -10   0  -7 17060.6 1479.55   5
 -10   0   7 21425.3 2398.70   1
 -11   0  -7 48415.4 2598.93   5
 -11   0   7 52651.6 3862.59   1
 -12   0  -7 2674.39 633.171   5
 -12   0   7 2550.45 925.675   1
 -13   0   7 102404. 5739.25   1
 -13   0  -7 89205.5 3730.97   5
 -14   0   7 83444.2 5296.24   1
 -15   0   7 109667. 6213.38   1
 -16   0   7 3355.41 1178.49   1
 -17   0   7 38009.1 3861.71   1
   0   0  -8 86460.4 3720.66   2
  -1   0  -8 50764.0 2789.27   2
   1   0  -8 49133.3 2852.93   2
  -2   0  -8 201935. 5724.74   2
  -3   0  -8 16724.1 1569.68   2
   3   0   8 16351.1 1016.23   3
  -4   0  -8 305390. 7070.57   2
   4   0   8 264112. 4586.70   3
   5   0   8 16751.6 1004.91   3
  -5   0  -8 20381.2 1742.16   2
  -6   0  -8 58138.9 2977.18   2
   6   0   8 37494.1 1532.28   3
  -7   0  -8 3894.74 795.057   2
  -8   0  -8 2014.06 611.502   2
  -9   0  -8 291.623 304.003   2
  -9   0  -8 314.039 233.885   5
 -10   0   8 6353.99 1406.91   1
 -10   0  -8 6375.14 992.904   5
 -11   0   8 10281.3 1797.28   1
 -11   0  -8 6857.06 1021.66   5
 -12   0   8 43104.0 3706.93   1
 -12   0  -8 31026.7 2235.92   5
 -13   0   8 15820.5 2334.79   1
 -13   0  -8 13332.5 1509.38   5
 -14   0   8 182465. 8103.89   1
 -15   0   8 1637.62 944.907   1
 -16   0   8 128441. 7059.25   1
   0   0  -9-381.285 416.053   2
   1   0  -9 53545.9 3163.31   2
  -1   0  -9 55969.1 3150.62   2
  -2   0  -9 114061. 4582.02   2
   2   0  -9 117569. 4863.79   2
  -3   0  -9 156904. 5331.41   2
  -4   0  -9 19885.7 1835.76   2
  -5   0  -9 40886.0 2663.81   2
  -6   0  -9 90.9103 254.837   2
  -7   0  -9 53266.6 3140.55   2
  -8   0  -9 1165.56 526.197   2
  -9   0  -9 142422. 4997.29   5
  -9   0  -9 147736. 5486.76   2
 -10   0  -9 5835.67 1030.47   5
 -10   0  -9 6094.39 1137.43   2
 -10   0   9 6333.24 1502.08   1
 -11   0   9 80352.0 5122.03   1
 -11   0  -9 61198.5 3330.22   5
 -12   0   9 1573.00 744.053   1
 -12   0  -9 952.093 476.267   5
 -13   0   9 39273.8 3702.30   1
 -13   0  -9 30237.0 2404.92   5
 -14   0   9 4090.51 1249.45   1
 -14   0  -9 2838.76 772.799   5
 -15   0   9 57594.2 4775.06   1
   0   0 -10 25563.3 2283.79   2
  -1   0 -10 14697.3 1721.41   2
   1   0 -10 13897.0 1725.99   2
  -2   0 -10 55935.4 3373.91   2
   2   0 -10 50193.2 3357.13   2
  -3   0 -10 530.125 410.187   2
  -4   0 -10 27322.6 2328.90   2
  -5   0 -10 19336.3 1942.44   2
  -6   0 -10 25357.9 2234.88   2
  -7   0 -10-194.124 337.954   2
  -8   0 -10 251275. 7612.59   2
  -9   0 -10 1384.95 646.248   2
  -9   0 -10 338.532 338.860   5
 -10   0 -10 229755. 6967.13   5
 -10   0 -10 238802. 7615.29   2
 -11   0 -10 420.513 311.110   5
 -11   0  10 1051.48 843.644   1
 -12   0  10 21355.6 2827.22   1
 -12   0 -10 16221.5 1845.24   5
 -13   0  10 10020.7 1964.16   1
 -13   0 -10 3161.27 802.884   5
   0   0 -11 228.443 294.324   2
  -1   0 -11 65719.0 3941.66   2
   1   0 -11 71248.7 4160.05   2
   2   0 -11 36777.5 3043.55   2
  -2   0 -11 39414.7 2999.36   2
  -3   0 -11 105484. 4970.83   2
   3   0 -11 104370. 5232.73   2
   4   0 -11 38052.4 3174.53   2
  -4   0 -11 42335.1 3101.85   2
  -5   0 -11 18541.2 2034.29   2
  -6   0 -11-406.089 473.181   2
  -7   0 -11 24642.1 2433.40   2
  -8   0 -11 8343.35 1429.03   2
  -9   0 -11 118150. 5165.88   5
  -9   0 -11 112570. 5341.81   2
 -10   0 -11 2029.47 816.591   2
 -10   0 -11 1335.35 606.192   5
 -11   0 -11 22581.2 2255.49   5
 -11   0  11 28488.2 3280.11   1
 -12   0  11-397.878 428.502   1
 -12   0 -11 137.952 319.712   5
   0   0 -12 25815.1 2598.42   2
   1   0 -12-244.152 469.990   2
  -1   0 -12 468.133 371.686   2
  -2   0 -12 127027. 5815.05   2
   2   0 -12 120913. 5899.32   2
  -3   0 -12 4198.95 1092.64   2
   3   0 -12 2740.02 927.379   2
   4   0 -12 112353. 5798.46   2
  -4   0 -12 103753. 5197.84   2
  -5   0 -12 1537.67 691.856   2
   5   0 -12 1597.32 802.662   2
  -6   0 -12 7659.14 1400.09   2
  -7   0 -12 13109.3 1859.35   2
  -8   0 -12 11609.5 1803.81   2
  -9   0 -12 812.974 551.611   5
 -10   0 -12 7342.24 1356.84   5
 -11   0 -12 9118.58 1473.31   5
   0   0 -13-10.9177 362.264   2
  -1   0 -13 2566.70 895.702   2
   1   0 -13 2556.15 818.601   2
   2   0 -13 7876.62 1588.02   2
  -2   0 -13 6717.92 1369.50   2
   3   0 -13 96568.9 5538.63   2
  -3   0 -13 92363.8 5183.39   2
   4   0 -13 18045.0 2415.87   2
  -4   0 -13 16425.6 2165.53   2
   1  -1   0 885.534 102.499   1
   1   1   0 420.508 105.616   3
  -2  -1   0 17872.7 747.854   1
  -2   1   0 17772.3 666.136   1
   2  -1   0 18461.4 675.285   1
   2   1   0 20192.4 832.615   1
  -3   1   0 915.420 197.774   1
  -3   1   0 700.925 221.119   4
   3   1   0 471.064 160.062   1
   3  -1   0 899.065 196.873   1
  -3  -1   0 854.330 216.424   1
  -4   1   0 565435. 7130.61   1
  -4  -1   0 572087. 7443.45   1
  -5   1   0 710.602 241.005   1
  -5  -1   0 544.587 244.103   1
  -5   1   0 1084.10 386.379   4
  -6   1   0 1822.28 564.906   4
  -6   1   0 1250.33 327.744   1
  -6  -1   0 1344.90 365.303   1
  -7  -1   0 447.010 303.017   1
  -7   1   0 491.341 281.362   4
  -7   1   0 354.420 188.186   1
  -8   1   0 107076. 5039.93   4
  -8   1   0 103784. 3419.20   1
  -8  -1   0 104801. 3517.11   1
  -9  -1   0 441.781 215.367   1
  -9   1   0 349.109 229.277   1
 -10   1   0 50972.2 3905.98   4
 -10  -1   0 46758.9 2576.80   1
 -10   1   0 47547.7 2565.28   1
 -11  -1   0 196.540 188.719   1
 -11   1   0 425.839 400.259   1
 -12  -1   0 418.940 359.320   1
 -12   1   0 1068.05 490.284   1
 -13   1   0-16.9089 349.038   1
 -13  -1   0 168.011 234.053   1
 -14  -1   0 133073. 5303.04   1
 -14   1   0 133570. 5348.24   1
 -15   1   0 384.611 441.165   1
 -15  -1   0 449.873 455.922   1
 -16   1   0 9618.12 1559.56   1
 -16  -1   0 10815.6 1620.65   1
 -17  -1   0 97.1649 426.561   1
 -17   1   0 443.288 554.083   1
 -18   1   0 3671.46 992.758   1
 -18  -1   0 2357.35 868.217   1
 -19   1   0 315.227 596.383   1
 -19  -1   0 589.093 717.385   1
 -20  -1   0 2753.10 966.870   1
   0   1  -1 4511.71 331.707   3
   0  -1   1 4168.07 302.123   3
   0   1  -1 5114.42 426.462   4
   1  -1   1 15749.7 613.610   3
   1  -1   1 15079.2 921.090   4
   1   1  -1 15369.0 714.083   3
  -1  -1  -1 14579.9 554.930   2
  -1   1  -1 15641.5 900.364   4
   1   1   1 15532.6 582.337   2
  -1  -1   1 15837.9 708.775   3
  -1   1  -1 15767.5 463.874   2
  -1   1  -1 14602.7 601.225   3
   1  -1   1 14534.5 445.335   2
   2  -1  -1 38127.8 1176.64   1
  -2  -1  -1 36917.8 910.988   1
   2  -1   1 36457.2 1702.37   4
   2  -1   1 34100.1 1007.53   5
   2   1   1 38357.1 1041.74   2
  -2  -1  -1 39645.1 1051.35   2
  -2   1   1 37205.9 1183.70   1
  -2   1  -1 36126.3 1666.30   4
   2  -1   1 38882.0 923.426   2
  -2   1  -1 34940.3 1026.96   5
   2   1   1 36928.1 965.482   1
  -3   1  -1 15343.7 731.912   5
  -3   1   1 15946.5 892.963   1
  -3  -1  -1 15446.3 715.621   1
   3  -1   1 14843.3 742.518   1
  -3   1  -1 19757.2 1393.16   4
  -3  -1  -1 15011.2 478.545   5
   3   1   1 15499.3 764.973   1
   3   1   1 16764.2 765.998   2
   3  -1   1 14515.3 724.441   5
   3  -1   1 14511.0 1184.17   4
   3  -1  -1 15178.2 845.904   1
  -4   1  -1 168245. 2989.91   5
  -4  -1   1 167572. 3778.18   1
  -4   1  -1 167409. 4822.84   4
  -4   1   1 158267. 3708.19   4
  -4  -1  -1 168560. 3095.76   1
   4   1   1 174271. 2387.92   5
  -4   1   1 162942. 3510.74   1
  -5  -1  -1 42690.2 1598.62   1
  -5   1  -1 41823.1 2636.13   4
  -5   1   1 37950.4 1937.18   4
  -5  -1   1 42575.3 1927.49   1
  -5   1   1 41279.5 1794.91   1
   5   1   1 42066.5 1150.87   5
  -6   1   1 2272.78 546.264   4
  -6  -1   1 3079.92 543.012   1
  -6   1  -1 4288.55 958.130   4
  -6   1  -1 3372.15 506.067   1
   6   1  -1 4623.93 655.559   4
  -6   1   1 4466.08 633.007   1
  -6  -1  -1 3030.75 466.518   1
  -7   1   1 106281. 4074.67   4
  -7  -1   1 108256. 3624.12   1
  -7   1  -1 115744. 5250.39   4
  -7   1  -1 111527. 3186.56   1
  -7   1   1 114306. 3543.01   1
  -7  -1  -1 111237. 3182.76   1
  -8   1  -1 173253. 4370.28   1
  -8  -1   1 173119. 4912.98   1
  -8   1   1 183662. 6005.17   4
  -8  -1  -1 177280. 4425.85   1
  -8   1   1 171096. 4755.60   1
  -8   1  -1 188993. 7272.39   4
  -9   1   1 3404.14 920.847   4
  -9   1   1 1797.61 431.045   1
  -9   1  -1 2363.30 543.622   1
  -9  -1  -1 2801.89 569.286   1
  -9  -1   1 2845.19 662.937   1
 -10   1   1 111866. 4218.78   1
 -10   1   1 122945. 5808.34   4
 -10  -1  -1 114289. 3921.87   1
 -10   1  -1 111622. 3892.31   1
 -10  -1   1 107588. 4144.50   1
 -11   1  -1 84845.4 3549.48   1
 -11   1   1 87270.6 3858.13   1
 -11  -1  -1 85178.4 3551.68   1
 -11  -1   1 83484.3 3832.94   1
 -12  -1   1 3442.63 783.813   1
 -12   1   1 3316.10 814.464   1
 -12   1  -1 4303.96 828.904   1
 -12  -1  -1 4185.68 830.352   1
 -13   1  -1 14572.0 1610.21   1
 -13  -1  -1 14361.3 1565.53   1
 -13  -1   1 14276.6 1703.37   1
 -13   1   1 14853.1 1734.43   1
 -14   1  -1 53036.1 3214.95   1
 -14   1   1 55821.1 3512.58   1
 -14  -1   1 53206.0 3448.18   1
 -14  -1  -1 52968.5 3210.77   1
 -15  -1  -1 5898.71 1149.88   1
 -15  -1   1 5034.39 1127.47   1
 -15   1   1 4880.63 1129.95   1
 -15   1  -1 4930.25 1035.87   1
 -16   1   1 25324.5 2545.34   1
 -16  -1   1 23839.5 2471.69   1
 -16  -1  -1 26198.2 2459.92   1
 -17   1   1 13224.6 1965.22   1
 -17  -1   1 11233.4 1753.80   1
 -17  -1  -1 10846.1 1650.23   1
 -18  -1  -1 1973.48 830.459   1
 -18  -1   1 2956.12 1000.44   1
 -18   1   1 1237.30 725.874   1
 -19  -1   1 7518.65 1557.03   1
 -19   1   1 6987.81 1517.04   1
 -20  -1   1 1050.65 822.520   1
 -20   1   1 1677.59 878.596   1
   0  -1   2 37.9456 64.8629   3
   0   1  -2 288.675 135.961   3
   0   1  -2 533.008 192.539   4
   0  -1   2 180.828 202.360   4
  -1   1  -2 61307.0 1372.00   2
   1  -1   2 51234.1 2186.11   4
  -1  -1   2 52797.6 1414.46   4
   1  -1   2 57455.9 1340.61   2
   1  -1   2 60465.1 1416.58   3
  -1  -1   2 62445.8 1647.94   3
  -1  -1  -2 60706.7 1559.69   2
  -1   1  -2 60857.8 1448.92   3
   1   1  -2 57853.4 1544.01   4
   1   1  -2 55066.2 1549.51   3
  -1   1  -2 55715.8 2236.83   4
   2  -1   2 609760. 6700.86   2
  -2   1  -2 587629. 9685.72   4
  -2  -1  -2 634112. 7086.06   2
  -2   1  -2 608300. 6699.40   2
   2  -1   2 609949. 6805.85   3
   2   1  -2 588401. 7774.30   3
  -3   1  -2 85610.0 1899.01   2
   3  -1   2 79068.2 1809.00   2
  -3   1  -2 78960.6 3449.13   4
  -3   1  -2 94425.7 2077.13   5
  -3  -1  -2 85974.9 2022.87   2
   3   1   2 86788.2 1915.99   1
  -4   1  -2 31337.8 1236.46   5
  -4   1  -2 30910.4 2314.74   4
  -4  -1  -2 30941.5 1253.86   2
  -4   1   2 30357.4 1591.10   1
  -4  -1  -2 32266.0 963.748   5
  -5  -1   2 1399.39 430.002   1
  -5   1  -2 1313.71 277.234   5
   5   1  -2 1436.65 238.899   4
  -5  -1  -2 1235.66 205.017   5
  -5   1   2 1935.10 437.816   1
  -5   1   2 1469.38 387.653   4
  -6   1  -2 101.987 105.069   5
  -6   1   2 449.140 227.401   4
  -6   1  -2 264.140 394.403   4
  -6   1   2 1260.70 410.686   1
   6   1  -2 1634.97 292.159   4
  -6  -1  -2 276.368 121.329   5
  -6  -1   2 409.184 229.699   1
   7   1  -2 5741.51 614.234   4
  -7  -1   2 5008.54 816.331   1
  -7  -1  -2 5008.12 629.574   1
  -7   1   2 5637.27 854.042   4
  -7   1   2 4951.76 794.866   1
  -8   1   2 16803.8 1587.71   4
  -8  -1  -2 17463.1 1267.76   1
  -8   1   2 18733.8 1597.99   1
  -8  -1   2 17367.6 1567.94   1
  -9  -1  -2 725.958 340.354   1
  -9  -1   2-7.57981 144.240   1
  -9   1   2 54.6349 337.869   4
  -9   1   2 219.774 230.484   1
 -10  -1   2 29660.0 2263.51   1
 -10   1   2 24849.3 2022.65   1
 -10  -1  -2 27396.6 1801.35   1
 -11   1   2 4881.74 954.702   1
 -11   1   2 4155.76 972.396   4
 -11  -1   2 4708.96 951.712   1
 -11  -1  -2 4677.82 806.333   1
 -12  -1  -2 3641.23 764.007   1
 -12   1   2 4055.65 932.883   1
 -12  -1   2 4061.61 899.433   1
 -13   1   2 3276.63 852.776   1
 -13  -1  -2 3463.49 806.161   1
 -13  -1   2 2738.84 768.298   1
 -14  -1   2 955.554 661.002   1
 -14   1   2 1186.14 632.116   1
 -15   1   2 10685.7 1622.16   1
 -15  -1   2 13390.2 1888.72   1
 -16   1   2 84566.5 4801.07   1
 -16  -1   2 81605.0 4761.74   1
 -17   1   2 6834.79 1466.74   1
 -17  -1   2 5396.08 1244.65   1
 -18   1   2 898.237 566.331   1
 -18  -1   2 726.415 554.565   1
 -19  -1   2 10314.3 1877.01   1
 -19   1   2 10688.6 1893.39   1
 -20   1   2 68715.4 4926.15   1
 -20  -1   2 73809.6 5133.79   1
   0  -1   3 121246. 3678.78   4
   0  -1   3 135484. 2578.69   3
  -1  -1   3 154624. 3036.89   3
  -1   1  -3 151755. 2727.64   3
  -1  -1  -3 149235. 3075.20   2
   1  -1   3 151375. 2633.82   3
  -1   1  -3 149366. 2825.80   2
   2  -1   3 21074.0 902.059   3
   2   1   3 20576.2 479.538   3
  -2   1  -3 21943.4 994.240   2
  -2  -1  -3 21417.2 1075.30   2
  -3   1  -3 36507.2 1335.18   2
   3  -1   3 36113.4 1268.15   3
  -3  -1  -3 33985.8 1392.71   2
  -4   1  -3 961.421 241.535   2
  -4  -1  -3 925.730 241.436   2
  -5  -1  -3 60033.7 2026.18   2
  -5   1   3 60456.0 2670.92   1
  -5   1  -3 66683.6 2094.80   5
  -6   1   3 5334.14 723.941   4
  -6  -1  -3 5515.66 514.649   5
  -6   1  -3 6051.24 644.284   5
  -6   1   3 6628.83 913.770   1
  -7   1  -3 3691.32 531.398   5
  -7  -1  -3 4292.70 477.990   5
  -7  -1   3 3266.81 706.762   1
  -7   1   3 2710.58 633.637   1
  -7   1   3 3175.70 625.881   4
  -8   1  -3 137661. 3467.68   5
  -8   1   3 123822. 4531.40   1
  -8  -1   3 118102. 4517.10   1
  -8   1   3 142224. 4328.89   4
  -8  -1  -3 118430. 2847.92   5
  -9  -1   3 1223.92 480.418   1
  -9   1   3 1233.88 480.783   4
  -9   1   3 1601.64 565.349   1
 -10   1   3 141092. 5276.95   1
 -10  -1   3 138180. 5319.75   1
 -11   1   3 3267.15 852.717   4
 -11  -1   3 3459.23 917.293   1
 -11   1   3 1865.87 632.740   1
 -12  -1   3 11169.2 1595.18   1
 -12   1   3 9582.01 1456.14   1
 -13   1   3 32694.3 2760.89   1
 -13  -1   3 31729.3 2773.90   1
 -14   1   3 6293.25 1266.93   1
 -14  -1   3 6945.13 1354.50   1
 -15   1   3 7359.36 1360.88   1
 -15  -1   3 6742.36 1367.80   1
 -16  -1   3 3294.45 949.159   1
 -16   1   3 2613.50 921.608   1
 -17   1   3 27389.0 2890.28   1
 -17  -1   3 26100.0 2859.67   1
 -18  -1   3 26968.8 2975.14   1
 -18   1   3 25926.8 2901.87   1
 -19  -1   3 15000.4 2270.32   1
 -19   1   3 12630.5 2102.02   1
   0  -1  -4 671.369 110.306   3
   0  -1   4 393.130 163.816   3
   1  -1   4 22151.2 1010.66   3
  -1  -1  -4 21340.6 1254.44   2
  -1   1  -4 20927.1 1150.85   2
  -2  -1  -4 21867.2 1244.13   2
  -2  -1   4 21405.6 1249.58   4
   2   1   4 22959.6 578.334   3
   2  -1   4 21290.8 974.420   3
  -2   1  -4 24245.7 1222.59   2
  -3  -1   4 10146.4 601.477   4
  -3  -1  -4 12886.5 952.693   2
   3  -1   4 13307.4 786.316   3
  -3   1  -4 13264.7 907.220   2
   3   1   4 12568.2 483.624   3
   4  -1   4 164836. 3241.73   3
  -4   1  -4 166219. 3588.20   2
  -4  -1  -4 164199. 3720.33   2
  -5  -1  -4 143225. 3574.35   2
  -5   1  -4 143466. 3436.01   2
  -6  -1  -4 38389.1 1818.03   2
  -6   1  -4 42033.6 1851.11   2
  -6   1   4 37663.4 2363.23   1
  -6   1  -4 41277.5 1827.85   5
  -7   1  -4 10908.6 954.305   5
  -7   1   4 12759.8 1434.58   1
  -7   1   4 13901.5 1144.15   4
  -7  -1  -4 12247.3 878.807   5
  -7  -1  -4 13694.4 1129.13   2
  -8  -1   4 14493.7 1636.45   1
  -8   1   4 14257.4 1595.39   1
  -8   1   4 17039.9 1358.04   4
  -8  -1  -4 14749.6 1010.93   5
  -8   1  -4 15767.8 1197.38   5
  -9  -1  -4 159833. 3690.80   5
  -9  -1   4 148970. 5580.50   1
  -9   1   4 155448. 5619.90   1
  -9   1  -4 166793. 4230.79   5
 -10  -1   4 722.248 466.417   1
 -10   1  -4 617.907 283.717   5
 -10   1   4 1490.86 524.566   4
 -10   1   4 465.876 305.593   1
 -11  -1   4 259.984 354.797   1
 -11   1   4 801.131 477.693   4
 -11   1   4 517.798 493.097   1
 -12  -1   4 7080.08 1328.83   1
 -12   1   4 8246.86 1381.19   1
 -13   1   4 60244.0 3941.93   1
 -13  -1   4 65652.0 4167.32   1
 -14  -1   4 61668.6 4156.32   1
 -14   1   4 63522.6 4119.55   1
 -15   1   4 2759.17 849.429   1
 -15  -1   4 1213.76 538.909   1
 -16  -1   4 820.585 541.806   1
 -16   1   4 1168.01 706.009   1
 -17   1   4 3197.35 1098.99   1
 -17  -1   4 4871.27 1328.90   1
 -18  -1   4-825.800 778.047   1
 -18   1   4 70.3028 406.133   1
 -19   1   4 1655.20 909.606   1
 -19  -1   4 1291.62 778.089   1
   0  -1  -5 609.772 121.146   3
   0   1  -5 245.990 131.931   2
   0  -1   5 410.575 196.254   3
   1  -1  -5 3254.25 340.169   3
  -1   1  -5 4041.82 583.184   2
  -1  -1  -5 4416.42 640.357   2
   1  -1   5 3925.66 466.230   3
   2   1   5 105143. 1749.22   3
  -2   1  -5 106487. 3046.64   2
   2  -1   5 101089. 2425.75   3
  -2  -1   5 104346. 3577.66   4
  -2  -1  -5 104502. 3176.34   2
   3  -1   5 36828.7 1423.24   3
  -3   1  -5 37942.5 1760.55   2
  -3  -1  -5 37416.4 1862.88   2
   3   1   5 36886.6 919.365   3
   4  -1   5 20257.3 1061.80   3
  -4   1  -5 19381.4 1248.41   2
   4   1   5 19624.4 735.868   3
  -4  -1  -5 17914.6 1275.08   2
  -5  -1  -5 2141.78 458.694   2
  -5   1  -5 1230.24 345.569   2
   5  -1   5 1626.91 320.529   3
  -6  -1  -5 119485. 3599.97   2
   6  -1   5 112781. 2946.40   3
  -6   1  -5 113663. 3402.97   2
  -7   1  -5 77548.7 2860.13   2
  -7   1   5 82664.9 3903.25   1
  -7  -1  -5 77818.9 2513.06   5
  -7  -1  -5 80626.6 2977.47   2
  -8   1  -5 9509.62 985.296   5
  -8   1   5 10453.4 1007.08   4
  -8  -1  -5 8274.20 962.152   2
  -8   1   5 7962.03 1246.72   1
  -8  -1  -5 9463.82 872.003   5
  -9  -1   5 22.3450 288.772   1
  -9   1   5 380.920 226.753   4
  -9   1  -5 203.085 224.162   5
  -9  -1  -5 590.000 272.161   5
  -9   1   5 126.004 234.242   1
 -10   1  -5 6254.81 849.025   5
 -10  -1  -5 6928.56 789.252   5
 -10  -1   5 7222.36 1299.96   1
 -10   1   5 6874.83 1217.54   1
 -11  -1  -5 37587.5 1924.73   5
 -11   1  -5 37280.8 2134.00   5
 -11  -1   5 38910.1 3095.11   1
 -11   1   5 39688.1 3136.06   1
 -12   1   5 56631.8 3843.37   1
 -12  -1   5 57237.2 3891.85   1
 -13   1   5 919.340 583.132   1
 -13  -1   5 2450.45 847.604   1
 -14  -1   5 7990.51 1558.83   1
 -14   1   5 7404.57 1559.30   1
 -15  -1   5 5162.40 1346.12   1
 -15   1   5 6774.65 1437.03   1
 -16  -1   5 43948.3 3795.09   1
 -16   1   5 43741.1 3738.39   1
 -17  -1   5 1777.10 718.520   1
 -17   1   5 2567.16 956.861   1
 -18  -1   5 354.074 455.839   1
 -18   1   5 313.045 408.940   1
 -19   1   5 339.139 454.204   1
   0   1  -6 36.8539 174.673   2
   0  -1  -6 66.7584 56.0010   3
  -1   1  -6 96333.2 3182.88   2
  -1  -1  -6 93110.1 3320.40   2
   1  -1   6 102037. 2667.73   3
  -2   1  -6 3531.00 607.069   2
   2  -1   6 2568.80 396.520   3
  -2  -1  -6 2639.56 549.192   2
   3   1   6 89561.1 1723.88   3
  -3   1  -6 85069.3 2988.90   2
  -3  -1  -6 83441.0 3105.88   2
   3  -1   6 86723.5 2343.21   3
   4  -1   6 27852.9 1313.81   3
  -4   1  -6 28503.9 1681.49   2
   4   1   6 28516.2 921.221   3
  -4  -1  -6 27616.6 1729.85   2
  -5  -1  -6 12843.4 1170.11   2
   5   1   6 13525.4 685.824   3
  -5   1  -6 12677.6 1151.86   2
   5  -1   6 14116.9 967.629   3
   6   1   6 76241.4 1900.62   3
   6  -1   6 75844.2 2403.49   3
  -6   1  -6 76795.4 3005.17   2
  -6  -1  -6 77683.1 3058.58   2
  -7   1  -6 19905.6 1494.06   5
  -7   1  -6 16654.8 1409.24   2
  -7  -1  -6 19292.0 1551.87   2
   7  -1   6 19559.9 1251.65   3
  -8  -1  -6 16017.4 1448.62   2
  -8   1  -6 18118.3 1459.95   5
  -8  -1  -6 17654.3 1279.91   5
  -8   1  -6 17337.5 1467.34   2
  -8   1   6 19607.3 2066.55   1
  -8   1   6 20807.5 1356.17   4
   8  -1   6 17354.7 1235.54   3
  -9  -1  -6 3250.07 558.465   5
   9  -1   6 2551.26 487.502   3
  -9   1   6 3290.64 896.766   1
  -9   1  -6 2737.44 565.895   5
 -10   1   6 25742.1 2507.58   1
 -10  -1   6 24790.1 2496.96   1
 -10   1  -6 20318.3 1627.39   5
 -10  -1  -6 22390.3 1519.70   5
 -11  -1   6 8389.46 1510.13   1
 -11  -1  -6 6158.59 819.722   5
 -11   1   6 8667.73 1506.86   1
 -11   1  -6 6151.40 909.644   5
 -12  -1  -6 47786.0 2387.78   5
 -12  -1   6 46305.9 3592.64   1
 -12   1   6 46815.7 3648.26   1
 -12   1  -6 40478.5 2420.12   5
 -13   1   6-15.0744 510.455   1
 -13  -1   6 64.1636 316.077   1
 -14   1   6 11010.5 1830.01   1
 -14  -1   6 10304.7 1838.70   1
 -15   1   6 46512.7 3932.74   1
 -15  -1   6 46187.9 3947.14   1
 -16   1   6 33.9697 529.103   1
 -16  -1   6 1245.08 641.095   1
 -17   1   6 15856.0 2405.73   1
 -17  -1   6 13951.5 2257.02   1
 -18  -1   6 19.3661 430.915   1
 -18   1   6 1382.42 898.104   1
   0   1  -7 310070. 6779.80   2
   0  -1  -7 315582. 7113.88   2
   0  -1  -7 309263. 4245.85   3
   1  -1   7 2683.80 467.750   3
  -1   1  -7 2161.06 529.684   2
  -1  -1  -7 2707.15 619.675   2
   1  -1  -7 2622.13 351.058   3
  -2  -1  -7 6229.58 888.631   2
  -2   1  -7 6340.57 849.352   2
   2  -1   7 7187.43 711.081   3
  -3  -1  -7 16900.8 1467.92   2
  -3   1  -7 15726.1 1385.28   2
   3  -1   7 17199.3 1083.99   3
   4  -1   7 40813.1 1681.36   3
  -4   1  -7 38826.8 2176.27   2
  -4  -1  -7 40275.9 2300.55   2
   4   1   7 41207.7 1210.70   3
   5   1   7 1165.53 201.995   3
  -5   1  -7 882.565 355.451   2
  -5  -1  -7 516.133 299.210   2
   5  -1   7 1040.71 286.183   3
   6   1   7 763.189 184.691   3
   6  -1   7 310.391 198.273   3
  -6   1  -7 598.394 353.154   2
  -6  -1  -7 268.927 296.595   2
   7  -1   7 44188.0 1906.52   3
  -7  -1  -7 43910.2 2508.44   2
  -7   1  -7 42873.2 2428.19   2
   8  -1   7 29082.5 1620.67   3
  -8   1  -7 26961.0 1958.44   2
  -8  -1  -7 28275.8 2018.59   2
  -8   1  -7 28695.1 1958.60   5
   9  -1   7 682.823 294.642   3
  -9   1  -7 1530.89 473.660   5
  -9  -1  -7 1435.02 451.260   5
  -9   1   7 1392.57 719.947   1
  -9  -1  -7 944.674 406.518   2
 -10   1   7 23971.8 2576.19   1
  10  -1   7 18581.8 1425.34   3
 -10   1  -7 19167.6 1668.32   5
 -10  -1  -7 20460.2 1560.91   5
 -10  -1   7 24259.2 2537.11   1
 -11   1   7 25865.2 2714.13   1
 -11   1  -7 24335.4 1928.08   5
 -11  -1  -7 20434.4 1633.31   5
  11  -1   7 22749.0 1647.38   3
 -11  -1   7 24209.7 2650.87   1
 -12   1  -7 2452.19 633.351   5
  12  -1   7 489.103 207.641   3
 -12  -1   7 1714.90 814.918   1
 -12   1   7 1519.22 771.794   1
 -12  -1  -7 911.039 369.609   5
 -13   1  -7 5236.96 973.339   5
 -13   1   7 5152.29 1250.92   1
 -13  -1   7 5744.04 1434.29   1
 -13  -1  -7 5070.79 841.236   5
 -14  -1   7 10061.3 1854.57   1
 -14   1   7 9309.68 1856.79   1
 -15  -1   7 5800.20 1425.87   1
 -15   1   7 5191.79 1485.39   1
 -16   1   7 1891.51 889.936   1
 -16  -1   7 2445.05 950.463   1
 -17  -1   7 3657.31 1261.40   1
 -17   1   7 1779.83 812.131   1
   0  -1  -8-180.799 288.059   2
   0   1  -8 203.939 166.254   2
  -1  -1  -8-71.0034 190.701   2
   1   1  -8-303.980 329.153   2
  -1   1  -8 162.700 271.635   2
   1  -1  -8 203.355 222.864   2
   2  -1   8 1011.48 280.496   3
  -2  -1  -8 832.805 397.597   2
  -2   1  -8 985.831 407.446   2
  -3   1  -8 23958.7 1858.63   2
  -3  -1  -8 24161.2 1940.97   2
   3  -1   8 26058.8 1437.72   3
  -4  -1  -8 9558.02 1221.49   2
  -4   1  -8 8433.97 1078.62   2
   4  -1   8 9562.69 856.290   3
  -5   1  -8 20737.4 1714.70   2
  -5  -1  -8 20829.0 1783.40   2
   5  -1   8 19383.9 1230.86   3
   6  -1   8 61050.2 2231.17   3
  -6   1  -8 60165.3 3015.43   2
  -6  -1  -8 62899.1 3164.70   2
  -7   1  -8 14007.3 1495.34   2
   7  -1   8 14347.2 1098.37   3
  -7  -1  -8 12309.3 1454.77   2
   8  -1   8 37590.7 1888.87   3
  -8   1  -8 39600.7 2481.38   5
  -8  -1  -8 35297.9 2474.36   2
  -8   1  -8 38562.6 2511.09   2
   9  -1   8 30481.1 1759.94   3
  -9  -1  -8 28262.8 1928.78   5
  -9   1  -8 28653.7 2215.11   2
  -9   1  -8 27485.5 2088.33   5
  -9  -1  -8 27699.7 2214.53   2
 -10   1  -8 37250.5 2466.41   5
 -10  -1  -8 34008.8 2179.25   5
  10  -1   8 30262.3 1836.11   3
 -11   1   8 3480.45 1086.02   1
 -11   1  -8 1703.47 569.373   5
 -11  -1  -8 1487.34 490.727   5
 -11  -1   8 2799.71 1058.13   1
 -12  -1   8 69630.4 4735.91   1
 -12   1  -8 57949.7 3215.56   5
 -12   1   8 74340.7 4886.06   1
 -12  -1  -8 54170.2 2850.78   5
 -13   1  -8 11065.4 1414.22   5
 -13  -1  -8 13208.0 1422.25   5
 -13  -1   8 17311.8 2465.41   1
 -13   1   8 19836.1 2668.16   1
 -14   1   8 1561.34 998.197   1
 -14  -1   8 686.450 613.929   1
 -15  -1   8 8707.08 1802.37   1
 -15   1   8 7136.85 1706.86   1
 -16   1   8 706.279 496.656   1
 -16  -1   8 716.703 758.544   1
   0   1  -9 63071.1 3359.54   2
   0  -1  -9 65834.6 3537.01   2
  -1  -1  -9 9230.63 1299.44   2
   1   1  -9 8166.80 1219.22   2
  -1   1  -9 10035.9 1302.29   2
   1  -1  -9 8716.00 1268.77   2
  -2  -1  -9 47249.8 2943.98   2
   2  -1  -9 42452.2 2944.50   2
   2   1  -9 41801.0 2836.84   2
  -2   1  -9 45153.0 2765.12   2
  -3  -1  -9 448.474 282.644   2
  -3   1  -9 102.800 251.409   2
   3  -1   9 515.367 252.322   3
  -4   1  -9 7830.42 1121.60   2
  -4  -1  -9 6955.21 1126.65   2
  -5  -1  -9 14612.4 1598.87   2
  -5   1  -9 13479.6 1494.97   2
  -6  -1  -9 82129.0 3853.07   2
  -6   1  -9 76734.1 3670.18   2
  -7  -1  -9 2025.17 560.123   2
  -7   1  -9 2800.53 721.476   2
  -8   1  -9-192.796 352.455   2
  -8  -1  -9-103.911 256.827   2
  -9  -1  -9 838.550 492.797   2
  -9   1  -9 882.534 380.322   2
  -9   1  -9 380.014 412.750   5
  -9  -1  -9 127.706 277.736   5
 -10  -1  -9 3075.38 703.780   5
 -10  -1  -9 2311.33 716.521   2
 -10   1   9 4545.84 1235.78   1
 -10   1  -9 3256.54 785.278   5
 -11  -1   9 2791.96 1024.46   1
 -11   1  -9 2582.38 770.669   5
 -11   1   9 3725.15 1138.78   1
 -11  -1  -9 1962.99 551.176   5
 -12  -1  -9 34355.4 2406.45   5
 -12   1   9 47470.5 3964.14   1
 -12  -1   9 45023.7 3924.96   1
 -12   1  -9 35577.8 2662.43   5
 -13   1  -9 7891.78 1264.49   5
 -13   1   9 11840.7 2108.71   1
 -13  -1   9 10425.8 1980.00   1
 -14   1  -9 1605.14 615.143   5
 -14   1   9 2883.51 1221.33   1
 -14  -1   9 1535.38 989.479   1
 -15   1   9 3707.37 1355.42   1
   0   1 -10 46.3748 302.315   2
   0  -1 -10 707.052 486.301   2
   1   1 -10 4053.60 938.063   2
   1  -1 -10 5556.89 1082.13   2
  -1   1 -10 4576.48 972.535   2
  -1  -1 -10 5139.90 1021.52   2
   2   1 -10 17149.4 1911.41   2
  -2   1 -10 18511.7 1883.15   2
  -2  -1 -10 19305.3 2019.20   2
   2  -1 -10 16388.2 1942.66   2
  -3  -1 -10 5317.09 1073.93   2
  -3   1 -10 4669.30 966.418   2
   3  -1 -10 4456.71 1065.13   2
   3   1 -10 4130.39 990.458   2
  -4  -1 -10 32168.0 2556.84   2
  -4   1 -10 32769.5 2498.04   2
  -5   1 -10 3007.30 780.643   2
  -5  -1 -10 3179.70 817.957   2
  -6  -1 -10 53180.5 3324.86   2
  -6   1 -10 57397.4 3377.66   2
  -7  -1 -10 595.327 484.216   2
  -7   1 -10 549.876 309.640   2
  -8  -1 -10 1484.72 629.513   2
  -8   1 -10 1762.41 693.964   2
  -9  -1 -10 14592.1 1621.41   5
  -9  -1 -10 13177.1 1689.75   2
  -9   1 -10 12969.4 1626.16   5
  -9   1 -10 14109.9 1771.78   2
 -10  -1 -10 2498.65 730.215   2
 -10   1 -10 1883.01 706.822   5
 -10   1  10 2919.50 1136.05   1
 -10  -1 -10 2396.04 628.696   5
 -11   1  10 1481.62 840.377   1
 -11  -1  10 1907.14 959.680   1
 -11  -1 -10 758.490 411.203   5
 -11   1 -10 922.138 427.688   5
 -12   1 -10 37877.2 2903.21   5
 -12  -1  10 45818.3 4103.43   1
 -12   1  10 46355.5 4090.13   1
 -13   1 -10 1553.75 647.288   5
 -13  -1  10 3409.87 1200.30   1
 -13   1  10 4977.27 1436.23   1
 -14   1 -10 21648.4 2231.05   5
 -14   1  10 30445.6 3463.87   1
   0  -1 -11 63920.7 3966.07   2
   0   1 -11 62291.9 3808.39   2
   1  -1 -11 21811.1 2311.51   2
  -1  -1 -11 22926.9 2329.05   2
   1   1 -11 18623.3 2096.90   2
  -1   1 -11 21847.3 2226.16   2
   2   1 -11 12141.0 1688.54   2
   2  -1 -11 11127.2 1673.75   2
  -2   1 -11 11247.6 1577.93   2
  -2  -1 -11 11903.6 1698.97   2
  -3   1 -11 11511.2 1613.98   2
  -3  -1 -11 11861.2 1694.64   2
   3  -1 -11 9737.84 1602.57   2
   3   1 -11 8477.00 1461.41   2
  -4   1 -11 7665.68 1269.87   2
   4   1 -11 8775.07 1519.85   2
  -4  -1 -11 9001.31 1431.52   2
   4  -1 -11 7986.70 1471.10   2
  -5  -1 -11 9581.80 1493.15   2
  -5   1 -11 10132.6 1494.84   2
  -6   1 -11 8714.50 1450.82   2
  -6  -1 -11 9842.93 1529.17   2
  -7  -1 -11 1140.02 538.436   2
  -7   1 -11 1369.16 654.555   2
  -8  -1 -11 4838.25 1126.14   2
  -8   1 -11 6228.56 1211.27   2
  -9  -1 -11 1565.40 713.363   2
  -9   1 -11 1129.34 545.527   5
  -9   1 -11 1252.28 604.347   2
  -9  -1 -11 196.905 223.507   5
 -10  -1 -11 2689.23 834.165   2
 -10   1  11 2295.93 967.901   1
 -10  -1 -11 1700.99 633.045   5
 -10   1 -11 2073.15 716.321   5
 -11  -1  11 2178.19 962.728   1
 -11   1 -11 1802.62 683.604   5
 -11   1  11 2868.08 1058.88   1
 -12   1  11 1236.49 658.909   1
 -12   1 -11 553.867 410.037   5
 -13   1 -11 3843.11 1005.33   5
   0   1 -12 391.315 363.103   2
   0  -1 -12-21.4410 285.909   2
   1  -1 -12 2045.75 733.091   2
  -1   1 -12 2954.37 871.326   2
  -1  -1 -12 3644.51 1039.39   2
   1   1 -12 2282.93 822.097   2
   2   1 -12 7916.57 1474.62   2
  -2  -1 -12 9688.17 1606.83   2
   2  -1 -12 6671.19 1385.08   2
  -2   1 -12 9868.92 1582.13   2
   3   1 -12 6834.81 1400.93   2
  -3   1 -12 7127.74 1337.28   2
   3  -1 -12 5861.78 1340.82   2
  -3  -1 -12 6656.39 1338.07   2
   4   1 -12-105.082 340.584   2
   4  -1 -12 401.063 608.921   2
  -4   1 -12-147.306 360.514   2
  -4  -1 -12 1042.28 544.263   2
   5  -1 -12 5774.04 1374.10   2
  -5  -1 -12 5079.95 1171.60   2
  -5   1 -12 6768.05 1299.38   2
   5   1 -12 6188.27 1413.14   2
  -6   1 -12 24539.7 2531.28   2
  -6  -1 -12 26123.2 2639.73   2
  -7   1 -12 2375.28 800.330   2
  -7  -1 -12 1901.25 770.657   2
  -8  -1 -12 31694.6 2966.34   2
  -8   1 -12 30876.2 2877.50   2
  -9   1 -12 8707.46 1504.22   5
  -9   1 -12 8928.88 1580.39   2
  -9  -1 -12 8033.07 1365.43   5
 -10   1  12 27273.8 3240.96   1
 -10   1 -12 21131.7 2349.22   5
   0   1 -13 20981.0 2501.16   2
   0  -1 -13 25540.1 2793.55   2
   1  -1 -13-900.115 520.373   2
  -1  -1 -13 522.303 523.809   2
  -1   1 -13 709.169 492.196   2
   1   1 -13-168.939 505.523   2
   2   1 -13 6220.88 1365.74   2
   2  -1 -13 6261.60 1418.37   2
  -2   1 -13 6683.96 1373.82   2
  -2  -1 -13 8922.86 1656.72   2
   3   1 -13 6995.99 1476.71   2
  -3   1 -13 7943.58 1487.76   2
   4   1 -13 449.187 451.773   2
  -4   1 -13 212.057 307.881   2
  -5   1 -13 4689.22 1112.49   2
   0   2   0 229772. 3260.58   3
   0  -2   0 217867. 2781.32   5
   0  -2   0 223012. 3218.39   3
   1  -2   0 358.803 116.176   3
  -1  -2   0 508.836 147.106   3
   1   2   0 613.569 162.228   3
   1  -2   0 460.458 120.170   5
   1   2   0 657.442 97.4798   5
   1   2   0 1108.26 119.201   2
   2  -2   0 146559. 2303.35   1
   2  -2   0 155672. 2681.43   5
   2   2   0 145826. 2180.51   2
   2   2   0 158022. 2958.27   3
  -2  -2   0 147669. 2641.46   1
   3  -2   0 699.028 169.498   1
  -3  -2   0 430.575 162.908   1
  -4  -2   0 763361. 9319.09   1
  -4   2   0 760383. 8825.60   1
  -5  -2   0 299.759 222.800   1
  -5   2   0 290.435 273.241   4
  -5   2   0 445.703 207.658   1
  -6   2   0 239802. 6278.75   4
  -6   2   0 248261. 4822.82   1
  -6  -2   0 255959. 5109.64   1
  -7  -2   0 317.593 216.097   1
  -7   2   0 530.815 274.418   1
  -7   2   0 602.402 411.198   4
  -8   2   0 342883. 6652.30   1
  -8   2   0 322222. 8508.44   4
  -8  -2   0 331702. 6677.74   1
  -9   2   0 878.693 355.502   1
  -9  -2   0 423.169 288.076   1
  -9   2   0 801.468 532.849   4
 -10  -2   0 236419. 6099.96   1
 -10   2   0 233945. 8173.72   4
 -10   2   0 222393. 5833.20   1
 -11   2   0 87.9310 335.172   4
 -11   2   0 256.082 301.122   1
 -11  -2   0 533.545 321.062   1
 -12   2   0 83248.4 3812.07   1
 -12  -2   0 83737.7 3858.11   1
 -12   2   0 87896.6 5590.17   4
 -13  -2   0 1037.90 566.082   1
 -13   2   0 151.171 394.122   4
 -13   2   0 1056.19 597.150   1
 -14  -2   0 231758. 7131.21   1
 -14   2   0 219224. 7004.46   1
 -15   2   0 1406.85 770.367   1
 -15  -2   0 1742.89 734.451   1
 -16   2   0 56173.2 3739.02   1
 -16  -2   0 54939.6 3691.50   1
 -17  -2   0-352.938 338.610   1
 -17   2   0 63.5165 368.692   1
 -18  -2   0 22175.8 2488.66   1
 -19  -2   0 360.717 477.472   1
 -20  -2   0 16835.3 2371.53   1
   0  -2   1 300.568 123.915   3
   0  -2  -1 59.7992 65.8851   3
   0   2   1 247.088 100.283   3
   1  -2   1 94452.7 2051.79   3
  -1  -2  -1 95825.4 1702.97   2
  -1   2  -1 92357.7 1876.10   5
   1   2   1 90186.6 1727.00   2
  -1  -2   1 88060.3 2076.97   3
   1   2   1 90034.0 1648.10   3
   1  -2  -1 88481.1 1438.37   1
  -1   2   1 88316.1 1315.30   1
  -1  -2  -1 86188.4 1717.65   3
   1  -2  -1 89967.3 1773.17   3
  -2   2  -1 372.435 118.412   5
  -2  -2  -1 656.220 143.607   2
  -2   2  -1 1296.11 358.212   4
   2  -2   1 708.808 112.743   2
  -2  -2  -1 698.013 121.106   1
   2   2   1 533.448 139.185   2
  -2   2   1 730.439 151.184   1
   2   2   1 467.880 143.764   3
   2  -2  -1 927.912 174.293   1
   2  -2   1 716.944 186.845   3
   2   2   1 719.055 150.807   1
  -3  -2  -1 729727. 7850.21   1
  -3   2  -1 743156. 8471.81   5
   3  -2  -1 739555. 8314.98   1
  -3   2  -1 711133. 10614.4   4
   3   2   1 702450. 8266.07   1
  -3   2   1 722594. 8258.67   1
  -3  -2  -1 718845. 7980.43   2
  -4   2   1 18457.2 1039.39   1
  -4   2  -1 20045.1 1570.72   4
  -4  -2   1 17426.4 1177.78   1
   4   2   1 20421.8 1086.35   1
  -4  -2  -1 18489.9 920.458   1
  -5  -2  -1 186025. 3608.16   1
  -5   2   1 184557. 3924.25   1
  -5  -2   1 179757. 4302.11   1
  -5   2  -1 181996. 5387.67   4
   6   2   1 170069. 2490.30   5
  -6   2   1 152894. 4661.93   4
  -6   2  -1 160789. 5455.63   4
  -6   2   1 166460. 4010.22   1
  -6  -2  -1 171291. 3744.46   1
  -6  -2   1 156299. 4265.20   1
  -7  -2  -1 59144.3 2280.62   1
  -7   2  -1 60539.9 3536.92   4
   7   2   1 60284.4 1497.63   5
  -7   2   1 55578.1 2894.39   4
  -7  -2   1 57966.5 2664.81   1
  -7   2   1 63077.0 2548.63   1
  -8   2  -1 77422.7 4298.45   4
  -8   2   1 78706.0 3072.29   1
  -8  -2   1 77665.1 3232.19   1
  -8  -2  -1 81266.6 2884.77   1
  -8   2   1 74580.8 3664.56   4
  -9   2   1 328067. 7091.30   1
  -9  -2  -1 317534. 6546.11   1
  -9   2  -1 337552. 9966.32   4
  -9  -2   1 306347. 7198.15   1
  -9   2   1 315371. 8338.00   4
 -10   2   1 59007.4 3739.92   4
 -10  -2   1 59438.8 3089.30   1
 -10   2   1 61026.1 3016.78   1
 -10  -2  -1 60893.7 2829.07   1
 -10   2  -1 70073.0 4685.59   4
 -11   2  -1 80786.0 5324.89   4
 -11   2   1 75142.6 3576.08   1
 -11   2   1 75375.0 4555.89   4
 -11  -2   1 70939.5 3512.88   1
 -11  -2  -1 75609.6 3347.23   1
 -12   2   1 122622. 4817.11   1
 -12  -2  -1 118874. 4454.47   1
 -12   2  -1 128996. 7106.87   4
 -12  -2   1 111504. 4689.67   1
 -13   2   1 53746.4 3303.16   1
 -13  -2  -1 49546.7 2980.85   1
 -13  -2   1 51965.1 3281.55   1
 -14  -2  -1 4655.21 987.259   1
 -14   2   1 3515.12 916.639   1
 -14   2   1 6295.14 1529.35   4
 -14  -2   1 4658.95 981.559   1
 -15  -2  -1 214765. 6914.14   1
 -15  -2   1 211663. 7314.15   1
 -15   2   1 215794. 7372.75   1
 -16  -2   1 817.325 436.277   1
 -16   2   1 1381.96 620.738   1
 -16  -2  -1 1004.86 647.237   1
 -17  -2   1 28623.1 2832.05   1
 -17   2   1 29556.6 2870.38   1
 -17  -2  -1 31224.6 2792.79   1
 -18   2   1 938.715 711.021   1
 -18  -2   1 322.199 531.610   1
 -18  -2  -1 780.831 440.066   1
 -19  -2   1 11388.4 1956.05   1
 -19  -2  -1 11329.6 1817.33   1
 -19   2   1 11000.1 1874.86   1
 -20  -2   1 634.771 531.501   1
 -20   2   1 138.350 540.928   1
   0  -2  -2 617416. 6337.03   3
   0   2  -2 643287. 8518.30   4
   0   2  -2 633097. 6568.17   2
   0  -2   2 639497. 7613.89   3
  -1  -2   2-37.7373 162.825   3
  -1  -2  -2 409.665 96.6985   3
   1  -2   2 430.285 161.284   3
  -1   2  -2 214.095 79.0663   2
  -1  -2  -2 276.955 131.855   2
   1   2   2 563.656 101.863   3
   2   2   2 770146. 7862.02   1
  -2   2  -2 741758. 8753.42   5
  -2   2  -2 772455. 11020.1   4
  -2   2   2 690979. 8590.40   1
   2  -2   2 748886. 7860.81   2
   2   2   2 780993. 7685.10   3
  -2  -2  -2 719453. 8458.48   2
   2  -2   2 772116. 8885.76   3
  -2  -2   2 787773. 9508.14   3
  -2   2  -2 788725. 7932.73   2
  -3  -2  -2 43639.3 1439.46   2
   3   2   2 45508.0 1342.02   1
  -3   2  -2 42100.5 2343.23   4
  -3   2  -2 47485.0 1596.51   5
  -3   2   2 44954.7 1675.49   1
   3  -2   2 44876.7 1585.42   3
   3  -2   2 44947.7 1240.59   2
  -4  -2  -2 186690. 3449.73   2
  -4   2  -2 183744. 5428.57   4
  -4   2   2 184668. 4006.87   1
  -4   2  -2 184224. 3606.51   5
  -5  -2  -2 5379.95 346.217   5
  -5   2   2 4917.42 647.915   1
  -5   2  -2 5129.09 579.628   5
  -5   2  -2 5599.25 978.258   4
  -6  -2  -2 4755.84 544.344   1
  -6  -2   2 3955.13 707.322   1
  -6   2  -2 5042.32 1123.33   4
  -6   2  -2 3385.11 503.090   5
  -6   2   2 3815.02 642.612   1
  -7   2   2 74025.2 3232.65   4
  -7  -2   2 76584.2 3278.20   1
  -7  -2  -2 76261.6 2492.67   1
  -7   2  -2 78295.7 4412.01   4
  -7   2   2 76007.8 2994.37   1
  -8  -2   2 160244. 5032.89   1
  -8   2   2 160171. 5143.14   4
  -8   2  -2 170478. 7120.34   4
  -8  -2  -2 160982. 4026.31   1
  -8   2   2 171945. 4882.69   1
  -9  -2  -2 278.290 233.285   1
  -9   2   2 1470.33 455.115   4
  -9   2  -2 996.171 527.853   4
  -9  -2   2 387.322 320.818   1
  -9   2   2 483.466 338.587   1
 -10   2   2 171968. 5509.02   1
 -10   2   2 193096. 6402.95   4
 -10   2  -2 177221. 8039.11   4
 -10  -2  -2 170204. 4705.32   1
 -10  -2   2 171817. 5692.10   1
 -11  -2  -2 42844.0 2408.89   1
 -11   2   2 46823.6 3357.38   4
 -11  -2   2 35819.0 2662.17   1
 -11   2   2 42420.3 2783.34   1
 -12   2   2 2985.52 789.113   1
 -12  -2   2 2790.39 801.336   1
 -12  -2  -2 3856.35 800.886   1
 -12   2   2 4184.24 1155.71   4
 -13   2   2 766.281 511.258   1
 -13  -2  -2 531.734 447.850   1
 -13  -2   2 327.414 365.406   1
 -13   2   2-134.540 327.835   4
 -14   2   2 81112.5 4367.01   1
 -14  -2   2 79700.4 4352.04   1
 -14  -2  -2 78317.0 3816.41   1
 -15   2   2 11027.5 1680.11   1
 -15  -2  -2 9075.45 1347.11   1
 -15  -2   2 10393.6 1637.93   1
 -16  -2   2 208997. 7827.17   1
 -16   2   2 212479. 7835.93   1
 -17  -2   2 2156.11 936.492   1
 -17   2   2 452.847 647.415   1
 -18  -2   2 84851.3 5164.67   1
 -18   2   2 89968.7 5356.94   1
 -19  -2   2 566.013 812.298   1
 -19   2   2 665.205 755.324   1
 -20   2   2 99152.8 6017.24   1
   0  -2   3 224.818 95.2069   3
   0   2  -3 376.172 218.449   4
   0   2  -3 174.806 95.9829   2
   0  -2  -3 212.711 54.0567   3
   1   2  -3 297657. 5113.67   4
  -1   2  -3 289481. 6075.00   4
  -1   2  -3 287996. 4112.41   2
  -1  -2  -3 280500. 4722.47   2
  -1  -2   3 289264. 4829.07   3
   1  -2   3 290686. 4547.83   3
   2  -2   3 32117.3 1335.84   3
  -2   2  -3 29677.7 2014.78   4
  -2  -2  -3 28154.6 1291.88   2
  -2   2  -3 31418.4 1139.73   2
  -3   2  -3 345589. 8041.57   4
   3  -2   3 341736. 5351.35   3
   3   2  -3 359578. 4623.04   4
  -3  -2  -3 351284. 5436.50   2
  -3   2  -3 352040. 5020.40   2
   4  -2   3 118639. 2900.55   3
  -4   2  -3 120622. 2659.64   2
  -4   2  -3 122829. 3057.79   5
  -4   2  -3 112383. 4719.72   4
   4   2  -3 110245. 1921.08   4
  -4  -2  -3 122109. 2947.72   2
  -4   2   3 118520. 3472.39   1
  -5  -2  -3 18892.5 1151.91   2
  -5   2  -3 20078.6 1222.92   5
  -5   2   3 18069.2 1405.75   1
  -5   2  -3 21494.2 2177.67   4
  -6   2   3 134611. 4122.61   1
  -6   2  -3 113328. 3155.82   5
  -6  -2  -3 122013. 2356.06   5
   6   2  -3 109116. 2168.80   4
  -6  -2  -3 119791. 3179.32   2
  -6   2  -3 132906. 5908.77   4
  -7  -2  -3 109470. 2354.10   5
  -7   2   3 111253. 3989.35   1
  -7   2  -3 113292. 5773.30   4
  -7   2   3 115447. 3864.73   4
  -7   2  -3 108999. 3164.14   5
  -7  -2   3 101501. 4046.46   1
   7   2  -3 108843. 2222.86   4
  -8   2  -3 375.783 246.803   5
  -8   2   3 144.172 339.711   1
  -8   2  -3 708.270 453.677   4
  -8   2   3-56.4863 265.517   4
   8   2  -3 119.007 106.206   4
  -8  -2   3 420.827 308.321   1
  -9   2  -3 582152. 15051.0   4
  -9  -2   3 502503. 10521.7   1
  -9   2   3 562689. 10448.5   4
   9   2  -3 520220. 7095.55   4
  -9   2   3 538680. 10391.0   1
 -10  -2   3 1166.67 548.362   1
 -10   2   3 883.739 425.719   1
 -10   2   3 1872.15 707.604   4
 -11   2   3 105880. 4617.03   1
 -11  -2   3 109668. 4891.19   1
 -12  -2   3 55282.0 3577.07   1
 -12   2   3 52373.8 3402.33   1
 -13   2   3 12473.2 1755.05   1
 -13  -2   3 9379.62 1503.44   1
 -13   2   3 13656.8 2007.63   4
 -14   2   3 66091.7 4153.24   1
 -14  -2   3 63443.7 4077.65   1
 -15   2   3 88162.6 4942.01   1
 -15  -2   3 89278.9 4949.75   1
 -16   2   3 6833.06 1420.38   1
 -16  -2   3 6773.93 1383.65   1
 -17   2   3 74222.9 4843.50   1
 -17  -2   3 75820.8 4887.47   1
 -18  -2   3 3136.93 1083.23   1
 -18   2   3 5152.92 1362.17   1
 -19  -2   3 46115.2 4051.33   1
 -19   2   3 46368.7 4030.33   1
   0   2  -4 5535.33 580.776   2
   0  -2   4 3594.57 485.399   3
   0   2  -4 5340.32 807.284   4
  -1   2  -4 121689. 2803.35   2
  -1   2  -4 117746. 4254.86   4
   1   2  -4 123778. 3633.92   4
  -1  -2  -4 122446. 3235.34   2
  -1  -2   4 127617. 3144.72   3
   1  -2   4 123507. 2897.43   3
   2  -2   4 90033.5 2410.41   3
  -2   2  -4 86073.2 3887.55   4
  -2   2  -4 87328.0 2311.85   2
  -2  -2  -4 88091.6 2673.25   2
  -3  -2  -4 49803.2 2004.01   2
  -3   2  -4 52786.5 1785.87   2
  -3   2  -4 50971.4 3197.55   4
   3  -2   4 53628.8 1868.97   3
   4  -2   4 265958. 4769.09   3
  -4   2  -4 269485. 4742.73   2
  -4   2  -4 271155. 8115.28   4
  -4  -2  -4 251883. 4923.30   2
  -5   2   4 48965.5 2521.94   1
  -5  -2  -4 52526.5 2126.00   2
  -5   2  -4 53016.1 3706.89   4
  -5   2  -4 51936.7 1936.74   2
   5  -2   4 51450.6 1983.61   3
  -5   2  -4 52593.5 2143.62   5
  -6   2   4 200363. 5580.30   1
  -6   2  -4 198882. 4559.26   5
   6  -2   4 211824. 4480.75   3
  -6  -2  -4 206620. 4627.41   2
  -7  -2  -4 1411.15 378.310   2
  -7  -2  -4 1128.56 238.134   5
  -7   2  -4 1342.16 365.145   5
  -7   2   4 957.660 399.658   1
  -8  -2  -4 315913. 5143.12   5
  -8   2  -4 360368. 6639.29   5
  -8   2   4 372970. 7554.89   4
  -8   2   4 359098. 8367.85   1
  -8  -2   4 330532. 8314.51   1
  -9  -2  -4 378.213 166.520   5
  -9   2   4 306.008 252.470   4
  -9   2   4-4.46198 239.807   1
  -9  -2   4-301.000 474.101   1
 -10  -2   4 268227. 7947.86   1
 -10   2   4 281026. 7932.16   1
 -11   2   4 671.762 504.998   1
 -11   2   4 118.468 231.397   4
 -12  -2   4 75449.9 4387.63   1
 -12   2   4 72206.5 4141.56   1
 -13  -2   4 27944.6 2717.49   1
 -13   2   4 28609.8 2666.65   1
 -14   2   4 84433.7 4864.71   1
 -14  -2   4 95131.1 5174.40   1
 -15  -2   4 6659.22 1425.29   1
 -15   2   4 9077.51 1587.98   1
 -16  -2   4 33469.1 3294.91   1
 -16   2   4 36128.6 3358.23   1
 -17   2   4 38216.2 3515.29   1
 -17  -2   4 35470.1 3429.57   1
 -18   2   4 1263.77 662.526   1
 -18  -2   4 612.798 555.215   1
 -19  -2   4 16874.2 2505.23   1
 -19   2   4 16759.6 2481.65   1
   0  -2   5 187.688 154.222   3
   0   2  -5 137.902 110.977   2
   0  -2  -5-41.2286 241.120   2
  -1  -2  -5 41264.4 2025.40   2
  -1   2  -5 37049.5 1685.24   2
  -1  -2   5 40241.6 1836.13   3
   1  -2   5 38582.3 1644.90   3
  -2  -2  -5 178201. 4366.55   2
  -2   2  -5 182345. 3950.13   2
   2  -2   5 178060. 3724.42   3
  -3  -2  -5 413541. 7154.69   2
  -3   2  -5 421347. 6618.07   2
   3  -2   5 417505. 6371.27   3
  -4  -2  -5 1513.91 423.001   2
  -4   2  -5 1534.53 369.456   2
   4  -2   5 1630.11 368.899   3
   4   2   5 1305.27 137.313   3
  -5  -2  -5 319572. 6236.31   2
  -5   2  -5 321460. 5934.58   2
   5  -2   5 338696. 5809.43   3
   6  -2   5 16451.0 1182.30   3
  -6   2  -5 19298.9 1426.82   5
  -6   2   5 15720.7 1616.64   1
  -6  -2  -5 17757.5 1391.53   2
  -6   2  -5 17959.2 1275.83   2
   7  -2   5 90923.4 2987.97   3
  -7   2  -5 91294.6 3237.35   5
  -7  -2  -5 84524.8 3118.83   2
  -7   2   5 91101.8 4062.07   1
   8  -2   5 48901.1 2262.08   3
  -8  -2  -5 49617.5 1897.88   5
  -8   2  -5 45526.2 2303.94   5
  -8   2   5 44736.6 2934.33   1
  -8  -2  -5 47612.9 2374.61   2
  -9  -2   5 34507.7 2749.36   1
  -9  -2  -5 35599.5 1644.99   5
  -9   2  -5 29907.4 1915.11   5
  -9   2   5 35992.9 2745.07   1
  -9   2   5 37544.4 2306.55   4
 -10   2  -5 40388.2 2285.90   5
 -10  -2  -5 39251.0 1802.75   5
 -10   2   5 35827.2 2848.12   1
 -10   2   5 42582.9 2528.92   4
 -10  -2   5 38420.0 3025.57   1
 -11  -2   5 46935.5 3417.81   1
 -11   2  -5 40988.1 2380.57   5
 -11   2   5 47521.1 3381.08   1
 -12   2   5 21803.2 2347.87   1
 -12  -2   5 24625.6 2519.45   1
 -13  -2   5 141846. 6458.50   1
 -13   2   5 142417. 6282.19   1
 -14   2   5 114.144 400.479   1
 -14  -2   5 26.9667 499.200   1
 -15   2   5 144484. 6718.20   1
 -15  -2   5 143444. 6856.95   1
 -16   2   5 29075.5 3121.28   1
 -16  -2   5 23378.7 2781.57   1
 -17   2   5 22533.3 2804.54   1
 -17  -2   5 24276.5 2895.58   1
 -18   2   5-219.650 596.581   1
 -18  -2   5 227.979 530.787   1
 -19   2   5 7816.61 1736.48   1
   0  -2  -6 285723. 6390.44   2
   0   2  -6 277350. 5756.22   2
   0  -2   6 280995. 5382.78   3
  -1   2  -6 1050.77 300.950   2
   1  -2   6 838.015 276.184   3
   1  -2  -6 709.805 143.470   3
  -1  -2  -6 144.171 253.574   2
  -2  -2  -6 292511. 6267.00   2
  -2   2  -6 288083. 5724.16   2
   2  -2   6 284136. 5235.33   3
   3  -2   6 35265.9 1611.15   3
  -3  -2  -6 35189.6 2011.67   2
  -3   2  -6 34206.4 1796.30   2
  -4   2  -6 216596. 4895.27   2
  -4  -2  -6 216237. 5274.05   2
   4  -2   6 219298. 4468.53   3
   5   2   6 21364.2 632.673   3
  -5  -2  -6 19495.0 1503.51   2
  -5   2  -6 20767.7 1461.30   2
   5  -2   6 21421.1 1335.40   3
   6  -2   6 76060.2 2635.56   3
   6   2   6 74451.7 1587.53   3
  -6  -2  -6 71693.1 2986.59   2
  -6   2  -6 72942.7 2848.91   2
  -7   2  -6 97311.0 3559.36   5
  -7   2  -6 98608.5 3441.28   2
  -7   2   6 105684. 4666.40   1
   7  -2   6 98763.1 3170.65   3
  -7  -2  -6 99815.8 3666.89   2
   8  -2   6 13351.3 1183.61   3
  -8  -2  -6 13640.8 1353.92   2
  -8   2  -6 12152.8 1245.81   5
  -8  -2  -6 14991.0 1112.45   5
  -8   2   6 16748.2 1911.63   1
   9  -2   6 1664.88 436.850   3
  -9   2  -6 2178.37 539.119   5
  -9  -2  -6 2014.20 434.919   5
  -9  -2  -6 1978.90 529.314   2
  -9   2   6 3120.31 654.730   4
  -9   2   6 2886.41 876.745   1
  10  -2   6 13255.9 1288.57   3
 -10   2   6 11941.9 1718.18   1
 -10   2  -6 11806.5 1289.10   5
 -10  -2   6 12436.3 1817.54   1
 -10  -2  -6 13833.2 1141.21   5
  11  -2   6 77934.3 3331.55   3
 -11   2   6 77376.4 4552.53   1
 -11   2  -6 79701.7 3478.84   5
 -11  -2   6 77997.6 4602.88   1
 -11  -2  -6 78721.0 2840.95   5
 -12   2  -6 56844.3 3025.76   5
 -12  -2   6 65475.6 4303.95   1
 -12   2   6 62498.4 4176.35   1
 -13   2   6 5248.14 1239.99   1
 -13  -2   6 6770.57 1477.00   1
 -14  -2   6 127282. 6493.04   1
 -14   2   6 124034. 6275.57   1
 -15   2   6 13767.4 2079.68   1
 -15  -2   6 16904.8 2438.34   1
 -16  -2   6 93579.7 5829.57   1
 -16   2   6 86156.3 5471.34   1
 -17  -2   6 1193.74 792.055   1
 -17   2   6 1054.78 766.364   1
 -18   2   6 64116.0 5009.84   1
   0  -2   7 311.071 192.556   3
   0  -2  -7-206.791 335.701   2
   0   2  -7 190.684 210.108   2
  -1  -2  -7 204516. 5577.25   2
   1  -2   7 207481. 4603.87   3
  -1   2  -7 195768. 5052.17   2
   1   2  -7 189737. 5200.64   2
   2  -2   7 6850.63 771.682   3
  -2  -2  -7 7699.14 1016.09   2
  -2   2  -7 7470.90 930.373   2
  -3  -2  -7 58852.6 2857.73   2
   3  -2   7 57025.1 2236.57   3
  -3   2  -7 59543.4 2639.55   2
  -4   2  -7 168382. 4595.21   2
  -4  -2  -7 167547. 4947.67   2
   4  -2   7 165091. 3933.80   3
  -5   2  -7 56932.1 2644.19   2
  -5  -2  -7 57876.2 2818.70   2
   5  -2   7 57728.7 2268.28   3
  -6  -2  -7 1435.36 462.690   2
  -6   2  -7 2129.32 492.517   2
   6  -2   7 1554.10 390.922   3
   7  -2   7 128085. 3709.97   3
  -7   2  -7 134598. 4468.85   5
  -7  -2  -7 120727. 4364.15   2
  -7   2  -7 128328. 4236.53   2
   8  -2   7 41210.6 2104.78   3
  -8   2  -7 35321.0 2301.34   5
  -8   2   7 44248.6 3259.19   1
  -8  -2  -7 38139.3 2414.02   2
   9  -2   7 157649. 4456.30   3
  -9  -2  -7 146416. 4145.67   5
  -9   2  -7 163674. 5110.05   5
  -9  -2  -7 148324. 4983.97   2
  10  -2   7 15751.1 1418.68   3
 -10  -2  -7 13994.5 1235.44   5
 -10   2  -7 15536.1 1572.20   5
 -11  -2   7 127830. 6113.79   1
  11  -2   7 109798. 3991.12   3
 -11  -2  -7 109644. 3620.35   5
 -11   2  -7 116776. 4428.86   5
 -11   2   7 127325. 6066.48   1
 -12   2   7 392.999 448.625   1
 -12   2  -7 622.079 424.857   5
 -12  -2   7 323.621 514.087   1
  12  -2   7 166.506 248.675   3
 -13  -2   7 41826.0 3645.17   1
  13  -2   7 38362.8 2513.47   3
 -13   2   7 40206.7 3551.20   1
 -13   2  -7 32408.0 2423.82   5
 -14  -2   7 80842.7 5280.54   1
  14  -2   7 67881.3 3530.45   3
 -14   2   7 85717.7 5353.99   1
  15  -2   7 19333.7 1944.18   3
 -15   2   7 23604.3 2888.86   1
 -15  -2   7 22772.0 2895.10   1
 -16  -2   7 4123.32 1397.08   1
  16  -2   7 2627.85 685.864   3
 -16   2   7 2685.55 961.111   1
  17  -2   7 44386.0 3198.54   3
 -17   2   7 52265.2 4461.97   1
   0  -2  -8 148875. 5128.90   2
   0   2  -8 143989. 4754.40   2
  -1  -2  -8 36127.7 2422.29   2
   1   2  -8 36709.2 2354.66   2
   1  -2  -8 36587.8 2531.65   2
   1  -2   8 37137.8 1961.72   3
  -1   2  -8 38743.4 2345.68   2
  -2   2  -8 37287.3 2278.22   2
  -2  -2  -8 39015.0 2507.27   2
   2  -2   8 38974.1 1945.03   3
  -3   2  -8 12195.3 1302.82   2
  -3  -2  -8 11034.7 1331.05   2
   3  -2   8 12616.7 1085.82   3
  -4   2  -8 8457.89 1076.84   2
  -4  -2  -8 9646.94 1238.22   2
   4  -2   8 8802.24 914.495   3
  -5  -2  -8 12963.4 1426.29   2
  -5   2  -8 12649.7 1323.92   2
   5  -2   8 13015.5 1112.06   3
   6  -2   8 146423. 3928.32   3
  -6   2  -8 149485. 4859.72   2
  -6  -2  -8 134649. 4811.65   2
  -7  -2  -8 3300.07 779.726   2
  -7   2  -8 3937.58 778.508   2
   7  -2   8 4293.84 678.914   3
  -8   2  -8 255894. 6947.81   5
   8  -2   8 282104. 6035.76   3
  -8  -2  -8 272403. 7257.61   2
  -8   2  -8 269071. 6926.21   2
  -9   2  -8 1179.46 499.471   5
  -9  -2  -8 243.408 248.881   5
  -9  -2  -8 113.537 261.692   2
   9  -2   8 858.153 364.619   3
  -9   2   8 362.410 585.171   1
 -10  -2  -8 188578. 5152.25   5
  10  -2   8 192931. 5209.25   3
 -10   2  -8 207709. 6262.05   5
 -10  -2  -8 189840. 6167.39   2
 -11  -2   8 5717.51 1385.85   1
 -11   2  -8 3674.14 835.023   5
  11  -2   8 5901.72 916.318   3
 -11  -2  -8 3750.71 703.747   5
 -11   2   8 5078.57 1236.37   1
  12  -2   8 85075.4 3644.83   3
 -12   2  -8 89744.9 4189.31   5
 -12  -2   8 99130.9 5694.47   1
 -12   2   8 102953. 5778.23   1
 -13   2   8 15674.7 2311.01   1
  13  -2   8 13051.2 1482.92   3
 -13  -2   8 15781.2 2371.45   1
 -13   2  -8 12638.0 1619.35   5
 -14   2   8 5541.50 1475.32   1
 -14  -2   8 6865.92 1663.40   1
 -15  -2   8 1300.29 693.207   1
 -15   2   8 1652.91 792.656   1
 -16   2   8 8608.56 1785.90   1
   0  -2  -9 18.0896 384.971   2
   0   2  -9 26.7397 243.568   2
   1   2  -9 122474. 4722.69   2
   1  -2  -9 112639. 4872.70   2
  -1  -2  -9 121111. 4878.84   2
  -1   2  -9 120308. 4545.55   2
  -2  -2  -9 129988. 5075.19   2
  -2   2  -9 122894. 4579.39   2
   2   2  -9 119928. 4782.49   2
   2  -2  -9 123458. 5165.91   2
   2  -2   9 134926. 3975.29   3
  -3  -2  -9 46095.1 2939.97   2
  -3   2  -9 44980.3 2713.79   2
   3  -2   9 46694.4 2225.15   3
  -4  -2  -9 12589.9 1517.51   2
  -4   2  -9 13714.3 1482.53   2
   4  -2   9 12997.2 1159.95   3
  -5  -2  -9 118163. 4722.67   2
   5  -2   9 128317. 3775.36   3
  -5   2  -9 114257. 4430.27   2
  -6   2  -9 580.394 365.746   2
  -6  -2  -9 376.671 303.538   2
  -7   2  -9 99817.2 4260.11   2
  -7  -2  -9 95612.2 4358.03   2
   7  -2   9 90963.9 3188.25   3
  -8  -2  -9 2297.67 722.446   2
  -8   2  -9 2921.39 733.822   2
  -8   2  -9 2824.92 695.952   5
  -9  -2  -9 17349.6 1572.95   5
  -9  -2  -9 17140.2 1855.51   2
  -9   2  -9 19900.9 1953.57   5
  -9   2   9 20622.2 2455.34   1
 -10  -2  -9 3853.81 935.835   2
 -10   2  -9 5886.66 1085.90   5
 -10   2   9 5157.89 1263.95   1
 -10  -2  -9 3193.83 672.273   5
 -11   2  -9 48031.4 3158.78   5
 -11  -2   9 57594.1 4403.69   1
 -11   2   9 58867.4 4378.71   1
 -12  -2   9 1905.21 950.089   1
 -12   2  -9 469.058 423.811   5
 -12   2   9 922.368 814.881   1
 -13   2   9 79536.9 5430.70   1
 -13   2  -9 68123.4 3908.02   5
 -13  -2   9 73019.1 5160.12   1
 -14   2   9 970.744 449.991   1
 -14   2  -9 1793.42 702.952   5
 -15   2   9 35928.1 3761.92   1
   0   2 -10 138440. 5321.18   2
   0  -2 -10 140406. 5679.97   2
   1   2 -10 7207.86 1216.68   2
  -1  -2 -10 7128.05 1208.40   2
  -1   2 -10 6126.68 1088.77   2
   1  -2 -10 7023.79 1281.07   2
  -2  -2 -10 84112.4 4288.24   2
  -2   2 -10 85832.6 4050.36   2
   2   2 -10 78880.9 4110.07   2
   2  -2 -10 79009.9 4349.88   2
   3  -2 -10-182.443 283.683   2
  -3   2 -10 77.5399 255.346   2
  -3  -2 -10 181.540 224.711   2
   3   2 -10 136.215 338.005   2
  -4  -2 -10 112506. 4921.73   2
  -4   2 -10 109407. 4595.05   2
  -5  -2 -10 11582.3 1568.91   2
  -5   2 -10 11377.2 1491.07   2
  -6   2 -10 117031. 4917.34   2
  -6  -2 -10 124275. 5174.15   2
  -7  -2 -10-117.796 312.485   2
  -7   2 -10 282.435 305.968   2
  -8   2 -10 1816.31 642.049   2
  -8  -2 -10 2948.16 773.235   2
  -8   2 -10 2165.24 694.337   5
  -9  -2 -10-48.3197 378.053   2
  -9   2 -10-51.6925 327.050   2
  -9   2  10 461.999 470.773   1
  -9   2 -10 65.4794 236.525   5
 -10  -2 -10 2991.69 821.765   2
 -10   2  10 5473.14 1357.54   1
 -10   2 -10 3126.68 835.208   5
 -11   2 -10 107.097 242.127   5
 -11   2  10 510.060 522.722   1
 -12   2  10 105648. 6264.07   1
 -12  -2  10 101719. 6118.03   1
 -13   2 -10 4910.36 1100.85   5
 -13   2  10 9690.31 2023.31   1
 -14   2 -10 91694.1 4798.80   5
 -14   2  10 108357. 6599.51   1
   0  -2 -11 735.127 484.492   2
   0   2 -11-52.7170 231.648   2
  -1   2 -11 46725.6 3232.24   2
   1  -2 -11 45592.5 3427.59   2
   1   2 -11 44303.2 3187.80   2
  -1  -2 -11 51615.9 3601.24   2
   2   2 -11 20783.8 2201.64   2
   2  -2 -11 20558.7 2328.21   2
  -2   2 -11 24222.3 2280.54   2
  -2  -2 -11 21414.9 2293.25   2
   3  -2 -11 21819.6 2487.88   2
  -3  -2 -11 23800.9 2400.46   2
  -3   2 -11 23358.6 2229.71   2
   3   2 -11 23360.9 2384.29   2
   4  -2 -11 40450.4 3406.82   2
  -4  -2 -11 40420.6 3114.52   2
  -4   2 -11 38147.9 2860.72   2
   4   2 -11 39678.8 3217.33   2
  -5  -2 -11 106864. 5085.54   2
  -5   2 -11 102671. 4816.70   2
  -6   2 -11 380.823 383.639   2
  -6  -2 -11 407.412 377.961   2
  -7  -2 -11 82183.6 4547.66   2
  -7   2 -11 84614.6 4469.44   2
  -8  -2 -11 9501.67 1534.43   2
  -8   2 -11 9032.02 1469.30   2
  -8   2 -11 9726.90 1533.42   5
  -9   2 -11 9298.12 1545.35   5
  -9   2 -11 8228.14 1448.30   2
  -9  -2 -11 8723.33 1455.58   2
  -9   2  11 10675.2 1943.85   1
 -10   2 -11 1784.54 695.832   5
 -10  -2 -11 353.548 338.040   2
 -10   2  11 1332.79 809.340   1
 -11   2  11 88561.3 5753.84   1
 -11   2 -11 59771.2 3967.95   5
 -12   2  11 436.341 686.027   1
   0   2 -12 72136.8 4326.68   2
   0  -2 -12 75981.2 4646.34   2
   1  -2 -12 1822.24 743.014   2
  -1  -2 -12 2395.02 843.212   2
  -1   2 -12 1459.82 670.736   2
   1   2 -12 1794.18 781.652   2
   2  -2 -12 8249.70 1518.71   2
   2   2 -12 8646.89 1519.91   2
  -2  -2 -12 10084.1 1699.74   2
  -2   2 -12 10746.1 1633.95   2
   3   2 -12 1835.43 687.866   2
  -3  -2 -12 2547.88 861.027   2
  -3   2 -12 2100.70 695.431   2
   3  -2 -12 4628.34 1162.45   2
  -4   2 -12 8119.18 1425.39   2
   4   2 -12 7797.19 1547.80   2
  -4  -2 -12 8810.33 1540.91   2
   4  -2 -12 9963.94 1797.62   2
   5  -2 -12 3746.04 1121.25   2
  -5  -2 -12 3113.58 896.446   2
   5   2 -12 3562.42 1103.86   2
  -5   2 -12 3279.60 924.285   2
   6   2 -12 101489. 5643.57   2
  -6  -2 -12 99968.4 5263.50   2
  -6   2 -12 103666. 5263.40   2
  -7   2 -12 13340.5 1859.98   2
  -7  -2 -12 11671.8 1882.60   2
  -8   2 -12 77233.3 4656.64   5
  -8   2 -12 79322.1 4616.22   2
  -9   2  12 1299.04 931.037   1
  -9   2 -12 116.598 284.194   2
 -10   2  12 105056. 6344.10   1
   0   2 -13 348.199 385.560   2
   1   2 -13 109744. 5731.21   2
  -1   2 -13 110959. 5657.30   2
   2   2 -13 9313.25 1636.30   2
  -2   2 -13 8203.85 1488.80   2
   3   2 -13 5816.97 1284.11   2
  -3   2 -13 5702.40 1199.20   2
   4   2 -13 12087.5 1922.11   2
  -4   2 -13 11545.5 1762.78   2
   5   2 -13 14768.2 2173.55   2
  -5   2 -13 14347.1 1998.00   2
   0  -3   0 521.690 73.2549   2
   0  -3   0 329.519 102.873   5
  -1  -3   0 308.215 160.302   3
   1  -3   0 713.033 240.955   3
   1   3   0 335.576 82.5052   2
  -2  -3   0 60612.3 1983.34   3
   2  -3   0 62261.5 1913.26   3
   2   3   0 66816.0 1352.22   2
   2  -3   0 67795.3 1479.95   1
   3   3   0 387.992 142.127   2
  -3  -3   0 332.985 141.654   1
   3  -3   0 447.575 189.389   3
   3  -3   0 490.336 156.897   1
  -4  -3   0 323931. 5313.31   1
  -5  -3   0 953.888 284.596   1
  -5   3   0 354.387 256.907   4
  -6  -3   0 422.601 198.816   1
  -6   3   0-182.851 247.484   4
  -7  -3   0 334.978 265.854   1
  -7   3   0 741.130 478.650   4
  -8  -3   0 88814.6 3237.57   1
  -8   3   0 78279.0 4067.46   4
  -9   3   0 224.016 249.514   1
  -9  -3   0 896.830 394.532   1
  -9   3   0 253.628 391.146   4
 -10   3   0 40769.5 2356.24   1
 -10   3   0 39372.6 3184.81   4
 -10  -3   0 39695.1 2400.74   1
 -11   3   0 209.415 245.231   1
 -11  -3   0 811.285 414.814   1
 -11   3   0 239.723 568.367   4
 -12  -3   0 789.310 395.299   1
 -12   3   0 891.603 373.999   1
 -12   3   0 572.609 440.854   4
 -13  -3   0 1917.86 617.165   1
 -13   3   0 835.793 629.303   4
 -14  -3   0 101186. 4627.09   1
 -14   3   0 119671. 7041.77   4
 -15   3   0-463.717 493.608   4
 -15  -3   0 602.289 498.277   1
 -16  -3   0 4858.46 1119.12   1
 -17  -3   0 121.384 519.947   1
 -18  -3   0 180.963 374.718   1
 -19  -3   0 690.780 535.066   1
 -20  -3   0 3648.66 1204.62   1
   0  -3   1 10529.4 752.939   3
   0  -3  -1 10270.3 540.997   2
   0  -3  -1 10893.5 674.090   3
   0   3  -1 10913.9 635.260   5
   1  -3   1 59349.3 1863.41   3
   1   3  -1 57248.4 1422.30   5
   1  -3  -1 60035.7 1679.72   3
  -1   3  -1 59722.2 1657.19   5
  -1  -3   1 58724.9 1889.97   3
  -1  -3  -1 55660.2 1326.19   2
   1  -3  -1 54319.4 1020.83   1
  -1  -3  -1 52756.0 1582.06   3
   2  -3   1 37020.3 1495.91   3
   2  -3  -1 37144.0 1394.01   3
  -2   3  -1 36097.6 1361.44   5
  -2  -3  -1 35841.2 731.728   5
   2  -3  -1 38742.9 1074.56   1
   2   3   1 36567.9 1186.21   2
  -2  -3  -1 35548.6 1388.04   3
  -2  -3  -1 37722.8 918.824   1
  -2  -3  -1 41040.2 1183.68   2
  -2  -3   1 35697.3 1556.98   3
   2  -3   1 38077.6 818.930   2
   3  -3   1 3453.63 468.729   3
  -3   3  -1 3891.03 701.126   4
   3  -3  -1 3654.25 384.674   1
  -3   3   1 3308.54 364.390   1
  -3  -3  -1 3860.75 354.990   1
  -4   3  -1 93329.0 3719.33   4
  -4   3   1 100556. 2387.16   1
  -4  -3  -1 93297.8 2217.15   1
  -5  -3  -1 56408.3 1878.82   1
  -5   3   1 56591.7 1978.23   1
  -5  -3   1 55932.3 2365.21   1
  -5   3  -1 49367.5 2850.64   4
  -6   3   1 3803.36 775.634   4
  -6  -3  -1 4796.48 582.643   1
  -6   3   1 3672.20 547.254   1
  -6   3  -1 3846.30 904.172   4
  -6  -3   1 4357.93 676.876   1
  -7  -3  -1 90778.4 2864.86   1
  -7   3  -1 80244.0 4094.31   4
  -7   3   1 75729.8 3671.75   4
  -7  -3   1 82080.6 3208.11   1
  -7   3   1 82059.1 2890.43   1
  -8   3   1 107606. 3586.82   1
  -8   3   1 98614.5 4388.47   4
  -8   3  -1 103503. 4991.25   4
  -8  -3   1 109907. 3934.81   1
  -8  -3  -1 108638. 3390.70   1
  -9  -3   1 2353.76 641.817   1
  -9   3   1 2930.07 624.961   1
  -9  -3  -1 2624.63 573.192   1
  -9   3  -1 3276.67 904.961   4
  -9   3   1 1944.65 612.938   4
 -10  -3  -1 80359.8 3258.81   1
 -10   3   1 88205.6 3645.55   1
 -10   3  -1 86750.5 5063.07   4
 -10  -3   1 78639.1 3606.87   1
 -10   3   1 81691.8 4411.94   4
 -11   3  -1 73508.9 4940.44   4
 -11   3   1 63948.9 3264.73   1
 -11  -3  -1 68829.1 3188.95   1
 -11   3   1 65468.6 4140.97   4
 -11  -3   1 68511.9 3491.89   1
 -12   3   1 2313.85 612.240   1
 -12   3  -1 2962.44 1004.92   4
 -12   3   1 1637.35 736.145   4
 -12  -3  -1 2721.22 679.262   1
 -13   3   1 12742.1 1584.57   1
 -13  -3  -1 11917.7 1451.70   1
 -13   3  -1 13361.1 2367.29   4
 -13   3   1 12637.1 2079.68   4
 -13  -3   1 12597.7 1642.10   1
 -14   3   1 38482.9 2919.05   1
 -14   3  -1 46067.6 4581.15   4
 -14  -3   1 38975.1 2962.48   1
 -14   3   1 51298.1 4379.97   4
 -14  -3  -1 40873.9 2839.32   1
 -15  -3   1 6655.91 1285.56   1
 -15  -3  -1 5986.31 1143.86   1
 -15   3   1 5541.52 1166.85   1
 -15   3   1 7621.34 1839.52   4
 -16   3   1 17144.8 2108.09   1
 -16  -3   1 15762.6 2051.65   1
 -16  -3  -1 15589.9 1897.56   1
 -17   3   1 11126.0 1771.62   1
 -17  -3   1 10127.1 1696.88   1
 -17  -3  -1 11410.0 1673.30   1
 -18  -3   1 1175.58 572.089   1
 -18  -3  -1 1734.98 734.395   1
 -19  -3  -1 4571.16 1167.42   1
 -19  -3   1 4133.52 1206.23   1
   0  -3   2 18.8753 141.496   3
   0  -3  -2 436.418 107.804   3
   0  -3  -2 291.651 144.269   2
   1   3   2 50427.5 1273.85   3
  -1  -3  -2 47334.1 1499.07   2
   1  -3  -2 46437.8 1398.64   3
  -1   3  -2 46117.1 2251.69   4
   1  -3   2 44477.5 1681.65   3
  -1   3  -2 45273.4 1578.78   5
  -1   3  -2 44323.4 932.753   2
  -1  -3  -2 42457.5 1284.00   3
  -1  -3   2 45934.2 1773.23   3
  -1   3   2 42466.9 924.655   1
  -2   3   2 306455. 4056.08   1
  -2   3  -2 306073. 4950.24   5
  -2  -3   2 297899. 5449.24   3
  -2  -3  -2 312321. 4548.23   2
   2   3   2 305988. 3874.79   1
  -2   3  -2 314373. 6746.10   4
   2  -3   2 305237. 3694.71   2
   2   3   2 320189. 4165.70   3
   2  -3   2 313250. 5196.27   3
   3  -3   2 37345.6 1648.63   3
  -3   3   2 40580.9 1404.79   1
   3   3   2 37606.6 1286.76   1
   3  -3   2 37930.4 1086.77   2
  -3   3  -2 39346.6 1610.23   5
  -3  -3  -2 38153.3 1393.35   2
   4  -3   2 19842.5 1242.24   3
  -4   3  -2 20231.7 1192.35   5
  -4   3  -2 19010.6 1762.89   4
  -4  -3  -2 19205.0 1029.76   2
  -4   3   2 20084.0 1125.65   1
   4   3   2 22529.1 1141.85   1
  -5   3  -2 10103.8 892.241   5
  -5   3  -2 10023.4 1352.05   4
  -5  -3  -2 10113.9 717.616   1
  -5   3   2 11117.5 937.559   1
  -6  -3  -2 1333.29 299.314   1
  -6   3  -2 1456.17 564.329   4
  -6  -3   2 889.696 367.899   1
  -6   3   2 1071.02 324.235   1
  -7   3   2 6176.97 814.714   1
  -7  -3  -2 6650.19 704.725   1
  -7   3   2 5352.27 911.696   4
  -7  -3   2 4778.15 831.691   1
  -7   3  -2 5696.25 1165.55   4
  -8   3   2 7830.18 976.700   1
  -8  -3   2 7948.33 1104.36   1
  -8   3   2 7062.16 1125.00   4
  -8   3  -2 6541.28 1368.77   4
  -8  -3  -2 7429.40 815.761   1
  -9   3  -2 905.333 603.605   4
  -9   3   2 678.374 329.748   1
  -9  -3  -2 462.167 277.997   1
  -9   3   2 657.433 405.562   4
  -9  -3   2 275.176 300.423   1
 -10   3   2 19348.8 1736.29   1
 -10  -3  -2 18017.5 1457.90   1
 -10  -3   2 19274.6 1890.52   1
 -10   3  -2 19681.9 2577.02   4
 -10   3   2 20599.7 2107.20   4
 -11  -3   2 4772.21 991.198   1
 -11   3   2 3237.45 808.027   1
 -11   3   2 3298.07 944.232   4
 -11   3  -2 4855.36 1458.87   4
 -11  -3  -2 4030.48 740.929   1
 -12   3   2 3073.81 933.507   4
 -12  -3  -2 1114.01 479.255   1
 -12  -3   2 827.881 452.732   1
 -12   3   2 1010.70 547.849   1
 -12   3  -2 2170.42 981.040   4
 -13  -3   2 1659.72 682.643   1
 -13   3  -2 3259.76 1171.96   4
 -13   3   2 1335.99 633.746   1
 -13  -3  -2 2369.30 621.858   1
 -13   3   2 2128.06 890.053   4
 -14  -3  -2 1295.84 528.213   1
 -14  -3   2-181.757 272.551   1
 -14   3   2 1289.79 689.572   1
 -14   3   2 1788.08 790.980   4
 -15   3   2 15270.3 1973.23   1
 -15   3   2 19053.3 2631.69   4
 -15  -3  -2 14048.9 1680.90   1
 -15  -3   2 14644.5 1967.81   1
 -16   3   2 68827.0 4362.98   1
 -16   3   2 66794.1 5269.56   4
 -16  -3   2 72673.7 4540.47   1
 -17  -3   2 7030.11 1435.89   1
 -17   3   2 5271.29 1314.41   1
 -18  -3   2 46.6662 332.143   1
 -18   3   2 166.045 583.726   1
 -19   3   2 9823.80 1825.75   1
 -19  -3   2 9511.17 1759.08   1
   0   3  -3 96030.3 1935.45   2
   0  -3  -3 93776.9 2602.51   2
   0   3  -3 96165.8 3225.91   4
   0  -3   3 94579.7 2703.66   3
   0  -3  -3 89963.0 1733.69   3
   1  -3  -3 111013. 2124.74   3
  -1  -3  -3 112213. 2805.15   2
  -1   3  -3 113863. 2094.51   2
  -1   3  -3 109669. 3704.57   4
  -1  -3  -3 101374. 1915.71   3
  -1  -3   3 105405. 2944.65   3
   1   3  -3 118565. 3335.91   4
   1  -3   3 113288. 2913.31   3
   2   3   3 3928.85 293.232   3
  -2  -3   3 3654.59 558.389   3
   2  -3   3 3682.14 521.746   3
   2   3   3 4493.90 364.666   1
  -2  -3  -3 3995.52 488.946   2
  -2   3   3 3310.48 439.344   1
  -2   3  -3 5070.49 828.449   4
  -2   3  -3 4086.38 378.767   2
   3  -3   3 39527.9 1740.11   3
  -3   3  -3 39059.3 2494.84   4
   3   3   3 41070.9 1336.58   1
  -3   3   3 36519.8 1631.48   1
   3   3   3 42158.7 1135.54   3
  -3  -3  -3 39633.9 1596.24   2
  -3   3  -3 37229.6 1688.15   5
  -4   3   3 2606.23 467.289   1
   4   3   3 2305.38 307.811   3
  -4  -3  -3 2027.83 365.574   2
   4  -3   3 2259.49 420.562   3
  -4   3  -3 3156.12 503.122   5
   5  -3   3 79237.6 2680.61   3
  -5   3  -3 71298.0 3870.21   4
  -5   3  -3 76677.7 2624.57   5
  -5  -3  -3 72392.3 2387.27   2
  -5   3   3 74021.1 2765.78   1
  -6  -3  -3 17800.9 1199.76   2
   6  -3   3 16930.6 1265.40   3
  -6   3  -3 17882.3 2072.13   4
  -6   3  -3 17317.6 1265.40   5
  -6   3   3 18644.4 1447.88   1
  -6  -3  -3 17023.2 694.827   5
  -7   3   3 2249.52 541.625   1
  -7   3  -3 2185.79 482.595   5
  -7   3  -3 3187.52 911.138   4
  -8  -3   3 92430.4 4108.37   1
  -8   3   3 105998. 4265.31   4
  -8   3  -3 106904. 5702.45   4
  -8   3   3 109195. 4009.30   1
  -9   3   3 662.287 420.344   1
  -9  -3   3 491.079 270.167   1
  -9   3  -3 1328.47 972.447   4
  -9   3   3 492.048 405.950   4
 -10   3   3 115135. 4811.58   4
 -10   3  -3 121488. 6867.53   4
 -10  -3   3 104322. 4625.91   1
 -10   3   3 109953. 4497.24   1
 -11   3  -3 686.035 815.724   4
 -11   3   3 1348.19 593.932   4
 -11  -3   3 112.272 414.231   1
 -11   3   3 265.922 290.273   1
 -12  -3   3 8207.14 1430.32   1
 -12   3   3 9321.06 1417.21   1
 -12   3   3 11395.4 1681.71   4
 -12   3  -3 11546.4 2251.17   4
 -13  -3   3 25401.9 2508.31   1
 -13   3   3 26486.3 2449.67   1
 -13   3   3 32427.2 2989.36   4
 -14  -3   3 8216.43 1469.38   1
 -14   3   3 7960.65 1570.05   4
 -14   3   3 8988.41 1514.65   1
 -15  -3   3 3420.68 983.615   1
 -15   3   3 2316.83 781.648   1
 -15   3   3 4895.09 1303.11   4
 -16   3   3 1996.03 677.071   1
 -16  -3   3 3366.81 1023.09   1
 -17   3   3 28883.4 2964.56   1
 -17  -3   3 29131.3 3023.18   1
 -18  -3   3 16539.4 2337.51   1
 -18   3   3 18095.4 2416.27   1
 -19  -3   3 8276.15 1789.33   1
 -19   3   3 9830.52 1870.97   1
   0  -3   4 606.134 243.055   3
   0   3  -4 736.178 383.849   4
   0  -3  -4 401.029 88.1489   3
   0  -3  -4 332.386 154.309   2
   1  -3  -4 11416.9 577.063   3
   1   3  -4 12395.8 1113.77   4
  -1   3  -4 11916.8 771.499   2
  -1   3  -4 12904.4 1339.45   4
  -1  -3   4 11894.4 1022.24   3
   1  -3   4 12407.6 979.282   3
  -1  -3  -4 11564.6 982.471   2
   2   3  -4 12289.2 1008.15   4
  -2  -3  -4 12130.5 996.620   2
  -2   3  -4 12456.5 1398.90   4
  -2   3  -4 12434.6 792.267   2
  -2  -3   4 11587.8 1048.24   3
   2  -3   4 12728.3 981.894   3
  -3   3   4 7048.62 839.183   1
   3   3   4 8038.79 336.748   3
   3   3  -4 8173.42 738.932   4
  -3   3  -4 9099.90 1313.79   4
   3  -3   4 8457.42 828.846   3
  -3  -3  -4 8772.81 853.959   2
  -3   3  -4 8441.42 678.688   2
   4  -3   4 105080. 3086.71   3
  -4   3   4 102895. 3491.22   1
  -4   3  -4 115389. 3372.81   5
  -4   3  -4 108214. 2735.15   2
   4   3  -4 111122. 2541.46   4
  -4   3  -4 108234. 4847.19   4
  -4  -3  -4 111985. 3149.75   2
   4   3   4 114893. 1988.98   3
   5  -3   4 89834.7 2945.17   3
  -5   3  -4 91650.2 4772.15   4
   5   3  -4 94981.0 2010.95   4
  -5   3   4 85967.3 3355.68   1
  -5  -3  -4 88204.3 2890.82   2
   5   3   4 96084.2 2298.02   3
  -5   3  -4 97312.1 3149.44   5
  -6   3   4 12927.2 1354.80   1
  -6   3  -4 15794.1 2121.14   4
   6  -3   4 15719.6 1259.59   3
  -6  -3  -4 14398.7 1166.18   2
  -6   3  -4 16055.9 1299.28   5
   6   3  -4 13043.0 580.571   4
   7  -3   4 7063.89 877.578   3
  -7  -3  -4 6312.32 515.468   5
  -7   3  -4 7274.75 903.556   5
  -7   3   4 6251.55 1004.87   1
  -7   3  -4 6614.51 1457.77   4
  -7  -3  -4 6047.53 789.381   2
  -8   3   4 5321.34 949.518   1
  -8  -3  -4 5468.54 511.434   5
   8  -3   4 4873.36 774.577   3
  -8   3  -4 5164.22 762.134   5
  -8   3  -4 5790.78 1444.78   4
  -9   3  -4 100828. 3613.79   5
  -9   3   4 118032. 4597.20   4
  -9   3  -4 107549. 6423.04   4
  -9  -3   4 102068. 4662.26   1
  -9   3   4 100891. 4342.14   1
 -10   3   4 844.823 479.631   1
 -10   3   4 1019.49 517.600   4
 -10  -3   4 981.975 487.021   1
 -10   3  -4 2341.14 1066.71   4
 -11   3   4 1148.52 589.822   1
 -11   3   4 754.844 499.865   4
 -11  -3   4 426.705 345.842   1
 -12   3   4 14434.0 1830.02   4
 -12  -3   4 11092.6 1680.36   1
 -12   3   4 9598.78 1475.94   1
 -13   3   4 44369.3 3375.64   1
 -13  -3   4 45561.6 3527.86   1
 -14   3   4 36418.8 3117.28   1
 -14   3   4 37084.0 3246.28   4
 -14  -3   4 33193.7 3087.76   1
 -15   3   4 3703.86 1022.77   1
 -15  -3   4 2504.42 854.456   1
 -16  -3   4 753.675 623.989   1
 -16   3   4 1447.58 786.923   1
 -17  -3   4 1801.84 840.226   1
 -17   3   4 2336.96 759.721   1
 -18  -3   4 986.834 796.315   1
 -18   3   4 490.898 476.470   1
 -19   3   4 2471.23 935.903   1
   0  -3   5 577.965 255.970   3
   0  -3  -5 163.807 210.179   2
   0   3  -5 864.265 257.465   2
   0   3  -5 524.181 267.078   4
  -1   3  -5 3376.20 746.566   4
  -1  -3  -5 4128.41 656.166   2
   1  -3  -5 3065.69 262.786   3
  -1  -3   5 3819.25 614.929   3
   1  -3   5 3894.68 565.481   3
  -1   3  -5 3920.04 526.742   2
   1   3  -5 2563.12 571.073   4
   2   3  -5 69315.9 2765.88   4
  -2  -3  -5 75206.2 2778.79   2
  -2   3  -5 73383.3 2294.16   2
   2  -3   5 71150.5 2474.36   3
   3  -3   5 32783.1 1670.11   3
   3   3  -5 29066.1 1576.60   4
  -3   3  -5 30469.6 2613.04   4
  -3  -3  -5 31500.8 1782.75   2
  -3   3  -5 31477.9 1493.58   2
   4  -3   5 18178.2 1290.33   3
  -4  -3  -5 15519.0 1256.45   2
  -4   3  -5 18671.6 1191.08   2
  -4   3  -5 16464.8 2038.34   4
   5   3   5 164.259 75.9814   3
  -5  -3  -5 113.579 165.699   2
  -5   3  -5 382.243 124.586   2
   5  -3   5 281.199 263.368   3
  -5   3  -5 174.002 214.390   5
  -5   3   5 453.089 358.129   1
  -5   3  -5 813.884 479.329   4
   6  -3   5 98614.3 3273.89   3
  -6   3   5 98363.3 4028.44   1
  -6   3  -5 107422. 5783.48   4
  -6  -3  -5 100446. 3450.37   2
  -6   3  -5 110969. 3688.55   5
   7  -3   5 71805.9 2854.91   3
  -7   3  -5 74955.8 3071.78   5
  -7   3   5 66900.2 3420.09   1
  -7   3  -5 66897.8 4768.48   4
  -7  -3  -5 68514.6 2840.22   2
   8  -3   5 5247.16 815.527   3
  -8   3  -5 5110.83 823.860   5
  -8  -3  -5 7304.55 666.797   5
  -8  -3  -5 5934.73 873.389   2
  -8   3   5 5175.42 1010.88   1
  -9   3   5 1036.31 438.028   1
  -9  -3  -5 1419.35 307.804   5
  -9   3  -5 1356.48 397.654   5
   9  -3   5 1750.83 528.715   3
 -10  -3  -5 374.960 98.5269   5
  10  -3   5-4.30128 388.720   3
 -10   3  -5 1086.24 413.851   5
 -10  -3   5 794.022 622.592   1
 -10   3   5 925.048 472.792   4
 -11  -3   5 47392.8 3506.96   1
 -11   3   5 55781.4 3312.88   4
 -11   3   5 46010.1 3321.61   1
 -12   3   5 66632.3 3760.37   4
 -12   3   5 60340.7 3876.68   1
 -13   3   5 1481.38 680.020   1
 -13  -3   5 1843.62 765.940   1
 -14   3   5 5343.66 1231.07   1
 -14  -3   5 5284.59 1268.04   1
 -15  -3   5 9280.93 1752.15   1
 -15   3   5 9686.49 1751.60   1
 -16   3   5 36834.3 3443.75   1
 -16  -3   5 36785.3 3529.53   1
 -17   3   5 1253.07 582.392   1
 -17  -3   5 388.571 421.790   1
 -18   3   5-308.826 465.605   1
 -18  -3   5-91.6694 687.605   1
 -19   3   5-162.204 514.404   1
   0   3  -6 407.399 241.422   2
   0  -3   6 77.9621 174.484   3
   0  -3  -6 86.2650 177.924   2
   1   3  -6 67221.3 2633.28   2
  -1  -3  -6 72531.7 3016.14   2
  -1  -3   6 71108.7 2789.74   3
   1  -3   6 69907.1 2613.76   3
  -1   3  -6 72333.6 2586.19   2
  -2  -3  -6 1085.88 385.323   2
  -2   3  -6 1037.72 320.277   2
   2  -3   6 1468.08 416.926   3
  -3   3  -6 67776.0 2501.70   2
  -3  -3  -6 67943.1 2881.99   2
   3  -3   6 66439.3 2509.22   3
  -4  -3  -6 24135.9 1708.10   2
  -4   3  -6 23099.7 1473.68   2
   4  -3   6 24863.1 1529.61   3
   5  -3   6 7076.09 846.036   3
  -5  -3  -6 6311.34 874.957   2
  -5   3  -6 6286.14 791.345   2
   6  -3   6 54967.2 2454.75   3
  -6   3   6 53815.0 3164.66   1
  -6   3  -6 53121.8 2683.75   5
  -6  -3  -6 51306.9 2586.93   2
  -6   3  -6 53203.1 2395.62   2
   7  -3   6 8416.30 1009.95   3
  -7  -3  -6 8196.88 1073.72   2
  -7   3   6 7773.51 1222.92   1
  -7   3  -6 9787.89 1145.02   5
   8  -3   6 6842.48 924.292   3
  -8  -3  -6 7368.21 741.896   5
  -8   3  -6 8698.16 1135.45   5
  -8   3   6 6763.66 1219.84   1
  -8  -3  -6 7292.32 1010.70   2
   9  -3   6 889.901 380.537   3
  -9  -3  -6 1412.36 330.992   5
  -9   3  -6 1334.40 493.623   5
  -9   3   6 1706.78 685.269   1
 -10   3  -6 14987.8 1531.57   5
  10  -3   6 15173.8 1473.90   3
 -10  -3  -6 14990.0 1098.16   5
 -10   3   6 17089.9 1752.01   4
 -10   3   6 16146.0 1967.27   1
 -10  -3   6 17122.4 2150.34   1
 -11   3  -6 8238.15 1171.54   5
  11  -3   6 8492.38 1116.84   3
 -11  -3   6 10123.3 1698.86   1
 -11   3   6 11450.8 1720.24   1
 -12  -3   6 28140.7 2877.64   1
  12  -3   6 25601.0 2100.53   3
 -12   3   6 26688.7 2681.10   1
 -13   3   6 1032.31 600.097   1
  13  -3   6 1122.98 477.460   3
 -13  -3   6 2412.01 930.404   1
  14  -3   6 7346.80 1196.90   3
 -14  -3   6 7913.27 1680.09   1
 -14   3   6 8595.28 1641.32   1
 -15  -3   6 39451.7 3710.48   1
 -15   3   6 34149.8 3355.89   1
 -16  -3   6-451.966 401.533   1
 -16   3   6 375.613 676.954   1
 -17   3   6 12101.9 2124.69   1
 -17  -3   6 13720.7 2219.76   1
 -18   3   6 555.497 437.043   1
   0  -3  -7 258556. 6592.87   2
   0   3  -7 258673. 5828.58   2
   0  -3   7 267265. 5869.68   3
  -1   3  -7 3702.93 653.415   2
   1  -3   7 3754.71 619.315   3
  -1  -3  -7 3140.69 665.971   2
   1  -3  -7 2622.37 668.274   2
   1   3  -7 3220.51 608.945   2
  -2  -3  -7 3750.39 732.236   2
  -2   3  -7 4027.11 673.645   2
   2  -3   7 4594.62 709.432   3
  -3  -3  -7 10766.7 1225.85   2
  -3   3  -7 11991.9 1135.62   2
   3  -3   7 10521.2 1050.00   3
  -4  -3  -7 40095.1 2396.99   2
  -4   3  -7 46229.6 2286.57   2
   4  -3   7 41611.0 2055.02   3
  -5  -3  -7 905.582 365.389   2
  -5   3  -7 1373.51 459.528   2
   5  -3   7 1383.56 436.232   3
  -6  -3  -7 557.167 273.390   2
  -6   3  -7 1507.83 453.246   2
   6  -3   7 1185.80 402.225   3
  -6   3   7 1551.94 606.638   1
  -6   3  -7 1097.01 469.226   5
  -7   3   7 26274.8 2420.18   1
   7  -3   7 27387.6 1811.93   3
  -7   3  -7 28580.2 2136.35   5
  -7  -3  -7 25090.3 1971.82   2
  -7   3  -7 24217.0 1795.90   2
   8  -3   7 15287.8 1399.78   3
  -8   3  -7 12715.8 1437.28   5
  -8   3   7 15493.2 1927.53   1
  -8  -3  -7 13573.8 1465.60   2
  -9  -3  -7 1367.71 555.055   2
  -9  -3  -7 516.805 259.555   5
  -9   3  -7 800.930 421.296   5
   9  -3   7 619.232 343.554   3
  -9   3   7 685.097 623.648   1
  10  -3   7 21748.0 1782.28   3
 -10   3   7 22954.8 2491.22   1
 -10   3  -7 20552.4 1875.60   5
  11  -3   7 15966.2 1594.40   3
 -11   3  -7 14472.5 1638.39   5
 -11   3   7 17689.3 2238.87   1
 -11  -3   7 16500.8 2214.18   1
 -12   3   7 1003.60 501.265   1
 -12   3  -7 2182.08 685.832   5
  12  -3   7 2018.58 605.690   3
 -13   3   7 2179.39 833.500   1
  13  -3   7 2633.80 681.963   3
 -13  -3   7 4395.98 1318.35   1
 -14   3   7 4506.84 1230.70   1
  14  -3   7 5872.33 1053.58   3
 -14  -3   7 5337.86 1485.74   1
  15  -3   7 1543.97 647.830   3
 -15  -3   7 2856.75 1061.42   1
 -15   3   7 1505.70 822.249   1
  16  -3   7 27.0411 281.208   3
 -16   3   7 31.2329 519.899   1
  17  -3   7 1559.78 556.127   3
 -17   3   7 1127.19 765.043   1
   0  -3  -8-142.413 218.872   2
   0   3  -8 289.992 292.447   2
   0  -3   8-489.005 393.349   3
  -1  -3  -8 62.5883 287.801   2
  -1   3  -8 575.741 302.966   2
   1  -3   8 621.448 292.503   3
   1   3  -8 1253.71 464.153   2
   1  -3  -8 520.173 392.976   2
  -2  -3  -8 735.023 415.730   2
  -2   3  -8 977.910 392.212   2
   2  -3   8 597.629 212.799   3
   2   3  -8 1195.20 486.683   2
  -3  -3  -8 14426.9 1544.53   2
  -3   3  -8 12765.3 1299.00   2
   3  -3   8 16024.1 1318.24   3
  -4  -3  -8 1396.80 490.799   2
  -4   3  -8 2169.06 523.467   2
   4  -3   8 1654.22 416.275   3
  -5   3  -8 19075.6 1627.17   2
  -5  -3  -8 18548.2 1756.91   2
   5  -3   8 18131.8 1443.13   3
  -6  -3  -8 50948.2 2953.62   2
  -6   3  -8 51867.3 2739.90   2
   6  -3   8 52192.8 2469.47   3
   7  -3   8 6966.45 914.140   3
  -7   3  -8 7276.79 1143.72   5
  -7   3  -8 7666.57 1058.03   2
  -7  -3  -8 6761.34 1087.27   2
  -7   3   8 9381.65 1547.68   1
   8  -3   8 36394.6 2184.83   3
  -8   3  -8 37305.4 2598.07   5
  -8  -3  -8 36919.6 2606.80   2
  -9   3  -8 23012.0 2063.08   5
   9  -3   8 26914.6 1945.81   3
  -9  -3  -8 23333.5 2071.30   2
  -9   3   8 27229.3 2727.60   1
  10  -3   8 31597.7 2172.82   3
 -10   3  -8 33271.8 2552.07   5
 -10   3   8 34363.2 3191.04   1
 -10  -3  -8 28885.0 2377.82   2
  11  -3   8 2101.14 580.375   3
 -11  -3   8 1649.41 796.269   1
 -11   3  -8 2146.91 720.464   5
 -11   3   8 2325.48 883.553   1
  12  -3   8 47419.7 2850.14   3
 -12  -3   8 56134.3 4342.10   1
 -12   3  -8 49585.4 3228.35   5
 -12   3   8 60164.2 4413.67   1
  13  -3   8 10289.8 1371.81   3
 -13   3   8 12208.6 2034.39   1
 -13  -3   8 10363.6 1924.80   1
 -13   3  -8 9990.20 1464.82   5
 -14   3   8 58.5789 503.003   1
 -14  -3   8 1368.54 1014.71   1
  14  -3   8 488.251 346.934   3
 -15   3   8 4931.07 1290.80   1
  15  -3   8 2774.05 812.647   3
 -15  -3   8 5778.50 1505.54   1
 -16   3   8-245.210 951.243   1
   0   3  -9 27958.2 2151.97   2
   0  -3  -9 27269.3 2367.14   2
   1   3  -9 5700.26 981.393   2
  -1  -3  -9 5882.81 1074.72   2
   1  -3  -9 4364.45 924.523   2
  -1   3  -9 6516.76 1035.62   2
   1  -3   9 5767.96 869.841   3
   2   3  -9 37284.6 2568.84   2
   2  -3  -9 35654.1 2801.98   2
  -2  -3  -9 39364.6 2789.57   2
  -2   3  -9 37127.0 2440.14   2
   2  -3   9 35332.8 2129.62   3
  -3  -3  -9 273.990 364.549   2
  -3   3  -9-246.883 340.367   2
   3  -3   9 66.8023 220.088   3
   3   3  -9-6.69329 240.537   2
  -4  -3  -9 3244.89 835.783   2
  -4   3  -9 2634.35 614.182   2
   4  -3   9 2567.20 561.800   3
  -5  -3  -9 10757.6 1399.82   2
  -5   3  -9 10895.4 1315.54   2
   5  -3   9 8796.39 1054.13   3
  -6  -3  -9 70648.7 3691.62   2
  -6   3  -9 70235.7 3490.29   2
   6  -3   9 71665.5 3055.51   3
  -7   3   9 2017.87 730.855   1
  -7  -3  -9 1110.47 523.176   2
   7  -3   9 1114.66 329.680   3
  -7   3  -9 1205.45 447.894   2
  -7   3  -9 1532.41 559.539   5
  -8  -3  -9-14.3151 333.548   2
   8  -3   9 215.819 269.829   3
  -8   3   9 992.100 643.559   1
  -8   3  -9 819.963 525.300   5
   9  -3   9 556.084 279.701   3
  -9  -3  -9-221.945 290.270   2
  -9   3  -9-200.943 265.991   5
  -9   3   9 76.1257 497.596   1
 -10  -3  -9 2474.62 733.371   2
  10  -3   9 4335.58 821.438   3
 -10   3  -9 4000.96 964.253   5
 -10   3   9 5975.26 1413.30   1
 -11   3  -9 2567.49 782.947   5
 -11   3   9 2562.73 988.766   1
 -12   3  -9 31031.4 2679.69   5
 -12  -3   9 37095.4 3648.72   1
 -12   3   9 38933.2 3662.79   1
 -13   3  -9 7640.34 1372.82   5
 -13   3   9 13387.7 2235.35   1
 -13  -3   9 12216.2 2210.43   1
 -14   3   9 2569.85 1040.60   1
 -15   3   9-162.011 768.015   1
   0  -3 -10 1108.53 501.574   2
   0   3 -10 116.126 256.011   2
   1  -3 -10 1149.65 537.061   2
   1   3 -10 1431.81 497.013   2
  -1  -3 -10 735.316 416.863   2
  -1   3 -10 1749.48 574.638   2
   2  -3 -10 19024.8 2131.51   2
   2   3 -10 17713.1 1901.59   2
  -2  -3 -10 18796.0 2038.22   2
  -2   3 -10 20959.3 1970.56   2
  -3  -3 -10 192.508 392.137   2
   3  -3  10 595.531 282.853   3
  -3   3 -10 825.359 337.047   2
   3  -3 -10 421.043 325.031   2
   3   3 -10 664.252 376.174   2
  -4  -3 -10 25180.8 2346.05   2
   4   3 -10 22784.8 2239.02   2
  -4   3 -10 25412.2 2156.91   2
   4  -3  10 27087.0 1890.47   3
  -5  -3 -10 3394.18 866.023   2
  -5   3 -10 2454.68 695.382   2
  -6  -3 -10 44844.4 3141.82   2
  -6   3 -10 47330.9 3059.09   2
  -7  -3 -10 162.928 358.406   2
  -7   3  10-219.178 451.568   1
  -7   3 -10-8.37551 203.595   2
  -7   3 -10-81.1006 307.437   5
  -8   3 -10 892.852 399.460   5
  -8  -3 -10 1136.58 572.030   2
  -8   3 -10 515.376 374.584   2
  -8   3  10 969.434 623.060   1
  -9   3 -10 11509.4 1676.77   5
  -9  -3 -10 9251.23 1462.29   2
 -10  -3 -10 1780.77 682.254   2
 -10   3  10 3011.53 1075.47   1
 -10   3 -10 1935.21 717.506   5
 -11   3 -10 747.196 524.237   5
 -11   3  10 875.856 604.110   1
 -12  -3  10 29468.3 3361.04   1
 -12   3 -10 24318.3 2471.49   5
 -13   3  10 2503.61 1057.42   1
   0  -3 -11 76668.6 4471.78   2
   0   3 -11 71768.2 4010.39   2
   1  -3 -11 17729.8 2180.21   2
  -1  -3 -11 18753.6 2210.33   2
  -1   3 -11 18798.9 2022.78   2
   1   3 -11 16209.2 1918.08   2
   2  -3 -11 6320.70 1280.15   2
   2   3 -11 6255.44 1133.64   2
  -2  -3 -11 6623.32 1287.88   2
  -2   3 -11 8080.13 1322.30   2
  -3  -3 -11 6339.65 1233.33   2
  -3   3 -11 6021.89 1098.86   2
   3  -3 -11 5903.23 1312.53   2
   3   3 -11 6007.03 1185.90   2
  -4  -3 -11 11537.7 1682.06   2
   4   3 -11 11247.0 1687.00   2
  -4   3 -11 11324.0 1532.13   2
   4  -3 -11 10424.6 1712.77   2
  -5  -3 -11 6912.43 1265.10   2
  -5   3 -11 7756.72 1294.87   2
   5   3 -11 7275.46 1388.42   2
  -6  -3 -11 3917.85 1013.69   2
  -6   3 -11 5256.15 1117.07   2
  -7  -3 -11 1800.95 723.930   2
  -7   3 -11 1599.68 593.586   2
  -7   3 -11 496.693 326.018   5
  -8  -3 -11 3059.81 961.707   2
  -8   3 -11 2971.82 880.876   2
  -8   3 -11 2795.29 948.461   5
  -9  -3 -11 494.958 577.496   2
  -9   3 -11 268.728 304.811   5
 -10   3 -11 976.771 519.392   5
   0  -3 -12-523.871 540.519   2
   0   3 -12 360.314 272.498   2
   1  -3 -12 1480.90 777.957   2
   1   3 -12 2070.31 741.691   2
  -1  -3 -12 1157.98 514.955   2
  -1   3 -12 1271.33 634.833   2
   2  -3 -12 6045.69 1334.43   2
   2   3 -12 7803.06 1418.46   2
  -2  -3 -12 8793.06 1579.45   2
  -2   3 -12 5965.64 1187.10   2
   3  -3 -12 2588.74 835.234   2
   3   3 -12 2398.40 810.644   2
  -3  -3 -12 3107.05 953.087   2
  -3   3 -12 2380.61 737.535   2
   4   3 -12 105.899 268.959   2
  -4  -3 -12 45.1238 337.441   2
  -4   3 -12-115.661 346.342   2
   4  -3 -12-41.7415 357.116   2
  -5  -3 -12 2875.48 871.151   2
  -5   3 -12 3625.45 970.575   2
   5   3 -12 3963.96 1094.79   2
   5  -3 -12 4403.49 1262.01   2
   6  -3 -12 13732.8 2198.13   2
   6   3 -12 13269.7 2071.93   2
  -6  -3 -12 13690.7 1981.46   2
  -6   3 -12 15610.5 1990.67   2
  -7   3 -12 1011.28 585.939   2
  -8   3 -12 22518.0 2431.05   2
   0   3 -13 13020.5 1906.22   2
   1   3 -13 401.520 269.659   2
  -1   3 -13 0.83239 423.708   2
   2   3 -13 6111.27 1296.88   2
  -2   3 -13 4633.26 1095.80   2
   3   3 -13 7638.14 1528.84   2
  -3   3 -13 8049.53 1457.16   2
   4   3 -13 358.242 403.518   2
  -4   3 -13 442.817 370.690   2
   5   3 -13 2530.53 907.792   2
  -5   3 -13 5157.71 1188.15   2
   0  -4   0 796725. 7651.65   2
   0  -4   0 882827. 10209.4   3
  -1  -4   0 584.726 196.573   3
   1  -4   0 695.625 321.457   3
   1  -4   0 570.795 99.7172   2
   2   4   0 277986. 3660.95   2
   2  -4   0 293889. 3927.67   1
   2  -4   0 283023. 5135.86   3
  -2  -4   0 278511. 5151.58   3
   3   4   0 473.000 140.459   2
   3  -4   0 574.352 218.596   3
  -3  -4   0 345.296 166.736   1
   4  -4   0 16023.7 1201.18   3
  -4  -4   0 15516.6 1037.32   1
  -5  -4   0 428.528 195.392   1
  -6   4   0 162178. 5750.52   4
  -6  -4   0 173415. 4230.30   1
  -7  -4   0 720.879 276.187   1
  -7   4   0 876.770 462.873   4
   8   4   0 58520.7 1099.77   5
  -8   4   0 62751.2 3757.00   4
  -9  -4   0 744.570 347.047   1
  -9   4   0 274.825 414.624   4
 -10   4   0 45183.3 3516.80   4
 -10  -4   0 47004.1 2649.60   1
 -11  -4   0 768.697 382.473   1
 -11   4   0 576.291 634.031   4
 -12  -4   0 133970. 4997.12   1
 -12   4   0 130336. 6583.45   4
 -13  -4   0 399.336 283.329   1
 -13   4   0 399.408 573.918   4
 -14  -4   0 14223.8 1703.31   1
 -14   4   0 18254.6 2678.25   4
 -15   4   0 278.752 704.042   4
 -15  -4   0 124.562 452.153   1
 -16  -4   0 57784.4 3791.44   1
 -16   4   0 74784.1 6005.17   4
 -17   4   0-548.279 599.213   4
 -17  -4   0-24.9142 433.598   1
 -18  -4   0 278603. 9150.88   1
 -19  -4   0 284.976 540.505   1
   0  -4  -1 135.990 84.3628   2
   0   4  -1 190.711 151.492   5
   0  -4   1 516.786 264.264   3
   0  -4  -1 295.900 171.657   3
   1  -4   1 410705. 6502.06   3
   1  -4  -1 396961. 6093.51   3
  -1   4  -1 417737. 5947.40   5
  -1  -4  -1 424222. 4998.70   5
   1   4  -1 427584. 5532.15   5
   1  -4  -1 401072. 4360.74   1
  -1  -4  -1 429608. 5042.07   2
  -1  -4   1 419616. 6708.33   3
  -1  -4  -1 410007. 6116.39   3
  -2  -4  -1 1684.61 348.255   3
  -2  -4   1 1433.21 365.042   3
   2  -4   1 2159.53 455.516   3
  -2  -4  -1 1413.63 233.280   2
   2   4  -1 1664.28 247.393   5
   2  -4   1 1560.35 131.502   2
   2   4  -1 1803.36 178.604   2
   2  -4  -1 1956.06 239.748   1
  -2  -4  -1 1665.35 195.588   1
   2  -4  -1 1365.79 320.790   3
  -2  -4  -1 1697.62 181.960   5
   3  -4   1 16906.7 1193.95   3
   3  -4  -1 17494.2 1146.57   3
   3   4  -1 17576.1 753.445   5
   3  -4  -1 18036.7 864.148   1
  -3  -4   1 16646.7 1267.76   3
   3   4  -1 17632.0 733.443   2
  -3  -4  -1 17276.1 759.817   1
   4  -4   1 1378.39 378.105   3
  -4   4  -1 1126.02 527.766   4
  -4  -4  -1 1152.99 241.235   1
   5  -4   1 183167. 4551.84   3
  -5   4  -1 189347. 6136.73   4
  -5  -4   1 186306. 4685.02   1
  -5  -4  -1 197938. 3771.44   1
  -6  -4  -1 116955. 3071.44   1
  -6   4  -1 111847. 4837.51   4
  -6  -4   1 108595. 3642.52   1
  -7  -4  -1 261832. 5231.73   1
  -7   4  -1 247545. 7637.66   4
  -7   4   1 238348. 7209.28   4
  -7  -4   1 263137. 6165.40   1
  -8  -4  -1 53025.8 2325.65   1
  -8   4  -1 49465.3 3511.11   4
  -8   4   1 46748.0 3171.08   4
  -8   4   1 55390.1 2489.80   1
  -8  -4   1 52196.0 2718.28   1
  -9   4   1 48867.5 2519.08   1
  -9  -4  -1 56512.1 2550.78   1
  -9   4   1 44148.5 3197.50   4
  -9   4  -1 49551.1 3643.16   4
  -9  -4   1 51592.3 2832.12   1
 -10  -4  -1 42106.4 2343.34   1
 -10   4   1 38449.7 2351.31   1
 -10   4   1 37299.0 3049.64   4
 -10   4  -1 40972.9 3457.92   4
 -10  -4   1 40021.0 2596.14   1
 -11  -4  -1 170353. 5100.42   1
 -11   4   1 156831. 5218.49   1
 -11   4   1 163755. 6807.48   4
 -11   4  -1 163372. 7396.25   4
 -11  -4   1 162811. 5538.33   1
 -12   4  -1 71692.7 5116.48   4
 -12  -4  -1 70656.9 3429.49   1
 -12   4   1 72806.3 3658.33   1
 -12  -4   1 70956.0 3709.66   1
 -12   4   1 74018.6 4763.09   4
 -13  -4  -1 121668. 4721.38   1
 -13   4   1 120697. 6358.58   4
 -13   4  -1 118017. 6969.38   4
 -13  -4   1 110069. 4908.39   1
 -14  -4  -1 3503.98 856.388   1
 -14   4   1 4138.58 1229.55   4
 -14   4  -1 3546.33 1408.88   4
 -14  -4   1 2732.65 804.830   1
 -15  -4  -1 9480.63 1448.65   1
 -15   4   1 9694.53 2003.60   4
 -15   4  -1 10271.0 2228.93   4
 -15  -4   1 7712.34 1370.00   1
 -16  -4   1 1714.90 684.638   1
 -16  -4  -1 1664.81 656.460   1
 -16   4   1 3355.63 1328.67   4
 -16   4  -1 1527.33 909.931   4
 -17  -4   1 74247.5 4580.68   1
 -17  -4  -1 80937.3 4494.67   1
 -18  -4   1 1600.53 787.755   1
 -18  -4  -1 1008.59 779.780   1
 -19  -4   1 89635.8 5408.44   1
 -19  -4  -1 89386.7 5045.40   1
   0   4  -2 63862.1 1999.85   5
   0  -4  -2 60624.9 1814.28   2
   0  -4   2 62823.2 2305.37   3
   0  -4  -2 58780.1 1813.11   3
  -1  -4  -2 721.333 183.335   2
  -1  -4  -2 366.804 144.332   3
  -1  -4   2 494.465 269.671   3
   1  -4   2 391.732 287.152   3
   1  -4  -2 268.232 135.040   3
   1   4  -2 401.813 158.527   5
  -1   4  -2 585.850 210.673   5
   2  -4   2 21006.7 1337.84   3
  -2  -4  -2 23268.4 1076.70   2
   2  -4  -2 21141.4 1160.24   3
  -2   4  -2 22945.0 1853.42   4
  -2   4  -2 23190.5 1273.55   5
  -2  -4  -2 20545.8 1135.18   3
  -2  -4   2 20942.4 1386.53   3
   3  -4  -2 11184.8 889.519   3
   3  -4   2 9605.86 933.455   3
  -3   4  -2 10792.5 901.822   5
  -3   4  -2 10639.7 1340.49   4
   3  -4   2 9990.79 504.168   2
  -3  -4  -2 10936.8 773.711   2
  -3  -4   2 9223.95 957.072   3
   4  -4   2 205503. 4736.19   3
  -4   4  -2 217927. 6466.76   4
  -4   4   2 203017. 3723.12   1
   4  -4   2 207943. 3228.81   2
  -4  -4  -2 213239. 3932.49   2
  -5   4   2 4550.39 561.147   1
   5  -4   2 4828.62 740.943   3
  -5  -4  -2 4437.83 471.409   1
  -5   4  -2 4787.51 1007.20   4
  -6  -4  -2 566298. 7522.43   1
  -6   4   2 546068. 8383.36   1
  -6   4  -2 551143. 11944.4   4
  -7   4   2 34491.6 1902.46   1
  -7  -4  -2 33713.5 1597.02   1
  -7   4  -2 35331.0 2921.77   4
  -7  -4   2 32655.0 2207.13   1
  -8  -4   2 99126.7 4041.63   1
  -8   4   2 102312. 4659.41   4
  -8   4   2 106824. 3671.14   1
  -8   4  -2 107842. 5439.12   4
  -8  -4  -2 103993. 3127.10   1
  -9   4   2 1327.64 444.201   1
  -9  -4  -2 550.249 287.621   1
  -9   4  -2 1010.21 725.599   4
  -9   4   2 1415.41 645.414   4
  -9  -4   2 613.280 371.612   1
 -10   4   2 67219.8 3257.15   1
 -10   4   2 61808.9 3858.43   4
 -10   4  -2 61340.5 4491.58   4
 -10  -4   2 65767.9 3536.67   1
 -10  -4  -2 61941.6 2731.59   1
 -11   4  -2 31174.4 3355.47   4
 -11   4   2 32096.3 2355.63   1
 -11  -4  -2 35839.2 2167.59   1
 -11   4   2 32745.1 2889.49   4
 -11  -4   2 30382.4 2491.44   1
 -12   4   2 274369. 7644.78   1
 -12  -4  -2 283215. 6870.42   1
 -12   4  -2 281957. 10921.6   4
 -12  -4   2 273288. 8079.52   1
 -13  -4   2 2055.54 708.488   1
 -13  -4  -2 1914.49 625.117   1
 -13   4   2 1744.45 945.961   4
 -13   4   2 1407.29 647.943   1
 -13   4  -2 2948.77 1167.04   4
 -14   4   2 78240.3 4284.61   1
 -14   4  -2 84722.4 6444.57   4
 -14  -4   2 74219.0 4262.14   1
 -14  -4  -2 79860.8 3834.69   1
 -15   4   2 7443.06 1361.58   1
 -15  -4   2 6537.25 1350.94   1
 -15   4   2 8396.41 1743.01   4
 -15   4  -2 7139.78 1934.56   4
 -15  -4  -2 7203.51 1211.78   1
 -16   4   2 6529.16 1357.21   1
 -16  -4   2 8086.69 1531.94   1
 -16   4   2 10024.3 2034.96   4
 -17   4   2 801.669 667.877   1
 -17  -4   2 124.000 338.938   1
 -18  -4   2 24417.4 2776.98   1
 -19  -4   2 266.271 581.699   1
   0   4  -3 174.367 65.1889   2
   0  -4   3 90.4260 143.361   3
   0  -4  -3 296.419 125.568   3
   1  -4  -3 133595. 2836.99   3
  -1  -4  -3 131030. 2742.96   3
   1   4  -3 138714. 2311.95   2
  -1   4  -3 144159. 4658.57   4
  -1  -4  -3 143250. 3306.88   2
  -1   4  -3 135311. 2156.30   2
  -1  -4   3 132350. 3667.51   3
   1  -4   3 137864. 3603.01   3
   2  -4   3 17009.3 1223.67   3
   2  -4  -3 18562.0 1035.20   3
  -2   4  -3 19094.0 1246.50   5
  -2   4  -3 16453.5 1602.73   4
   2   4   3 14613.1 614.498   1
  -2  -4  -3 17868.9 1087.85   2
  -2  -4   3 16602.5 1301.36   3
  -2   4   3 16897.8 752.839   1
   3  -4   3 109874. 2203.39   2
  -3   4  -3 111968. 4439.52   4
  -3  -4  -3 114302. 2911.56   2
  -3   4  -3 110656. 3231.74   5
   3   4   3 112830. 2388.81   1
  -3   4   3 110883. 2518.22   1
  -4  -4  -3 82346.3 2556.97   2
   4  -4   3 90537.7 3045.62   3
  -4   4  -3 88343.5 4165.28   4
   4   4   3 84522.9 2362.59   1
  -4   4   3 88969.8 2534.96   1
  -5   4   3 359112. 6342.09   1
   5  -4   3 382766. 7061.93   3
  -5   4  -3 381061. 6886.69   5
  -5   4  -3 387524. 9624.03   4
  -5  -4  -3 374675. 6242.97   2
  -6   4   3 54854.6 2384.95   1
   6  -4   3 52676.8 2482.92   3
  -6   4  -3 52354.9 2383.09   5
  -6   4  -3 53592.2 3624.02   4
   7  -4   3 195366. 5160.66   3
  -7   4  -3 185620. 4806.54   5
  -7   4  -3 195079. 7288.64   4
  -8   4   3 1110.02 459.711   1
   8  -4   3 263.636 302.568   3
  -8  -4   3 132.894 187.580   1
  -8   4  -3 720.586 626.185   4
  -9  -4   3 2785.07 750.551   1
  -9   4   3 3085.68 665.055   1
  -9   4   3 3937.99 911.136   4
  -9   4  -3 2686.03 1067.17   4
 -10   4   3 415.401 395.478   1
 -10   4   3 157.779 253.438   4
 -10  -4   3 623.447 422.266   1
 -10   4  -3-576.513 495.810   4
 -11   4   3 97526.0 4360.94   1
 -11   4  -3 89665.7 6104.94   4
 -11   4   3 103499. 5002.21   4
 -11  -4   3 99178.2 4738.63   1
 -12   4   3 29297.5 2486.98   1
 -12   4   3 32769.6 2936.25   4
 -12  -4   3 26160.7 2508.57   1
 -12   4  -3 30556.9 3671.55   4
 -13   4   3 200241. 6994.56   1
 -13   4   3 248430. 8639.62   4
 -13   4  -3 232347. 10761.9   4
 -13  -4   3 205599. 7456.39   1
 -14   4   3 31613.2 2806.47   1
 -14   4   3 35589.9 3343.26   4
 -14   4  -3 39373.3 4528.70   4
 -14  -4   3 32933.6 2994.07   1
 -15   4   3 40205.6 3280.49   1
 -15   4   3 33158.3 3386.16   4
 -15  -4   3 36572.6 3222.78   1
 -16   4   3 5062.90 1210.99   1
 -16  -4   3 5089.20 1263.96   1
 -16   4   3 5782.83 1493.62   4
 -17   4   3 37794.3 3426.96   1
 -17  -4   3 35785.6 3418.40   1
 -18   4   3 3241.42 1021.77   1
 -18  -4   3 3247.71 1163.90   1
 -19   4   3 39550.7 3733.22   1
   0   4  -4 571299. 9931.22   4
   0   4  -4 556969. 6848.65   2
   0  -4  -4 585135. 8674.19   2
   0  -4   4 578285. 8872.13   3
   0  -4  -4 550029. 6570.59   3
   1  -4  -4 102091. 2223.43   3
   1   4  -4 97660.0 2322.42   2
   1   4  -4 101112. 3531.78   4
  -1  -4  -4 98343.5 3004.29   2
  -1   4  -4 103999. 4038.47   4
  -1   4   4 93349.8 2366.80   1
  -1   4  -4 94880.6 2125.07   2
  -1  -4   4 97806.0 3241.44   3
   1  -4   4 96967.5 3143.18   3
   2   4  -4 248311. 5451.33   4
   2  -4  -4 232640. 3985.68   3
   2   4   4 226924. 3463.92   1
  -2   4   4 219426. 4192.97   1
  -2   4  -4 223677. 6472.07   4
  -2  -4  -4 242652. 4938.54   2
  -2   4  -4 261745. 5376.91   5
  -2   4  -4 233749. 3795.26   2
  -2  -4   4 228593. 5350.32   3
   2  -4   4 216910. 4898.24   3
   3  -4   4 42642.6 2044.80   3
   3   4   4 44999.4 1494.12   1
   3   4   4 45254.2 1145.64   3
  -3   4  -4 45538.1 2172.95   5
   3   4  -4 50594.5 2184.38   4
  -3   4  -4 44884.1 3000.47   4
  -3   4   4 45350.5 1892.35   1
  -3  -4  -4 46598.0 1999.66   2
   4   4   4 93221.6 1924.65   3
   4  -4   4 92364.4 3160.08   3
  -4   4  -4 89880.3 3165.25   5
   4   4  -4 103956. 3023.25   4
  -4   4   4 95604.7 3052.48   1
  -4   4  -4 92912.0 4484.39   4
  -4  -4  -4 93495.7 2957.35   2
   5  -4   4 43607.8 2191.21   3
  -5   4  -4 43178.6 3216.24   4
  -5   4  -4 41732.2 2175.48   5
  -5   4   4 39046.0 2056.42   1
  -5  -4  -4 41650.9 2014.01   2
   6  -4   4 120064. 3863.71   3
  -6   4  -4 116800. 5655.72   4
  -6   4  -4 118720. 3809.97   5
  -6   4   4 113804. 3808.35   1
  -6  -4  -4 115463. 3491.61   2
  -7  -4  -4 2623.15 288.303   5
   7  -4   4 2611.07 618.645   3
  -7   4   4 4251.27 767.352   1
  -7  -4  -4 2902.84 567.840   2
  -7   4  -4 3385.03 1025.42   4
  -7   4  -4 2153.90 568.361   5
   8  -4   4 28163.5 1949.01   3
  -8   4  -4 26498.2 1878.78   5
  -8   4  -4 28879.1 3152.63   4
  -8   4   4 24119.9 1937.26   1
   9  -4   4 472.977 340.550   3
  -9  -4   4 167.252 234.307   1
  -9   4   4 292.615 171.944   1
  -9   4  -4 345.780 375.818   4
 -10   4   4 34157.6 2564.42   1
  10  -4   4 37119.1 2466.38   3
 -10   4   4 38086.7 2901.35   4
 -10   4  -4 37507.2 3917.66   4
 -10  -4   4 34170.2 2828.98   1
 -11   4   4 419.354 443.871   1
 -11   4   4 605.184 367.858   4
 -11  -4   4 342.037 273.014   1
 -11   4  -4 368.387 608.095   4
 -12   4   4 86724.1 4493.81   1
 -12   4   4 100221. 4982.21   4
 -12  -4   4 89193.0 4831.20   1
 -12   4  -4 98243.1 6855.27   4
 -13   4   4 22388.3 2305.12   1
 -13  -4   4 21979.3 2467.93   1
 -13   4   4 23113.2 2476.60   4
 -14   4   4 48177.4 3570.53   1
 -14   4   4 58616.9 4105.53   4
 -14  -4   4 49938.9 3815.21   1
 -15  -4   4 6339.19 1437.43   1
 -15   4   4 9093.64 1694.98   1
 -16   4   4 72982.5 4779.06   1
 -16  -4   4 62728.1 4518.76   1
 -17   4   4 31122.6 3185.88   1
 -17  -4   4 32870.5 3302.80   1
 -18   4   4 124237. 6638.47   1
 -18  -4   4 128245. 6819.21   1
 -19   4   4 11039.9 2021.54   1
   0   4  -5 252.320 130.754   2
   0  -4  -5 208.405 85.2147   3
   0  -4   5 380.791 174.438   3
   0  -4  -5 51.0864 166.386   2
   1  -4  -5 270694. 3827.35   3
   1  -4  -5 287392. 6304.56   2
   1   4  -5 283037. 5019.32   2
  -1  -4  -5 289939. 6075.71   2
   1   4  -5 283574. 6507.87   4
  -1   4  -5 291523. 7402.59   4
  -1   4  -5 296764. 4870.27   2
  -1  -4   5 289755. 6115.71   3
   1  -4   5 290758. 5979.89   3
   2  -4  -5 89390.5 2148.46   3
   2   4  -5 90357.7 3236.18   4
  -2  -4  -5 87791.5 3125.27   2
  -2   4  -5 87845.7 4193.57   4
  -2   4  -5 94604.5 2525.74   2
  -2  -4   5 83583.6 3220.33   3
   2  -4   5 92589.1 3150.90   3
  -3   4   5 39950.9 2096.19   1
   3   4  -5 46445.9 2121.33   4
  -3   4  -5 40824.4 2997.90   4
  -3  -4  -5 48202.2 2263.99   2
  -3   4  -5 44157.5 1752.38   2
   3  -4   5 42500.7 2112.36   3
  -4  -4  -5 342.899 182.768   2
   4  -4   5 172.211 227.804   3
  -4   4  -5 612.425 288.893   5
   4   4  -5 483.478 227.561   4
  -4   4   5 58.5683 181.198   1
  -4   4  -5 114.884 376.075   4
   5  -4   5 39450.6 2138.89   3
   5   4  -5 46416.1 1713.92   4
  -5   4   5 48297.3 2563.14   1
  -5   4  -5 43473.3 3470.32   4
  -5  -4  -5 42051.1 2159.09   2
  -5   4  -5 42716.3 2328.65   5
   6  -4   5 8440.20 1028.49   3
  -6   4  -5 10207.9 1163.65   5
  -6   4   5 8762.23 1158.37   1
   6   4  -5 7824.78 599.868   4
  -6   4  -5 8266.81 1638.41   4
  -6  -4  -5 7758.56 944.623   2
   7  -4   5 161963. 4719.20   3
  -7   4  -5 156804. 4820.48   5
  -7   4  -5 154312. 7364.78   4
  -7   4   5 153314. 5143.97   1
  -7  -4  -5 160586. 3007.59   5
  -7  -4  -5 149277. 4439.52   2
   8  -4   5 41033.1 2387.85   3
  -8   4  -5 38348.5 2370.48   5
  -8   4  -5 35223.9 3628.05   4
  -8   4   5 41561.6 2735.41   1
   9  -4   5 179963. 5362.70   3
  -9   4  -5 174348. 8553.07   4
  -9   4   5 166083. 5805.33   1
  -9   4  -5 158958. 5072.81   5
  10  -4   5 28416.0 2177.92   3
 -10   4  -5 28640.6 2147.76   5
 -10  -4   5 28501.3 2662.98   1
 -10   4  -5 29367.1 3557.25   4
 -10   4   5 29703.6 2511.42   1
 -10   4   5 29799.8 2544.92   4
  11  -4   5 125414. 4786.18   3
 -11  -4   5 122331. 5767.34   1
 -11   4   5 133063. 5534.95   4
 -11   4   5 114830. 5216.42   1
  12  -4   5 18555.5 1853.73   3
 -12  -4   5 16296.7 2126.57   1
 -12   4   5 22669.6 2294.77   4
 -12   4   5 18663.2 2155.63   1
 -13   4   5 35690.7 3084.28   1
  13  -4   5 32448.8 2609.60   3
 -13   4   5 40957.3 3191.79   4
 -13  -4   5 32656.4 3145.75   1
 -14   4   5 344.270 347.969   1
  14  -4   5-252.073 406.557   3
 -14  -4   5 890.364 725.689   1
 -15  -4   5 13635.7 2096.83   1
 -15   4   5 13733.5 2042.54   1
 -16   4   5 21885.0 2658.11   1
 -16  -4   5 19482.2 2563.34   1
 -17   4   5 74672.2 5110.09   1
 -17  -4   5 70468.7 5062.26   1
 -18   4   5-260.388 528.074   1
   0  -4  -6 84253.5 3422.24   2
   0   4  -6 80123.1 2692.85   2
   0   4  -6 76146.1 3713.93   4
   0  -4   6 81226.0 3124.82   3
  -1  -4  -6 4228.15 726.922   2
  -1  -4   6 2943.17 619.450   3
   1  -4   6 3168.95 612.388   3
  -1   4  -6 3873.50 561.439   2
   1   4  -6 2831.99 698.380   4
  -1   4  -6 3947.24 888.796   4
   1  -4  -6 2853.05 619.907   2
   1   4  -6 3133.00 543.352   2
   2  -4  -6 53183.3 1466.07   3
  -2   4  -6 54771.4 3520.16   4
  -2  -4  -6 57348.7 2749.77   2
   2   4  -6 55854.7 2731.85   4
  -2   4  -6 59989.9 2234.36   2
   2  -4   6 57352.0 2562.81   3
  -3   4  -6 25575.1 2551.51   4
   3   4  -6 27186.7 1725.17   4
  -3  -4  -6 25948.0 1809.49   2
  -3   4  -6 26341.5 1495.53   2
   3  -4   6 25705.7 1704.87   3
  -4   4  -6 55337.9 3952.64   4
  -4   4   6 55712.5 2880.79   1
  -4  -4  -6 57866.1 2704.63   2
  -4   4  -6 53230.4 2754.03   5
  -4   4  -6 56148.2 2281.49   2
   4  -4   6 56970.8 2564.87   3
   5  -4   6 16550.1 1389.07   3
  -5   4   6 17707.9 1697.56   1
  -5   4  -6 18047.3 1635.17   5
  -5   4  -6 19679.4 2491.53   4
  -5  -4  -6 17040.7 1460.60   2
  -5   4  -6 17138.6 1283.12   2
   6  -4   6 141998. 4376.80   3
  -6   4   6 132918. 4943.07   1
  -6   4  -6 141343. 4707.88   5
  -6   4  -6 137084. 6852.90   4
  -6  -4  -6 142496. 4536.03   2
   7  -4   6 74193.4 3202.04   3
  -7  -4  -6 74704.7 3290.60   2
  -7   4  -6 80512.9 3570.59   5
  -7   4   6 79276.8 3915.16   1
  -7   4  -6 77364.8 5329.25   4
   8  -4   6 241618. 6147.49   3
  -8   4  -6 241355. 6539.70   5
  -8   4   6 238900. 7271.78   1
  -8  -4  -6 237454. 6141.56   2
  -9   4   6 798.487 461.534   1
   9  -4   6 550.369 425.390   3
  -9   4  -6 697.058 358.380   5
 -10  -4   6 203058. 7572.46   1
 -10   4  -6 185633. 5876.04   5
  10  -4   6 197842. 5920.04   3
 -10   4   6 195949. 6936.86   1
  11  -4   6 55090.6 3136.51   3
 -11  -4   6 57309.1 4044.24   1
 -11   4   6 51331.1 3329.85   4
 -11   4   6 51900.2 3610.45   1
 -11   4  -6 53226.2 3123.84   5
  12  -4   6 72834.4 3758.85   3
 -12  -4   6 83475.8 5024.19   1
 -12   4   6 72884.4 4455.20   1
  13  -4   6 3974.90 943.709   3
 -13   4   6 3782.64 1073.14   1
 -13  -4   6 3003.02 1016.19   1
 -14   4   6 19192.5 2447.86   1
  14  -4   6 18365.5 2020.91   3
 -14  -4   6 22209.7 2702.89   1
 -15   4   6 8517.42 1630.13   1
  15  -4   6 9267.31 1493.61   3
 -15  -4   6 10211.0 1900.72   1
 -16   4   6 22670.6 2819.78   1
  16  -4   6 20453.8 2285.69   3
 -16  -4   6 23159.9 2935.52   1
 -17   4   6 554.180 434.853   1
  17  -4   6-6.80467 380.530   3
 -18   4   6 28154.4 3390.64   1
   0  -4  -7 484.340 233.305   2
   0   4  -7 314.928 218.587   2
   0  -4   7 206.849 248.690   3
   1  -4  -7 51020.6 2932.20   2
   1   4  -7 51691.8 2450.54   2
  -1  -4  -7 51231.5 2813.44   2
  -1   4  -7 53781.4 2391.23   2
  -1  -4   7 52755.7 2681.38   3
   1  -4   7 53449.0 2566.82   3
  -2  -4  -7 4469.64 853.630   2
  -2   4  -7 3508.11 589.349   2
   2  -4   7 4233.36 709.676   3
   2   4  -7 4375.03 731.939   2
  -3  -4  -7 164725. 5135.47   2
  -3   4  -7 176407. 4514.71   2
   3  -4   7 168805. 4744.64   3
  -4  -4  -7 99830.3 3906.85   2
   4  -4   7 96466.3 3499.69   3
  -5   4  -7 186643. 5689.25   5
  -5   4   7 186257. 6054.44   1
  -5  -4  -7 165277. 5137.91   2
  -5   4  -7 175689. 4736.62   2
   5  -4   7 161212. 4664.03   3
  -6  -4  -7 1151.60 345.492   2
   6  -4   7 1589.61 537.147   3
  -6   4  -7 1969.62 633.161   5
  -6   4   7 1826.81 672.181   1
   7  -4   7 64775.7 2998.31   3
  -7   4  -7 60394.2 3253.27   5
  -7   4   7 64859.9 3753.54   1
  -7  -4  -7 62394.4 3225.63   2
   8  -4   7 32300.2 2184.69   3
  -8   4   7 29819.3 2646.91   1
  -8   4  -7 30128.2 2319.46   5
  -8  -4  -7 29209.0 2190.50   2
   9  -4   7 30826.7 2209.04   3
  -9   4  -7 29054.4 2331.70   5
  -9   4   7 33625.9 2874.52   1
  -9  -4  -7 31755.6 2329.09   2
  10  -4   7 13444.0 1500.80   3
 -10   4  -7 13694.6 1614.45   5
 -10   4   7 16989.2 2107.98   1
  11  -4   7 37610.4 2599.93   3
 -11  -4   7 42346.6 3623.43   1
 -11   4  -7 34368.3 2593.77   5
 -11   4   7 36612.3 3190.97   1
  12  -4   7 943.681 474.177   3
 -12   4   7 572.420 405.697   1
 -12   4  -7 74.6763 396.032   5
 -12  -4   7 149.395 501.676   1
  13  -4   7 73378.3 3937.29   3
 -13  -4   7 80157.8 5247.01   1
 -13   4   7 80507.2 4959.89   1
  14  -4   7 49151.9 3330.39   3
 -14  -4   7 55223.6 4409.40   1
 -14   4   7 50174.0 4051.10   1
  15  -4   7 75912.5 4299.06   3
 -15  -4   7 90261.8 5747.58   1
 -15   4   7 84201.2 5458.83   1
 -16   4   7 347.399 549.447   1
  16  -4   7 517.094 447.313   3
 -17   4   7 27175.4 3196.69   1
   0  -4  -8 47813.8 2954.63   2
   0   4  -8 45582.1 2475.69   2
   0  -4   8 46735.8 2581.00   3
   1  -4  -8 28907.2 2358.39   2
  -1  -4  -8 28881.0 2248.30   2
  -1   4  -8 25544.8 1809.59   2
   1   4  -8 26074.7 1886.63   2
   1  -4   8 25989.9 1852.72   3
   2  -4  -8 154681. 5687.57   2
   2   4  -8 150956. 4849.40   2
  -2  -4  -8 161971. 5518.33   2
  -2   4  -8 163730. 4742.47   2
   2  -4   8 164415. 4815.92   3
  -3  -4  -8 6977.45 1119.67   2
   3  -4   8 5089.82 841.532   3
  -3   4  -8 6847.86 921.695   2
  -4  -4  -8 202660. 6143.56   2
  -4   4  -8 208707. 5527.32   2
   4  -4   8 211905. 5531.15   3
  -5   4  -8 14861.7 1673.02   5
  -5   4   8 14320.1 1773.21   1
  -5  -4  -8 11796.4 1413.78   2
  -5   4  -8 11659.0 1253.00   2
   5  -4   8 11528.9 1257.44   3
  -6  -4  -8 43405.0 2760.27   2
  -6   4  -8 45969.8 2966.20   5
  -6   4  -8 42857.5 2493.03   2
   6  -4   8 42516.8 2398.93   3
  -7  -4  -8 3805.98 838.743   2
   7  -4   8 4168.20 764.657   3
  -7   4  -8 3285.81 785.122   5
  -7   4   8 4355.26 1066.78   1
   8  -4   8 10214.9 1233.29   3
  -8   4  -8 11116.7 1484.99   5
  -8   4   8 10168.1 1616.33   1
  -8  -4  -8 9122.52 1316.90   2
   9  -4   8 443.014 356.561   3
  -9  -4  -8-81.8944 298.522   2
  -9   4  -8 531.116 399.913   5
  -9   4   8 202.078 441.745   1
  10  -4   8 10287.6 1337.94   3
 -10   4  -8 9895.95 1448.26   5
 -10   4   8 13306.6 1990.42   1
 -11   4   8 4966.39 1186.61   1
  11  -4   8 4452.03 947.879   3
 -11  -4   8 5122.49 1327.04   1
 -11   4  -8 4257.24 1015.36   5
  12  -4   8 34435.7 2589.53   3
 -12  -4   8 43318.4 3890.27   1
 -12   4  -8 33100.9 2770.38   5
 -12   4   8 37126.8 3466.92   1
  13  -4   8 8777.37 1364.78   3
 -13   4   8 10208.9 1830.08   1
 -13  -4   8 11846.2 2058.21   1
  14  -4   8 95199.3 4644.01   3
 -14  -4   8 119120. 6653.35   1
  15  -4   8 2001.77 820.952   3
  16  -4   8 70765.6 4248.18   3
   0  -4  -9-333.914 491.674   2
   0   4  -9 92.3599 229.566   2
   1   4  -9 46721.0 2759.73   2
   1  -4  -9 47772.2 3227.11   2
  -1  -4  -9 46727.9 3107.53   2
  -1   4  -9 44719.9 2641.36   2
   1  -4   9 47071.4 2660.33   3
   2  -4  -9 97931.3 4748.42   2
   2   4  -9 93688.5 4054.63   2
  -2  -4  -9 100177. 4545.14   2
  -2   4  -9 97297.2 3884.12   2
   2  -4   9 95001.4 3769.19   3
   3  -4  -9 99744.6 4878.57   2
   3   4  -9 99271.6 4286.41   2
  -3  -4  -9 108229. 4683.11   2
  -3   4  -9 103063. 4024.41   2
   3  -4   9 103037. 3911.85   3
  -4  -4  -9 6012.48 1079.28   2
   4  -4   9 5818.12 908.379   3
  -4   4  -9 3964.72 789.892   2
  -5  -4  -9 47671.1 3071.27   2
   5  -4   9 46017.5 2578.56   3
  -6  -4  -9 1234.57 558.161   2
   6  -4   9 1051.26 388.894   3
  -6   4  -9 343.741 242.064   2
  -6   4  -9 841.636 529.828   5
  -7   4  -9 40665.3 3004.54   5
  -7  -4  -9 40109.7 2904.96   2
   7  -4   9 41152.7 2486.85   3
   8  -4   9 1819.23 601.006   3
  -8  -4  -9 1251.98 679.820   2
  -8   4  -9 610.878 460.914   5
  -9   4  -9 115905. 5247.33   5
  -9  -4  -9 107865. 4908.79   2
   9  -4   9 110258. 4322.92   3
  10  -4   9 2740.19 742.054   3
 -10  -4  -9 2433.00 766.560   2
 -10   4  -9 4304.26 1042.77   5
  11  -4   9 52336.1 3112.68   3
 -11   4  -9 47516.5 3399.88   5
  12  -4   9 903.127 543.822   3
 -12   4  -9 37.5350 341.319   5
 -13   4  -9 25160.0 2553.40   5
   0   4 -10 25147.2 2140.34   2
   0  -4 -10 24961.8 2442.33   2
   1  -4 -10 3254.29 883.480   2
   1   4 -10 2711.55 721.789   2
  -1  -4 -10 4031.42 984.445   2
  -1   4 -10 3140.61 759.858   2
   2  -4 -10 50988.6 3638.85   2
   2   4 -10 53334.6 3242.26   2
  -2  -4 -10 56914.9 3644.53   2
  -2   4 -10 51659.8 3054.73   2
   2  -4  10 55387.7 2988.86   3
  -3  -4 -10 650.479 520.326   2
   3  -4  10-363.215 347.095   3
  -3   4 -10 66.1367 297.750   2
   3  -4 -10-223.956 347.905   2
   3   4 -10 37.4323 222.659   2
   4  -4 -10 26079.9 2681.80   2
   4   4 -10 25732.7 2354.70   2
  -4  -4 -10 28602.3 2526.95   2
  -4   4 -10 30640.0 2376.46   2
   4  -4  10 26892.3 2049.64   3
  -5  -4 -10 7196.37 1257.58   2
   5  -4  10 7776.31 1085.23   3
  -5   4 -10 7801.33 1226.23   2
  -6   4 -10 20816.3 2249.31   5
  -6  -4 -10 18931.7 2096.47   2
  -6   4 -10 17026.6 1809.66   2
   6  -4  10 17342.5 1629.94   3
  -7   4 -10 344.851 399.548   5
   7  -4  10-147.201 351.815   3
  -7   4 -10 183.276 246.908   2
  -7  -4 -10 357.159 313.862   2
  -8   4 -10 176088. 6870.22   5
  -8  -4 -10 182645. 6793.63   2
  -9  -4 -10 1083.00 708.611   2
  -9   4 -10 1380.40 736.715   5
 -10   4 -10 179243. 7027.57   5
 -10  -4 -10 166426. 6637.12   2
 -11   4 -10 1067.75 570.402   5
   0  -4 -11-363.714 377.791   2
   0   4 -11-29.2973 354.044   2
   1  -4 -11 53151.0 3871.99   2
   1   4 -11 51925.3 3376.49   2
  -1  -4 -11 51945.7 3749.13   2
  -1   4 -11 50788.5 3262.89   2
   2  -4 -11 12642.4 1915.17   2
   2   4 -11 11811.6 1637.97   2
  -2  -4 -11 11788.2 1791.46   2
  -3  -4 -11 86536.9 4770.16   2
   3   4 -11 69452.9 4033.21   2
   3  -4 -11 81596.3 4941.39   2
   4  -4 -11 27783.1 2916.43   2
   4   4 -11 24674.2 2438.45   2
  -4  -4 -11 27402.0 2660.94   2
  -5  -4 -11 16856.5 2032.48   2
   5  -4 -11 13225.6 2034.44   2
  -6  -4 -11-580.923 558.343   2
  -6   4 -11-678.269 661.542   5
  -7   4 -11 25361.0 2663.16   5
  -7  -4 -11 24975.2 2582.51   2
  -8  -4 -11 3997.18 963.315   2
  -8   4 -11 4556.36 1110.28   5
   0  -4 -12 18661.5 2380.29   2
   1  -4 -12 1257.56 501.556   2
  -1  -4 -12 2778.34 957.502   2
   2  -4 -12 80001.9 5083.40   2
  -2  -4 -12 86581.3 5090.31   2
   3  -4 -12 2061.48 883.521   2
  -3  -4 -12 2493.81 874.409   2
   4  -4 -12 98312.1 5774.74   2
  -4  -4 -12 96876.0 5273.56   2
   0  -5   0 148.254 150.138   3
   1  -5   0 435.193 77.2723   2
  -1  -5   0 721.314 296.506   3
   1  -5   0 733.835 258.881   3
   2  -5   0 21628.7 1425.20   3
  -2  -5   0 21888.8 1441.86   3
   3   5   0 797.005 187.934   2
   3  -5   0 619.321 309.348   3
  -3  -5   0 875.219 263.370   1
  -3  -5   0 506.603 230.280   3
   4  -5   0 167797. 4420.70   3
  -4  -5   0 166230. 3743.57   1
   5  -5   0-11.2211 226.330   3
  -5  -5   0 624.013 275.212   1
  -6  -5   0 751.260 295.821   1
   6  -5   0 376.603 210.785   3
  -6   5   0 36.2354 399.402   4
  -7  -5   0 1085.76 377.180   1
  -7   5   0 1230.45 663.126   4
  -8   5   0 81542.0 4593.59   4
  -8  -5   0 93153.1 3381.74   1
  -9   5   0-127.372 411.364   4
  -9  -5   0 541.359 348.064   1
 -10   5   0 32005.1 3031.51   4
 -10  -5   0 34647.2 2273.12   1
 -11   5   0 981.073 605.214   4
 -11  -5   0 557.360 342.469   1
 -12  -5   0 8802.86 1242.11   1
 -12   5   0 7632.98 1628.27   4
 -13  -5   0 802.894 478.701   1
 -13   5   0 494.140 535.076   4
 -14  -5   0 67173.5 3764.00   1
 -14   5   0 76014.5 5563.37   4
 -15  -5   0 1282.98 583.741   1
 -15   5   0 425.848 470.933   4
 -16  -5   0 2425.79 844.243   1
 -16   5   0 3471.64 1246.77   4
 -17   5   0-6.42134 520.215   4
 -17  -5   0-65.5564 361.131   1
 -18  -5   0-89.7090 415.580   1
 -18   5   0 49.2847 497.877   4
 -19  -5   0 939.163 639.147   1
   0  -5  -1 11163.1 598.900   2
   0  -5   1 12223.2 1082.12   3
   0  -5  -1 11346.0 961.008   3
   1  -5  -1 33007.9 1645.48   3
   1   5  -1 31726.9 1323.44   5
   1  -5  -1 33753.8 1119.12   2
   1  -5  -1 28417.9 729.610   1
  -1  -5  -1 28705.9 1001.55   2
  -1  -5  -1 26046.4 1462.66   3
  -1  -5   1 32524.0 1757.23   3
   1  -5   1 26453.3 1572.64   3
   2  -5   1 15837.8 1223.98   3
   2  -5  -1 15328.5 1165.44   3
   2  -5  -1 14672.2 662.702   1
   2   5  -1 14698.7 845.213   5
  -2  -5  -1 14291.1 1120.93   3
  -2  -5   1 14594.6 1224.70   3
  -2  -5  -1 14747.5 536.975   1
   3  -5  -1 1994.22 292.919   1
  -3  -5   1 1871.02 458.007   3
   3  -5   1 2987.00 595.015   3
   3  -5  -1 1622.35 378.722   3
   3   5  -1 1558.59 257.168   5
   3   5  -1 1659.72 211.650   2
   3  -5   1 1987.39 191.190   2
  -3  -5  -1 2157.88 264.033   1
   4  -5   1 45374.6 2247.34   3
   4  -5  -1 43242.5 2121.02   3
   4   5  -1 45720.7 1306.76   5
   4   5  -1 44684.5 1378.58   2
  -4  -5  -1 44000.4 1441.50   1
   5  -5   1 24005.9 1693.37   3
   5  -5  -1 22858.1 1600.18   3
   5   5  -1 23012.6 840.974   5
  -5  -5   1 24907.3 1656.02   1
  -5   5  -1 23891.7 2252.47   4
  -5  -5  -1 24804.1 1217.26   1
   6   5  -1 1852.17 217.359   5
  -6   5  -1 1589.34 641.203   4
  -6  -5   1 1670.07 444.968   1
   6  -5   1 1736.72 495.900   3
  -6  -5  -1 2049.71 387.978   1
  -7  -5  -1 46339.3 2011.66   1
   7  -5   1 43562.5 2481.28   3
  -7   5  -1 39884.0 3159.64   4
  -7  -5   1 41362.9 2345.93   1
  -8  -5  -1 39635.8 1998.77   1
  -8   5   1 39186.5 3137.42   4
  -8   5  -1 38107.4 3196.00   4
  -8  -5   1 46120.9 2583.49   1
  -9  -5   1-27.9272 151.091   1
  -9  -5  -1 681.275 370.623   1
  -9   5   1-154.152 330.958   4
  -9   5  -1 670.198 586.559   4
 -10  -5  -1 43391.5 2364.26   1
 -10   5   1 38881.4 3297.29   4
 -10   5  -1 41896.3 3619.37   4
 -10  -5   1 42224.6 2697.43   1
 -11  -5  -1 29485.4 2075.29   1
 -11   5   1 28780.6 2888.20   4
 -11   5  -1 29444.8 3180.87   4
 -11  -5   1 31163.0 2391.79   1
 -12  -5   1 237.366 332.901   1
 -12  -5  -1 940.926 396.444   1
 -12   5   1 918.180 645.269   4
 -12   5  -1 678.227 633.098   4
 -13  -5  -1 10647.9 1407.08   1
 -13  -5   1 8995.14 1408.77   1
 -13   5   1 12863.4 2131.65   4
 -13   5  -1 10018.9 1981.78   4
 -14   5  -1 22282.4 3139.15   4
 -14  -5  -1 24032.5 2154.71   1
 -14   5   1 26183.9 3147.26   4
 -14  -5   1 20927.9 2200.32   1
 -15  -5  -1 2124.25 718.961   1
 -15   5   1 1016.54 897.709   4
 -15   5  -1 3036.79 1302.54   4
 -15  -5   1 1978.34 757.307   1
 -16  -5   1 6118.21 1310.60   1
 -16  -5  -1 6552.56 1234.66   1
 -16   5   1 7143.92 1846.47   4
 -16   5  -1 8334.10 2134.85   4
 -17  -5  -1 7988.59 1477.48   1
 -17  -5   1 6932.99 1373.23   1
 -17   5   1 9620.64 2268.99   4
 -17   5  -1 11023.3 2472.39   4
 -18  -5   1 1034.07 423.354   1
 -18  -5  -1 1236.50 690.941   1
 -18   5   1-301.366 780.138   4
 -19  -5  -1 2711.18 972.283   1
 -19   5   1 5795.09 1830.13   4
 -19  -5   1 3409.05 1081.86   1
   0  -5  -2 563.514 190.950   2
   0  -5   2 129.497 155.604   3
   0  -5  -2 483.828 205.606   3
   0   5  -2 318.141 174.580   5
   1  -5  -2 30364.2 1503.39   3
   1   5  -2 30880.0 1437.69   5
  -1   5  -2 29126.5 1507.46   5
   1  -5  -2 32659.7 1391.93   2
  -1  -5  -2 29938.9 1271.88   2
  -1  -5  -2 29251.8 1478.92   3
  -1  -5   2 30842.4 1787.88   3
   1  -5   2 31971.0 1763.11   3
   2  -5   2 172221. 4431.36   3
   2  -5  -2 178798. 4063.68   3
   2   5  -2 177114. 3596.76   5
  -2  -5  -2 174046. 2784.99   5
  -2  -5  -2 177867. 3404.11   2
  -2  -5  -2 168771. 3983.93   3
  -2  -5   2 170037. 4538.14   3
   3  -5   2 23826.7 1604.98   3
   3  -5  -2 27862.8 1575.48   3
   3   5  -2 26657.1 1241.66   5
   3  -5   2 21788.2 640.835   2
  -3   5  -2 22921.1 2104.32   4
  -3  -5   2 25692.3 1731.49   3
   3   5  -2 23396.5 817.959   2
  -3  -5  -2 21302.6 1105.03   2
  -3   5  -2 24562.0 1490.49   5
  -3  -5  -2 21360.1 650.560   5
   4  -5   2 1509.43 440.933   3
   4  -5  -2 1652.68 467.127   3
   4  -5   2 2022.90 241.429   2
  -4   5  -2 1839.54 674.659   4
   5  -5   2 11700.2 1195.83   3
   5  -5  -2 15985.3 1335.53   3
  -5   5  -2 11374.3 1607.74   4
  -6  -5   2 210.814 167.069   1
   6  -5   2 847.321 369.972   3
  -6  -5  -2 1579.51 326.376   1
  -6   5  -2 488.199 492.520   4
  -7  -5  -2 7092.88 711.645   1
   7  -5   2 6675.08 982.050   3
  -7  -5   2 6530.35 1017.36   1
  -7   5  -2 7529.47 1404.36   4
   8  -5   2 11972.2 1349.22   3
  -8  -5   2 10373.7 1330.12   1
  -8   5  -2 10731.3 1767.58   4
  -8  -5  -2 12890.1 1056.05   1
   9  -5   2 365.951 272.455   3
  -9   5   2 1339.38 610.543   4
  -9   5  -2-347.207 379.390   4
  -9  -5  -2 893.444 334.119   1
  -9  -5   2 265.705 338.145   1
 -10  -5  -2 13841.3 1268.10   1
 -10   5   2 11233.3 1769.93   4
 -10  -5   2 11651.8 1533.84   1
 -10   5  -2 11806.5 2023.13   4
 -11  -5  -2 1937.15 529.006   1
 -11  -5   2 2159.21 725.504   1
 -11   5   2 2683.64 909.443   4
 -11   5  -2 2832.76 1044.88   4
 -12  -5   2 1585.24 639.557   1
 -12  -5  -2 1742.05 571.708   1
 -12   5   2 1511.98 754.563   4
 -12   5  -2 1314.77 757.332   4
 -13   5   2 477.985 479.427   4
 -13   5  -2 862.767 681.669   4
 -13  -5   2 44.5988 332.603   1
 -13  -5  -2 1070.45 449.216   1
 -14   5   2 1029.86 618.250   4
 -14  -5   2 1135.85 606.476   1
 -14  -5  -2 507.298 305.407   1
 -14   5  -2 337.858 677.984   4
 -15  -5  -2 16695.6 1779.22   1
 -15   5   2 17029.2 2585.00   4
 -15   5  -2 14530.3 2756.14   4
 -15  -5   2 11972.9 1780.27   1
 -16   5  -2 38461.9 4621.37   4
 -16  -5   2 39404.8 3383.55   1
 -17   5   2 4909.97 1454.85   4
 -17   5  -2 7148.05 2051.17   4
 -17  -5   2 4287.66 1074.79   1
 -18  -5   2 24.4192 355.334   1
 -18   5   2 8.96897 603.348   4
   0  -5  -3 29159.3 1467.10   2
   0   5  -3 28106.1 1564.55   5
   0  -5   3 29726.1 1803.04   3
   0  -5  -3 29321.5 1405.54   3
  -1  -5  -3 52052.0 1962.92   2
   1   5  -3 52290.3 2090.33   5
  -1   5  -3 53465.2 2226.38   5
   1  -5  -3 47454.2 1960.21   2
  -1   5  -3 53551.8 3058.86   4
  -1  -5  -3 46714.4 1807.29   3
  -1  -5   3 45036.2 2260.43   3
   1  -5   3 48773.0 2307.71   3
   1  -5  -3 43938.0 1749.97   3
  -2  -5  -3 369.548 160.110   2
   2  -5   3-27.8401 220.953   3
  -2   5  -3 221.445 128.264   5
  -2   5  -3-185.726 198.223   4
   3  -5   3 25646.8 1715.05   3
   3  -5  -3 22063.3 1356.43   3
  -3   5  -3 25544.0 2266.39   4
  -3  -5  -3 22680.2 1294.13   2
  -3  -5   3 20836.8 1634.25   3
   4  -5   3 4230.26 736.955   3
   4  -5  -3 4037.96 601.832   3
  -4   5  -3 4172.39 684.512   5
  -4   5  -3 3945.13 967.785   4
   4  -5   3 4115.82 389.923   2
  -4  -5  -3 4353.32 575.386   2
   5  -5   3 31606.0 1992.32   3
  -5   5  -3 34337.8 1973.61   5
  -5   5  -3 33366.2 2797.22   4
  -5   5   3 31772.4 1490.91   1
  -5  -5  -3 30976.3 1603.06   2
   6  -5   3 21484.0 1695.93   3
  -6   5  -3 17030.5 2124.81   4
  -6   5   3 19776.4 1323.87   1
  -7   5   3 3693.77 635.863   1
   7  -5   3 4351.57 782.015   3
  -7   5  -3 3672.13 1004.96   4
   8  -5   3 64709.6 3205.47   3
  -8   5   3 58544.6 2750.74   1
  -8  -5   3 56126.8 3320.32   1
  -8   5  -3 62573.8 4383.53   4
  -9   5   3 1228.76 447.109   1
   9  -5   3-50.9029 439.459   3
  -9   5   3 183.361 268.604   4
  -9  -5   3-127.171 405.593   1
  -9   5  -3 1446.24 837.705   4
  10  -5   3 56302.7 3204.60   3
 -10   5   3 52095.0 2931.35   1
 -10   5   3 61494.7 4022.23   4
 -10  -5   3 54178.2 3417.75   1
 -10   5  -3 51134.0 4353.52   4
  11  -5   3 165.241 346.662   3
 -11   5   3 303.324 290.252   1
 -11   5   3 424.748 415.876   4
 -11   5  -3-307.228 676.123   4
 -11  -5   3 558.282 376.804   1
 -12  -5   3 6582.74 1293.98   1
 -12   5   3 7927.82 1530.62   4
 -12   5  -3 5937.46 1631.25   4
 -12   5   3 6305.25 1155.49   1
 -13   5   3 25414.3 2788.81   4
 -13   5  -3 22741.2 3381.28   4
 -13   5   3 20575.4 2157.14   1
 -13  -5   3 20110.8 2310.15   1
 -14  -5   3 5230.96 1212.50   1
 -14   5   3 3686.49 930.307   1
 -14   5   3 6151.89 1456.87   4
 -14   5  -3 5160.71 1691.05   4
 -15   5   3 4293.41 1051.27   1
 -15  -5   3 3120.42 946.393   1
 -15   5   3 5280.34 1403.30   4
 -15   5  -3 4297.27 1579.76   4
 -16  -5   3 558.592 519.015   1
 -16   5   3 258.383 655.902   1
 -16   5   3 265.810 408.529   4
 -17  -5   3 20471.1 2571.19   1
 -18  -5   3 8910.38 1702.36   1
   0  -5  -4 370.264 227.067   2
   0   5  -4 294.768 95.4517   2
   0  -5  -4 194.782 139.963   3
   0   5  -4 513.092 337.497   4
  -1  -5  -4 3358.30 569.054   2
  -1  -5  -4 1992.50 345.431   3
  -1  -5   4 2301.91 514.901   3
   1  -5   4 3736.90 678.768   3
   1  -5  -4 2327.97 384.874   3
   1   5  -4 2318.37 279.207   2
   1   5  -4 2152.58 610.548   4
  -1   5  -4 3317.06 796.543   4
  -1   5  -4 3061.23 581.992   5
   1  -5  -4 2109.53 461.874   2
  -2   5   4 355.120 108.623   1
  -2  -5  -4 418.515 228.848   2
  -2  -5   4 177.028 190.141   3
   2  -5   4 163.761 187.754   3
   2  -5  -4 222.971 162.988   3
  -2   5  -4 572.075 314.225   5
   2   5  -4 665.845 172.269   2
   2   5  -4 101.398 285.053   4
   3  -5  -4 9834.95 883.639   3
  -3   5   4 9191.15 644.995   1
  -3   5  -4 10682.3 1108.03   5
   3   5  -4 9206.47 1076.79   4
  -3   5  -4 12205.3 1606.57   4
  -3  -5  -4 11927.9 1027.93   2
   3  -5   4 12745.5 1214.85   3
   4  -5   4 66614.1 2908.04   3
  -4   5   4 65859.3 2100.35   1
   4  -5  -4 64754.4 2475.87   3
  -4   5  -4 73357.3 3018.96   5
  -4   5  -4 65625.0 3943.20   4
  -4  -5  -4 68311.8 2587.71   2
   5  -5   4 43462.1 2388.24   3
  -5   5   4 45021.6 1950.44   1
  -5   5  -4 44139.8 2343.57   5
  -5   5  -4 45655.0 3469.41   4
  -5  -5  -4 43263.9 2092.36   2
  -6   5   4 5300.74 716.582   1
   6  -5   4 5534.14 885.498   3
  -6   5  -4 6479.86 935.297   5
  -6   5  -4 6922.12 1438.52   4
  -6  -5  -4 7460.36 891.938   2
  -7   5   4 7181.21 944.757   1
   7  -5   4 6297.32 986.362   3
  -7   5  -4 5660.88 911.084   5
  -7   5  -4 5053.29 1287.04   4
  -8   5   4 5946.96 909.851   1
   8  -5   4 6586.53 1049.97   3
  -8   5  -4 6188.33 1552.44   4
   9  -5   4 68922.0 3455.49   3
  -9   5   4 70171.6 3372.22   1
  -9  -5   4 68182.4 3934.97   1
  -9   5  -4 64948.3 4954.64   4
  10  -5   4 532.899 356.390   3
 -10   5   4 2213.06 707.676   1
 -10  -5   4 1683.80 635.715   1
 -10   5   4 1407.05 613.872   4
 -10   5  -4 877.706 608.169   4
  11  -5   4 1042.40 570.820   3
 -11   5   4 1114.34 622.927   4
 -11  -5   4 62.7130 310.066   1
 -11   5   4 529.025 425.972   1
 -11   5  -4 1176.54 721.528   4
  12  -5   4 2620.05 724.930   3
 -12   5   4 4045.34 1105.35   4
 -12   5  -4 2515.33 1132.41   4
 -12  -5   4 3395.12 958.960   1
 -12   5   4 3681.21 920.495   1
  13  -5   4 30325.6 2650.92   3
 -13   5   4 28604.9 2622.45   1
 -13   5   4 35467.5 3208.52   4
 -13  -5   4 30415.3 2949.72   1
 -13   5  -4 33376.4 4150.78   4
  14  -5   4 15666.1 1960.60   3
 -14   5   4 16724.6 2087.92   1
 -14   5   4 20128.6 2528.37   4
 -14  -5   4 16637.8 2239.93   1
 -14   5  -4 19752.2 3379.10   4
 -15  -5   4 4075.95 1198.99   1
  15  -5   4 2928.64 873.954   3
 -15   5   4 1919.97 828.575   1
 -15   5   4 4821.61 1268.10   4
 -16  -5   4 436.321 480.034   1
 -16   5   4 941.254 555.748   1
 -17   5   4 1667.53 764.561   1
 -17  -5   4 4341.75 1189.77   1
 -18   5   4 281.684 633.694   1
   0  -5  -5 234.961 174.965   2
   0   5  -5 681.469 185.725   2
   0  -5  -5 357.878 140.365   3
   0  -5   5 770.088 352.074   3
   0   5   5 405.444 119.077   1
   0   5  -5 923.956 401.864   4
  -1  -5   5 6076.59 897.273   3
   1  -5  -5 7720.94 969.346   2
   1   5  -5 8076.95 680.435   2
   1   5  -5 6896.90 1025.13   4
  -1  -5  -5 9989.87 1052.32   2
  -1   5  -5 11853.8 1498.66   4
  -1   5   5 6837.59 559.085   1
  -1   5  -5 9436.52 704.770   2
   1  -5   5 8317.20 1019.54   3
   1  -5  -5 6655.86 567.423   3
   2  -5  -5 31136.0 1382.70   3
  -2   5  -5 32004.0 2032.09   5
   2   5  -5 31649.7 1444.47   2
   2   5  -5 31200.3 2050.29   4
  -2   5  -5 32451.9 2596.93   4
  -2  -5  -5 33014.4 1923.56   2
  -2   5   5 27999.9 1304.23   1
  -2  -5   5 31597.7 2077.94   3
  -2   5  -5 31468.6 1338.42   2
   2  -5   5 33032.0 2023.03   3
   3  -5  -5 21980.8 1273.90   3
  -3   5  -5 21377.7 1666.52   5
   3   5  -5 23828.3 1706.39   4
  -3   5  -5 26377.5 2449.55   4
  -3  -5  -5 22922.9 1581.77   2
  -3   5   5 22344.4 1291.60   1
   3  -5   5 21876.5 1630.05   3
   4  -5  -5 5827.61 707.953   3
   4  -5   5 6132.15 899.337   3
  -4   5  -5 6629.52 959.498   5
   4   5  -5 7132.23 855.047   4
  -4  -5  -5 6511.06 856.171   2
  -4   5  -5 5148.55 1127.96   4
  -4   5   5 5679.32 709.842   1
  -5  -5  -5 436.511 167.879   2
   5  -5   5 569.534 336.626   3
  -5   5  -5 417.635 315.363   5
  -5   5   5 890.768 383.374   1
  -5   5  -5 1429.92 570.814   4
   6  -5   5 60297.1 2953.34   3
  -6   5  -5 53837.9 2864.28   5
  -6   5  -5 50346.1 3963.69   4
  -6  -5  -5 54997.9 2595.08   2
  -6   5   5 51933.4 2572.28   1
   7  -5   5 45883.9 2650.05   3
  -7   5  -5 44762.8 2638.68   5
  -7   5  -5 43593.4 3883.99   4
  -7  -5  -5 42503.2 2347.32   2
  -7   5   5 42545.8 2481.89   1
   8  -5   5 561.908 412.668   3
  -8   5  -5 978.699 423.093   5
  -8   5  -5-337.042 498.794   4
  -8   5   5 901.367 406.650   1
   9  -5   5 1219.01 510.164   3
  -9   5  -5 967.757 437.970   5
  -9   5  -5 1746.16 954.254   4
  -9   5   5 1001.50 470.476   1
 -10   5   5 378.063 330.086   1
  10  -5   5 1522.79 617.483   3
 -10  -5   5 598.125 468.234   1
 -10   5  -5 890.279 811.187   4
  11  -5   5 28288.2 2370.97   3
 -11   5   5 30094.0 2546.13   1
 -11  -5   5 27893.6 2757.02   1
 -11   5   5 34989.1 3008.71   4
 -11   5  -5 34381.6 4071.94   4
  12  -5   5 36588.7 2791.32   3
 -12   5   5 30993.6 2703.55   1
 -12  -5   5 34419.1 3109.31   1
 -12   5  -5 36705.1 4356.65   4
  13  -5   5 715.552 546.113   3
 -13   5   5 819.028 561.903   1
 -13   5   5 866.633 514.964   4
 -13  -5   5 946.843 463.001   1
  14  -5   5 2623.12 813.409   3
 -14   5   5 3142.16 1016.83   1
 -14  -5   5 2502.21 952.365   1
 -15  -5   5 5121.22 1374.32   1
  15  -5   5 5950.24 1283.58   3
 -15   5   5 4394.02 1136.87   1
  16  -5   5 19346.2 2348.56   3
 -16   5   5 18382.1 2425.83   1
 -16  -5   5 18958.1 2573.41   1
   0  -5  -6 285.568 240.473   2
   0   5  -6 127.921 132.145   2
   0  -5   6 199.588 243.117   3
   0   5  -6 756.731 346.130   4
   1  -5  -6 53360.7 2794.27   2
   1   5  -6 52827.4 2055.04   2
  -1  -5  -6 53127.0 2700.50   2
   1   5  -6 49394.4 2888.04   4
  -1   5  -6 49065.3 3187.40   4
  -1   5  -6 55898.0 2015.26   2
  -1  -5   6 50628.2 2697.66   3
   1  -5   6 53766.7 2681.19   3
  -2  -5  -6 2140.94 546.370   2
   2  -5   6 2422.01 605.980   3
  -2   5  -6 2582.99 441.518   2
   2  -5  -6 1844.15 506.375   2
   2   5  -6 2014.78 583.562   4
  -2   5  -6 2114.11 737.624   4
  -2  -5   6 1606.35 540.875   3
   2   5  -6 2913.54 485.428   2
  -3   5  -6 61754.5 3109.57   5
   3   5  -6 66838.7 2931.19   4
  -3   5  -6 63645.2 4053.63   4
  -3  -5  -6 65276.3 2953.15   2
  -3   5  -6 63009.4 2283.12   2
   3  -5   6 62893.5 2935.90   3
   4  -5  -6 8284.77 806.360   3
  -4   5  -6 7951.11 1129.62   5
  -4  -5  -6 7573.14 995.343   2
  -4   5  -6 6820.40 1380.34   4
   4  -5   6 7561.29 1022.17   3
  -5   5   6 2784.21 629.308   1
  -5  -5  -6 2543.04 585.832   2
   5  -5   6 2377.55 561.745   3
  -5   5  -6 3414.19 745.183   5
  -5   5  -6 2279.86 891.050   4
   6  -5   6 19092.5 1686.84   3
  -6   5  -6 18402.0 1762.48   5
  -6   5  -6 18257.7 2476.98   4
  -6   5   6 18935.0 1705.53   1
  -6  -5  -6 18142.4 1607.92   2
   7  -5   6 7594.28 1074.02   3
  -7   5   6 6726.06 1065.63   1
  -7   5  -6 7879.80 1178.32   5
  -7   5  -6 8641.61 1848.11   4
  -7  -5  -6 6701.57 982.249   2
   8  -5   6 3025.54 661.880   3
  -8  -5  -6 4318.39 821.044   2
  -8   5  -6 4079.27 856.267   5
  -8   5   6 4445.91 941.580   1
  -8   5  -6 3778.43 1177.85   4
   9  -5   6 1638.09 562.873   3
  -9   5  -6 996.187 434.541   5
  -9   5   6 1095.04 516.625   1
  -9   5  -6 782.497 715.248   4
  10  -5   6 6791.48 1118.39   3
 -10  -5   6 7484.99 1480.94   1
 -10   5  -6 7453.60 1200.43   5
 -10   5   6 7686.04 1314.30   1
 -10   5  -6 7288.62 2014.88   4
  11  -5   6 6437.64 1173.40   3
 -11  -5   6 7540.84 1483.26   1
 -11   5   6 8210.79 1439.90   4
  12  -5   6 15794.9 1833.95   3
 -12  -5   6 12526.3 2000.43   1
  13  -5   6-109.731 486.612   3
 -13  -5   6 348.971 497.743   1
  14  -5   6 1909.49 748.567   3
 -14  -5   6 2254.69 936.489   1
  15  -5   6 21273.4 2364.34   3
 -15  -5   6 23467.6 2931.61   1
 -16  -5   6 1355.75 934.666   1
  16  -5   6-1158.97 793.641   3
   0  -5  -7 126784. 4634.91   2
   0   5  -7 118633. 5007.93   4
   0  -5   7 119530. 4242.70   3
   1   5  -7 861.990 322.310   2
  -1  -5  -7 1115.32 429.448   2
  -1  -5   7 1060.12 460.105   3
  -1   5  -7 759.077 246.828   2
   1  -5   7 1479.03 441.933   3
  -1   5  -7 1060.44 469.720   4
   1   5  -7 1119.67 489.265   4
   1  -5  -7 1605.99 516.451   2
   2   5  -7 1328.11 364.971   2
  -2  -5  -7 1766.13 555.797   2
   2  -5   7 2386.65 575.374   3
  -2   5  -7 1211.30 342.689   2
  -2   5  -7 1765.80 704.441   4
   2  -5  -7 1744.50 531.986   2
  -3  -5  -7 3878.45 792.292   2
   3  -5   7 3634.58 731.538   3
  -3   5  -7 2800.61 539.646   2
   3   5  -7 1941.91 476.961   2
  -3   5  -7 2716.33 940.653   4
  -4   5  -7 28213.1 2260.30   5
  -4   5  -7 23971.9 2706.07   4
  -4  -5  -7 26779.0 2029.44   2
   4  -5   7 27332.2 2000.68   3
  -5  -5  -7 195.725 186.788   2
   5  -5   7-180.743 338.541   3
  -5   5  -7 128.633 306.470   5
  -5   5  -7-204.615 384.815   4
  -6  -5  -7 554.033 356.992   2
  -6   5  -7 607.115 333.804   5
  -6   5  -7-369.709 424.953   4
   7  -5   7 13700.8 1475.26   3
  -7   5  -7 11727.9 1495.22   5
  -7  -5  -7 13089.1 1501.86   2
   8  -5   7 5474.21 989.267   3
  -8  -5  -7 5646.71 1037.18   2
  -8   5  -7 6614.87 1199.54   5
   9  -5   7 1294.61 549.416   3
  -9   5  -7 2517.27 730.527   5
  10  -5   7 8725.42 1334.85   3
 -10   5  -7 9056.98 1391.59   5
  11  -5   7 9559.62 1396.73   3
 -11  -5   7 12930.5 2018.80   1
 -11   5  -7 10403.6 1524.31   5
  12  -5   7 2448.50 751.046   3
 -12  -5   7 2432.05 892.616   1
  13  -5   7 461.207 332.620   3
 -13  -5   7 2075.88 835.242   1
  14  -5   7 7015.63 1335.28   3
 -14  -5   7 11205.6 1982.35   1
  15  -5   7 1488.89 687.128   3
   0  -5  -8 55.5778 195.412   2
   0  -5   8 14.4817 235.451   3
   1  -5  -8 19.1149 373.439   2
  -1  -5  -8-35.7897 316.888   2
   1  -5   8 17.2066 201.525   3
  -2  -5  -8 182.560 302.736   2
   2  -5   8 532.551 363.612   3
   2  -5  -8 310.502 248.469   2
   3  -5  -8 12724.7 1638.90   2
  -3  -5  -8 13604.5 1583.31   2
   3  -5   8 13672.6 1445.08   3
  -4  -5  -8-161.336 267.571   2
   4  -5   8 73.6515 296.631   3
  -4   5  -8 207.474 225.421   5
  -5   5  -8 15436.5 1796.76   5
  -5  -5  -8 12809.7 1517.07   2
   5  -5   8 12692.5 1403.95   3
  -6   5  -8 38724.2 2865.66   5
  -6  -5  -8 36008.0 2589.05   2
   6  -5   8 35039.5 2381.50   3
  -7  -5  -8 5962.86 1046.35   2
   7  -5   8 5754.33 1018.47   3
  -7   5  -8 7214.46 1255.18   5
  -8   5  -8 20998.7 2135.24   5
  -8  -5  -8 18110.5 1876.39   2
   8  -5   8 19185.7 1814.03   3
   9  -5   8 24372.1 2107.43   3
  -9   5  -8 26320.1 2456.69   5
  -9  -5  -8 22885.0 2178.58   2
  10  -5   8 20267.5 2008.21   3
 -10   5  -8 18258.8 2092.33   5
  11  -5   8-72.9754 264.430   3
 -11   5  -8 769.935 452.703   5
  12  -5   8 22466.5 2215.97   3
 -12   5  -8 21562.9 2343.07   5
  13  -5   8 10341.4 1607.73   3
 -13  -5   8 10562.7 1965.83   1
  14  -5   8 739.513 576.057   3
   0  -5  -9 14648.4 1773.86   2
   1  -5  -9 3177.83 845.021   2
  -1  -5  -9 5880.83 1127.50   2
   1  -5   9 4713.45 916.394   3
   2  -5  -9 22531.8 2295.33   2
  -2  -5  -9 19518.5 2022.78   2
   2  -5   9 17663.7 1688.47   3
  -3  -5  -9 170.175 301.874   2
   3  -5   9 344.891 349.994   3
   3  -5  -9 65.2026 366.079   2
  -4  -5  -9 1477.46 539.343   2
   4  -5   9 2110.42 609.046   3
   4  -5  -9 946.262 506.391   2
  -4   5  -9 2164.16 742.440   5
  -5  -5  -9 7005.50 1196.53   2
   5  -5   9 6533.33 1046.49   3
  -5   5  -9 7820.66 1385.33   5
  -6   5  -9 34956.5 2911.45   5
  -6  -5  -9 35858.9 2743.17   2
   6  -5   9 37192.7 2537.98   3
   7  -5   9 748.174 341.487   3
  -7  -5  -9 968.860 532.445   2
  -7   5  -9 762.205 486.947   5
   8  -5   9 2333.60 706.707   3
  -8  -5  -9 1626.62 582.275   2
  -8   5  -9 2820.67 903.047   5
   9  -5   9-315.336 371.829   3
  -9  -5  -9 319.555 408.841   2
  -9   5  -9-71.7259 355.561   5
  10  -5   9 2039.57 663.497   3
 -10   5  -9 1976.15 737.550   5
  11  -5   9 3395.41 849.168   3
 -11   5  -9 2429.81 830.652   5
  12  -5   9 18134.9 2011.58   3
  13  -5   9 5771.22 1217.70   3
   0  -5 -10 1666.69 690.290   2
   1  -5 -10 603.134 535.800   2
  -1  -5 -10-25.7913 267.292   2
   2  -5 -10 17431.2 2145.36   2
  -2  -5 -10 16366.2 1995.07   2
   2  -5  10 15803.8 1684.48   3
  -3  -5 -10 693.507 285.762   2
   3  -5  10 1235.72 535.073   3
  -4  -5 -10 12840.5 1760.14   2
   4  -5  10 11425.5 1448.95   3
   4  -5 -10 11020.1 1768.75   2
   5  -5  10 2022.23 640.953   3
  -5  -5 -10 1730.66 665.235   2
   5  -5 -10 1625.42 628.956   2
  -5   5 -10 2267.79 789.340   5
  -6   5 -10 26254.4 2642.73   5
  -6  -5 -10 25372.0 2459.84   2
   6  -5  10 26058.0 2162.94   3
   7  -5  10 845.218 456.646   3
  -7  -5 -10 1149.95 627.760   2
  -7   5 -10 506.557 393.252   5
   8  -5  10 804.631 347.069   3
  -8  -5 -10 365.269 332.209   2
  -8   5 -10 476.809 479.573   5
  -9   5 -10 12092.6 1855.30   5
  -9  -5 -10 11406.5 1731.24   2
   9  -5  10 10911.3 1473.62   3
 -10  -5 -10 1270.57 669.301   2
   0  -5 -11 41161.2 3446.26   2
   1  -5 -11 14516.2 2072.68   2
  -1  -5 -11 15577.8 2076.41   2
   2  -5 -11 3596.04 1033.45   2
  -2  -5 -11 3785.67 1041.29   2
   3  -5 -11 2562.28 851.780   2
  -3  -5 -11 3686.11 1017.44   2
   3  -5  11 2975.06 778.096   3
  -4  -5 -11 6503.02 1319.96   2
   4  -5 -11 5754.23 1292.91   2
  -5  -5 -11 7389.88 1403.29   2
  -5   5 -11 8785.55 1629.66   5
   5  -5 -11 6900.80 1502.20   2
  -6  -5 -11 4228.72 1104.81   2
  -6   5 -11 4039.88 1017.22   5
   6  -5 -11 4457.03 1187.69   2
  -7  -5 -11 3570.34 1011.40   2
   0  -6   0 13353.3 1197.07   3
  -1  -6   0 208.527 184.263   3
   1  -6   0 150.837 186.460   3
   2  -6   0 104589. 3547.83   3
  -2  -6   0 112674. 2712.80   1
   2  -6   0 111218. 1520.01   2
  -2  -6   0 110651. 3675.77   3
   3  -6   0 1174.27 478.189   3
  -3  -6   0 1114.83 287.504   1
  -3  -6   0 858.416 422.287   3
   4  -6   0 355892. 7330.65   3
  -4  -6   0 358360. 5953.48   1
  -5  -6   0 212.381 200.990   1
   5  -6   0 466.195 398.183   3
   6  -6   0 75030.7 3370.90   3
  -6  -6   0 76913.0 2781.42   1
  -7  -6   0 263.580 276.703   1
   7  -6   0 644.507 397.799   3
  -7   6   0 580.536 343.585   4
   8  -6   0 120898. 4685.17   3
  -8   6   0 120302. 5952.44   4
  -8  -6   0 123985. 3930.12   1
   9  -6   0-413.280 387.934   3
  -9  -6   0 795.393 407.590   1
  -9   6   0-118.656 536.043   4
 -10   6   0 142329. 6842.62   4
 -10  -6   0 161041. 5053.31   1
 -11   6   0-76.6117 553.697   4
 -11  -6   0 118.440 236.130   1
 -12  -6   0 28426.7 2271.00   1
 -12   6   0 31139.9 3392.60   4
 -13  -6   0 843.495 437.634   1
 -13   6   0 1660.63 1014.62   4
 -14  -6   0 119793. 5091.22   1
 -14   6   0 114122. 6990.86   4
 -15  -6   0 272.777 332.920   1
 -15   6   0 517.724 791.888   4
 -16  -6   0 64118.0 4001.02   1
 -16   6   0 68467.1 5852.96   4
 -17   6   0 396.836 692.059   4
   0  -6  -1 338.125 113.876   2
   0  -6   1 317.593 301.238   3
   0  -6  -1 471.330 287.406   3
   1  -6  -1 47891.5 1321.61   2
  -1  -6  -1 45229.1 2189.70   3
  -1  -6  -1 48542.1 1334.56   2
  -1  -6   1 45569.0 2336.19   3
   1  -6   1 45969.2 2317.59   3
   1  -6  -1 41603.7 2068.03   3
  -2  -6  -1 3283.13 623.184   3
  -2  -6   1 3009.07 620.031   3
   2  -6   1 3707.44 685.198   3
   2  -6  -1 4043.18 695.692   3
   2  -6  -1 2868.14 336.391   2
   3  -6  -1 300174. 6346.92   3
  -3  -6  -1 287649. 3714.66   1
  -3  -6   1 291734. 6696.32   3
   4  -6   1 1163.48 459.838   3
  -4  -6   1 581.324 342.819   1
   4  -6  -1 484.123 342.143   3
  -4  -6  -1 679.295 171.785   1
  -5  -6  -1 109938. 2586.25   1
   5  -6   1 114773. 4078.11   3
  -5  -6   1 106257. 3599.65   1
  -5   6  -1 104236. 5191.91   4
  -6  -6  -1 51546.0 1916.38   1
   6  -6   1 54235.7 2884.66   3
   6  -6  -1 48076.3 2675.80   3
  -6   6  -1 48636.6 3617.11   4
  -6  -6   1 48227.3 2450.30   1
  -7  -6  -1 61926.4 2302.27   1
   7  -6   1 61118.4 3184.89   3
   7  -6  -1 58541.3 3088.69   3
  -7   6  -1 56123.2 3987.68   4
  -7  -6   1 59657.3 2886.83   1
   8  -6   1 23740.6 2052.84   3
  -8  -6  -1 26728.9 1612.99   1
   8  -6  -1 23531.7 2021.54   3
  -8   6   1 25780.7 2666.47   4
  -8   6  -1 22119.9 2603.39   4
  -8  -6   1 27483.3 2021.50   1
   9  -6   1 136391. 5233.24   3
  -9  -6  -1 147987. 4206.41   1
  -9   6   1 136572. 6467.06   4
  -9   6  -1 130253. 6494.98   4
  -9  -6   1 145710. 4971.99   1
  10  -6   1 19114.0 1983.99   3
 -10  -6  -1 21860.2 1670.25   1
 -10   6   1 19981.6 2534.31   4
 -10   6  -1 22000.1 2743.20   4
 -10  -6   1 19196.5 1838.75   1
  11  -6   1 36210.1 2838.72   3
 -11  -6  -1 33505.2 2193.63   1
 -11   6   1 35622.9 3414.87   4
 -11   6  -1 34882.7 3563.14   4
 -11  -6   1 37461.9 2629.11   1
 -12  -6  -1 27142.5 2107.40   1
 -12   6   1 33705.3 3436.77   4
 -12   6  -1 30141.6 3439.17   4
 -12  -6   1 22018.1 2091.84   1
 -13  -6  -1 54813.9 3113.19   1
 -13   6   1 58868.3 4683.39   4
 -13   6  -1 52382.3 4694.68   4
 -14  -6  -1 800.669 494.028   1
 -14   6   1 1683.40 910.939   4
 -14   6  -1 666.687 622.578   4
 -14  -6   1 683.925 535.688   1
 -15  -6   1 129957. 5793.04   1
 -15   6   1 141232. 7823.63   4
 -15   6  -1 123676. 7892.06   4
 -16  -6   1 2010.57 773.022   1
 -16   6   1 3817.84 1407.12   4
 -16   6  -1 3116.96 1455.66   4
 -17  -6   1 22605.9 2538.57   1
 -17   6   1 22808.2 3370.82   4
 -17   6  -1 19929.8 3381.39   4
 -18  -6   1 59.6705 323.656   1
 -18   6   1 1324.52 1025.82   4
   0   6  -2 192588. 4302.45   5
   0  -6  -2 186460. 3541.09   2
   0  -6   2 189246. 5051.62   3
   0  -6  -2 179161. 4401.24   3
   1  -6  -2 954.630 240.023   2
  -1  -6  -2 400.052 212.542   3
  -1  -6  -2 580.286 187.852   2
  -1  -6   2 51.4105 273.831   3
   1  -6   2 315.077 264.291   3
   1  -6  -2 628.504 292.609   3
   1   6  -2 562.561 266.107   5
  -1   6  -2 706.911 270.624   5
   2  -6  -2 284530. 5877.76   3
   2   6  -2 315730. 5327.35   5
   2  -6  -2 302263. 5068.23   2
  -2  -6  -2 284466. 4706.53   2
  -2  -6  -2 275293. 5852.13   3
  -2  -6   2 294485. 6648.35   3
   2  -6   2 281021. 6342.00   3
  -3  -6   2 3077.72 684.421   3
   3  -6   2 5460.13 842.514   3
   3  -6  -2 4118.83 698.180   3
   3   6  -2 3970.31 525.611   5
  -3   6  -2 4657.56 1071.25   4
  -3  -6  -2 4582.15 532.913   2
   4  -6   2 116163. 4094.33   3
   4  -6  -2 108784. 3685.79   3
   4   6  -2 109491. 2720.58   5
  -4   6  -2 108217. 5207.53   4
   5   6  -2 3823.15 451.589   5
   5  -6   2 4449.80 833.261   3
   5  -6  -2 3593.74 694.571   3
  -5   6  -2 4516.66 1093.06   4
   6  -6   2 3845.01 775.730   3
   6  -6  -2 3617.31 730.270   3
  -6  -6   2 2915.38 686.421   1
  -6   6  -2 2631.97 856.570   4
   7  -6   2 16241.0 1637.76   3
   7  -6  -2 16823.1 1636.19   3
  -7  -6   2 17960.4 1718.40   1
  -7   6  -2 15563.2 2130.44   4
   8  -6   2 134158. 4906.16   3
  -8  -6   2 124437. 4676.42   1
  -8   6  -2 118780. 6104.67   4
   9  -6   2 1477.67 622.106   3
  -9   6   2 1926.09 781.871   4
  -9   6  -2 681.929 529.165   4
  -9  -6  -2 849.217 321.928   1
  -9  -6   2 2218.44 648.762   1
  10  -6   2 151811. 5751.18   3
 -10   6   2 157185. 6991.25   4
 -10   6  -2 154767. 7552.76   4
 -10  -6   2 156911. 5739.09   1
  11  -6   2 19919.2 2115.04   3
 -11   6   2 19349.2 2492.36   4
 -11   6  -2 21104.2 2854.04   4
 -11  -6   2 21515.4 2156.25   1
 -12  -6   2 5901.66 1231.11   1
  12  -6   2 5793.53 1211.54   3
 -12   6   2 5470.52 1370.20   4
 -12   6  -2 5397.69 1542.06   4
 -13  -6   2 1279.92 642.180   1
  13  -6   2 542.351 320.552   3
 -13   6   2 1457.98 832.670   4
 -13   6  -2-74.4117 413.278   4
 -14   6   2 44377.7 4089.62   4
 -14   6  -2 36182.0 4238.37   4
 -14  -6   2 42808.6 3300.77   1
 -15  -6   2 5268.85 1225.95   1
 -15   6   2 5746.38 1532.45   4
 -15   6  -2 5280.17 1795.32   4
 -16   6   2 115158. 7097.66   4
 -16   6  -2 117225. 8257.52   4
 -16  -6   2 106857. 5677.44   1
 -17  -6   2 1492.57 748.881   1
 -17   6   2 302.779 621.648   4
 -17   6  -2 817.411 909.908   4
 -18  -6   2 43202.6 3735.07   1
 -18   6   2 53566.1 5259.64   4
   0  -6  -3 135.936 145.344   2
   0  -6   3-159.263 282.681   3
   0  -6  -3 348.962 223.207   3
   0   6  -3 399.825 248.274   5
   1   6  -3 153863. 4017.27   5
  -1   6  -3 160561. 5844.59   4
   1  -6  -3 158347. 3754.40   2
  -1  -6  -3 144003. 3508.26   2
  -1   6  -3 156778. 4229.90   5
  -1  -6  -3 141605. 3749.55   3
  -1  -6   3 158230. 4771.04   3
   1  -6   3 149040. 4577.94   3
   1  -6  -3 155446. 3859.05   3
   2  -6  -3 12959.8 1101.96   3
   2   6  -3 14054.1 1127.96   5
  -2   6  -3 11441.1 1130.97   5
   2  -6  -3 13330.6 1069.98   2
  -2   6  -3 12494.9 1709.40   4
  -2  -6  -3 11697.8 917.395   2
  -2  -6   3 12765.7 1330.12   3
   2  -6   3 10903.9 1194.43   3
   3  -6  -3 147332. 4055.40   3
   3   6  -3 140791. 3682.49   5
  -3   6  -3 141130. 4212.04   5
  -3   6  -3 136220. 5767.04   4
  -3  -6  -3 148820. 3653.85   2
  -3  -6   3 143351. 4702.75   3
   3  -6   3 135016. 4372.23   3
   4  -6   3 36382.9 2258.43   3
   4  -6  -3 33502.6 1969.59   3
   4   6  -3 34560.7 1701.54   5
  -4   6  -3 35002.7 2102.26   5
  -4   6  -3 36676.2 3030.11   4
  -4  -6  -3 37477.1 1779.80   2
   5  -6   3 26660.3 2015.77   3
   5  -6  -3 26174.1 1829.94   3
  -5   6  -3 22769.1 2462.40   4
   6  -6   3 14454.0 1512.06   3
   6  -6  -3 14852.1 1432.98   3
  -6   6  -3 15032.5 2082.17   4
   7  -6   3 69881.0 3432.53   3
   7  -6  -3 65010.3 3234.06   3
  -7  -6   3 65265.9 3547.14   1
  -7   6  -3 62568.3 4403.19   4
   8  -6   3 1017.53 615.356   3
  -8  -6   3 191.037 445.380   1
  -8   6  -3 1307.73 815.178   4
   9  -6   3 255879. 7305.52   3
  -9  -6   3 247512. 7517.02   1
  -9   6  -3 239462. 9472.60   4
 -10   6   3 496.191 612.846   4
  10  -6   3 442.796 565.718   3
 -10   6  -3 247.792 564.735   4
 -10  -6   3 435.737 455.589   1
  11  -6   3 64608.7 3820.21   3
 -11   6   3 64399.1 4464.32   4
 -11   6  -3 58190.8 4989.55   4
 -11  -6   3 59488.7 3797.05   1
  12  -6   3 10478.4 1595.62   3
 -12  -6   3 11086.5 1707.82   1
 -12   6   3 11415.3 1946.27   4
 -12   6  -3 11496.5 2286.45   4
  13  -6   3 13171.5 1844.88   3
 -13   6   3 11950.5 2020.74   4
 -13  -6   3 12699.8 1868.46   1
 -13   6  -3 13524.8 2610.58   4
  14  -6   3 16078.7 2133.47   3
 -14   6   3 17547.1 2505.26   4
 -14  -6   3 15500.8 2142.15   1
 -14   6  -3 10696.8 2425.66   4
  15  -6   3 63358.3 4396.02   3
 -15   6   3 77019.4 5418.11   4
 -15   6  -3 70049.1 6415.51   4
 -15  -6   3 66457.6 4415.17   1
  16  -6   3 2941.50 1004.88   3
 -16  -6   3 3615.84 1073.29   1
 -16   6   3 4411.28 1425.39   4
 -16   6  -3 5847.76 2111.31   4
 -17   6   3 45449.9 4434.90   4
 -17  -6   3 41085.4 3714.08   1
   0  -6   4 5282.85 840.263   3
   0   6  -4 5747.12 795.390   5
   0  -6  -4 6905.70 805.361   2
   0   6  -4 6497.92 1166.47   4
   0  -6  -4 5055.34 612.676   3
   1   6  -4 63296.7 2721.02   5
  -1   6  -4 62559.0 2787.46   5
   1   6  -4 76916.9 3764.70   4
   1  -6  -4 69740.3 2736.18   2
  -1   6  -4 61141.1 3583.33   4
  -1  -6  -4 64213.0 2526.09   2
  -1  -6  -4 55716.1 2178.98   3
  -1  -6   4 67742.1 3134.22   3
   1  -6   4 61888.0 2953.34   3
   1  -6  -4 63164.6 2301.99   3
   2  -6  -4 92389.6 2905.77   3
   2   6  -4 96857.6 3343.78   5
  -2   6  -4 103402. 3691.50   5
   2  -6  -4 100351. 3437.34   2
   2   6  -4 101791. 4263.43   4
  -2   6  -4 96533.4 4703.68   4
  -2  -6  -4 98511.2 3114.25   2
  -2  -6   4 96266.8 3858.24   3
   2  -6   4 93742.6 3669.21   3
   3  -6  -4 30061.4 1714.99   3
  -3   6  -4 30709.3 2011.89   5
  -3   6  -4 27063.8 2553.53   4
  -3  -6  -4 30351.1 1702.71   2
  -3  -6   4 30712.8 2180.19   3
   3  -6   4 27219.7 1951.16   3
  -4   6  -4 168189. 5002.15   5
  -4   6  -4 168904. 6681.65   4
  -4  -6  -4 166919. 4352.77   2
   4  -6   4 168408. 5073.77   3
   5  -6   4 30757.0 2158.00   3
   5  -6  -4 30532.2 1939.71   3
  -5   6  -4 28312.6 2021.67   5
  -5   6  -4 31043.6 2970.20   4
  -5  -6  -4 31247.2 1828.29   2
   6  -6   4 84388.2 3745.38   3
   6  -6  -4 72165.9 3213.60   3
  -6   6  -4 84446.1 3617.48   5
  -6   6  -4 75938.4 4839.36   4
   7  -6   4 2052.86 685.809   3
   7  -6  -4 1169.81 437.974   3
  -7   6  -4 1205.91 809.694   4
   8  -6   4 153716. 5367.74   3
  -8  -6   4 144733. 5826.83   1
  -8   6  -4 150617. 7372.63   4
   9  -6   4 284.058 460.630   3
  -9  -6   4 532.073 349.732   1
  -9   6  -4 1142.29 731.658   4
  10  -6   4 118638. 5052.58   3
 -10  -6   4 109684. 5318.80   1
 -10   6   4 122888. 6054.41   4
 -10   6  -4 113522. 6961.05   4
  11  -6   4 171.402 314.769   3
 -11   6   4 218.336 504.982   4
 -11  -6   4 169.487 380.292   1
 -11   6  -4 507.686 389.952   4
  12  -6   4 46115.7 3347.79   3
 -12   6   4 47094.6 3882.91   4
 -12  -6   4 46949.7 3613.99   1
 -12   6  -4 48075.3 4887.42   4
  13  -6   4 14740.4 1957.89   3
 -13   6   4 18758.4 2468.32   4
 -13  -6   4 16767.2 2231.47   1
 -13   6  -4 16356.4 2999.78   4
  14  -6   4 54504.3 3914.16   3
 -14   6   4 69955.8 4897.95   4
 -14   6  -4 61757.2 6004.40   4
 -14  -6   4 60776.3 4331.34   1
 -15  -6   4 3642.33 1126.55   1
  15  -6   4 3008.26 987.321   3
 -15   6   4 1674.17 865.118   4
 -15   6  -4 2759.06 1200.33   4
  16  -6   4 36584.3 3399.72   3
 -16  -6   4 36626.4 3482.04   1
 -17  -6   4 19047.2 2609.26   1
   0  -6  -5 366.422 239.868   2
   0  -6   5 315.229 340.413   3
   0   6  -5 14.3980 192.987   5
   0   6  -5 306.584 274.739   4
  -1   6  -5 38959.9 2367.66   5
   1  -6  -5 44290.5 2406.44   2
   1   6  -5 45853.2 2877.05   4
  -1   6  -5 43218.6 3027.64   4
  -1  -6  -5 43824.5 2300.74   2
  -1  -6   5 43480.2 2569.29   3
   1  -6   5 42064.3 2483.40   3
  -2   6  -5 32975.8 2207.15   5
   2  -6  -5 35448.2 2195.56   2
   2   6  -5 32886.2 2327.84   4
  -2   6  -5 35599.8 2875.54   4
  -2  -6  -5 33531.4 1977.04   2
  -2  -6   5 35632.8 2376.80   3
   2  -6   5 33114.7 2216.78   3
   2  -6  -5 31778.0 1563.87   3
   3  -6  -5 144082. 3811.76   3
  -3   6  -5 180036. 5335.27   5
   3   6  -5 146172. 4882.64   4
  -3   6  -5 172565. 6689.34   4
  -3  -6  -5 166641. 4545.30   2
   3  -6   5 159332. 5008.92   3
  -4  -6  -5 595.810 241.076   2
   4  -6   5 1288.10 480.174   3
   4  -6  -5 597.222 321.099   3
  -4   6  -5 873.175 428.118   5
   4   6  -5 327.168 284.560   4
   5  -6   5 171463. 5331.72   3
  -5   6  -5 174050. 5409.69   5
  -5   6  -5 162210. 7045.79   4
  -5  -6  -5 180208. 4935.84   2
   6  -6   5 2983.44 752.374   3
  -6  -6  -5 2720.43 604.168   2
   6  -6  -5 2394.31 572.090   3
  -6   6  -5 2830.58 748.303   5
  -6   6  -5 2211.74 805.094   4
   7  -6   5 59267.0 3242.14   3
  -7   6  -5 65335.8 3385.55   5
  -7   6  -5 58379.5 4551.65   4
   8  -6   5 20733.2 1991.57   3
  -8   6  -5 22279.0 2010.43   5
  -8   6  -5 18961.8 2706.73   4
   9  -6   5 36089.0 2683.60   3
  -9  -6   5 33180.0 2958.60   1
  -9   6  -5 35126.2 3855.98   4
  10  -6   5 13242.7 1667.84   3
 -10  -6   5 13859.1 1964.31   1
 -10   6  -5 15396.1 2654.61   4
  11  -6   5 41508.8 3057.73   3
 -11  -6   5 36401.5 3239.95   1
 -11   6   5 43934.8 3649.93   4
 -11   6  -5 35593.0 4212.18   4
  12  -6   5 5201.98 1173.79   3
 -12   6   5 5751.15 1310.75   4
 -12  -6   5 5825.94 1315.13   1
 -12   6  -5 7729.67 2200.96   4
  13  -6   5 79209.0 4570.49   3
 -13   6   5 95900.6 5494.28   4
 -13  -6   5 83679.0 5206.68   1
 -13   6  -5 79169.2 6776.07   4
 -14  -6   5 1527.60 877.208   1
  14  -6   5 1317.29 615.707   3
 -14   6   5 2181.16 890.776   4
 -14   6  -5 873.817 1049.95   4
  15  -6   5 77024.5 4806.97   3
 -15  -6   5 88643.9 5580.61   1
 -16  -6   5 13055.5 2192.89   1
   0  -6  -6 83498.2 3549.60   2
   0   6  -6 76958.1 4000.12   4
   0  -6   6 74091.7 3480.52   3
   1  -6  -6 5039.97 886.039   2
  -1  -6   6 4497.47 863.076   3
   1  -6   6 6510.49 1017.94   3
  -1   6  -6 5775.05 968.294   5
  -1  -6  -6 6870.62 994.743   2
   1   6  -6 4845.81 947.845   4
  -1   6  -6 6863.53 1285.83   4
  -2   6  -6 144160. 5008.48   5
   2  -6  -6 130370. 4682.15   2
   2   6  -6 137985. 4899.18   4
  -2   6  -6 113580. 5416.09   4
  -2  -6  -6 124867. 4316.53   2
  -2  -6   6 125589. 4692.80   3
   2  -6   6 127757. 4544.93   3
  -3   6  -6 13169.3 1499.79   5
   3  -6  -6 11218.5 1385.39   2
  -3   6  -6 11667.0 1783.77   4
  -3  -6  -6 12138.0 1290.60   2
   3  -6   6 12749.6 1441.37   3
  -4   6  -6 141366. 5101.05   5
  -4   6  -6 145196. 6682.56   4
  -4  -6  -6 148966. 4697.46   2
   4  -6   6 157146. 5092.14   3
  -5   6  -6 15579.4 1682.91   5
  -5   6  -6 14200.1 2132.12   4
  -5  -6  -6 13698.6 1422.25   2
   5  -6   6 12355.3 1435.89   3
  -6   6  -6 71815.9 3671.42   5
  -6   6  -6 57234.3 4539.02   4
  -6  -6  -6 65392.3 3129.02   2
   6  -6   6 62702.4 3286.13   3
   7  -6   6 50594.8 3016.81   3
  -7   6  -6 53742.3 3220.32   5
  -7   6  -6 49159.6 4428.13   4
  -7  -6  -6 53668.8 2863.99   2
   8  -6   6 21254.8 2023.34   3
  -8   6  -6 22950.6 2143.99   5
  -8   6  -6 19193.8 2874.56   4
   9  -6   6 391.381 299.601   3
  -9   6  -6 679.461 346.709   5
  -9   6  -6 805.641 410.547   4
  10  -6   6 20598.4 2118.83   3
 -10  -6   6 21189.4 2588.41   1
 -10   6  -6 18601.5 3065.45   4
  11  -6   6 34561.5 2825.80   3
 -11  -6   6 34204.5 3263.33   1
 -11   6   6 38801.0 3362.73   4
 -11   6  -6 37374.3 4455.92   4
  12  -6   6 50164.4 3480.75   3
 -12  -6   6 52292.1 4125.48   1
 -12   6   6 49356.7 3869.52   4
 -12   6  -6 45875.9 5087.85   4
  13  -6   6 3279.53 884.500   3
 -13  -6   6 2948.23 1001.45   1
  14  -6   6 64349.4 4239.91   3
 -14  -6   6 76039.4 5185.62   1
 -15  -6   6 7792.65 1762.72   1
   0  -6  -7 312.303 225.780   2
   0  -6   7 200.296 339.246   3
   0   6  -7 501.730 430.842   4
   1  -6  -7 141343. 5134.92   2
  -1  -6  -7 140620. 5000.51   2
  -1  -6   7 137825. 5011.67   3
   1  -6   7 134819. 4886.39   3
  -2  -6  -7 1275.97 445.627   2
   2  -6   7 2395.24 672.611   3
  -2   6  -7 2378.31 727.713   5
  -2   6  -7 689.204 584.034   4
   2  -6  -7 1860.80 530.148   2
  -3   6  -7 36615.6 2667.38   5
   3  -6  -7 38849.4 2758.25   2
  -3   6  -7 32666.9 3156.07   4
  -3  -6  -7 35746.6 2409.24   2
   3  -6   7 36113.2 2466.70   3
  -4   6  -7 42654.2 2938.39   5
  -4   6  -7 36386.2 3490.45   4
  -4  -6  -7 38933.9 2523.95   2
   4  -6   7 39550.8 2618.20   3
  -5   6  -7 29169.3 2427.79   5
  -5   6  -7 26732.3 3075.68   4
  -5  -6  -7 30342.3 2242.13   2
   5  -6   7 30571.5 2288.87   3
  -6  -6  -7 111.810 255.034   2
   6  -6   7 51.9869 296.573   3
  -6   6  -7 284.131 381.830   5
  -6   6  -7 655.923 728.248   4
  -7   6  -7 92670.9 4473.76   5
  -7   6  -7 76844.1 5698.34   4
  -7  -6  -7 76804.1 3706.60   2
   7  -6   7 85441.1 3977.31   3
   8  -6   7 18253.2 1895.72   3
  -8   6  -7 21944.6 2187.59   5
  -8   6  -7 19896.7 3078.06   4
  -8  -6  -7 18785.8 1845.20   2
   9  -6   7 92183.3 4365.26   3
  -9   6  -7 89875.4 4553.84   5
  -9   6  -7 95042.9 6789.50   4
  10  -6   7 12038.1 1616.97   3
 -10   6  -7 10796.3 1613.52   5
  11  -6   7 71388.8 4090.46   3
 -11  -6   7 69407.6 4804.25   1
  12  -6   7-387.437 493.768   3
 -12  -6   7-177.097 528.346   1
  13  -6   7 30501.5 2841.03   3
 -13  -6   7 34152.8 3530.49   1
   0  -6  -8 114376. 4875.70   2
   0  -6   8 115569. 4684.75   3
   1  -6  -8 19928.2 2035.26   2
  -1  -6  -8 18921.3 1942.54   2
   1  -6   8 18085.3 1775.39   3
  -2   6  -8 31635.4 2657.36   5
   2  -6  -8 33222.0 2687.66   2
  -2  -6  -8 37097.1 2667.64   2
   2  -6   8 35203.0 2523.56   3
  -3  -6  -8 2547.38 743.219   2
   3  -6   8 2892.87 699.569   3
  -3   6  -8 3452.95 928.016   5
   3  -6  -8 3010.22 817.700   2
  -4   6  -8 21555.2 2195.77   5
   4  -6  -8 15502.3 1911.37   2
  -4  -6  -8 18618.4 1855.38   2
   4  -6   8 23070.3 2029.56   3
  -5   6  -8 11303.0 1624.51   5
  -5  -6  -8 10096.0 1389.15   2
   5  -6   8 11258.7 1469.29   3
  -6   6  -8 83634.0 4462.44   5
  -6  -6  -8 85896.0 4183.88   2
   6  -6   8 83125.3 4000.01   3
   7  -6   8 3970.81 851.105   3
  -7  -6  -8 3778.78 891.488   2
  -7   6  -8 5031.12 1163.41   5
  -8   6  -8 108904. 5172.87   5
  -8  -6  -8 98614.8 4568.06   2
   8  -6   8 107789. 4671.90   3
   9  -6   8 852.300 533.492   3
  -9   6  -8 1704.32 811.322   5
  10  -6   8 97704.0 4674.04   3
 -10   6  -8 97246.5 5037.47   5
  11  -6   8 3331.36 967.629   3
 -11   6  -8 4147.10 1076.23   5
 -11  -6   8 4882.82 1393.70   1
  12  -6   8 46488.5 3409.12   3
 -12  -6   8 55794.4 4572.91   1
   0  -6  -9 325.098 511.593   2
   1  -6  -9 78621.9 4350.40   2
  -1  -6  -9 78060.0 4225.84   2
   1  -6   9 75480.1 3864.90   3
   2  -6  -9 51419.0 3540.67   2
  -2  -6  -9 52763.6 3427.88   2
   2  -6   9 50628.8 3098.55   3
  -3   6  -9 34761.2 2933.16   5
   3  -6  -9 27355.8 2625.91   2
  -3  -6  -9 33065.9 2656.30   2
   3  -6   9 32355.2 2477.98   3
  -4  -6  -9 1519.15 621.694   2
   4  -6   9 345.066 300.397   3
  -4   6  -9 1536.58 710.283   5
   4  -6  -9 1018.19 527.768   2
   5  -6  -9 59115.6 4092.60   2
  -5  -6  -9 65993.4 3829.94   2
   5  -6   9 64240.2 3500.04   3
   6  -6   9 1698.92 748.584   3
  -6  -6  -9 1472.23 619.316   2
  -6   6  -9 1220.52 626.467   5
  -7   6  -9 76816.6 4553.34   5
  -7  -6  -9 71490.8 4105.35   2
   7  -6   9 67510.7 3747.33   3
   8  -6   9-103.854 278.221   3
  -8  -6  -9-16.0918 335.447   2
  -8   6  -9 333.799 363.431   5
  -9   6  -9 15821.0 2076.48   5
  -9  -6  -9 18743.8 2107.92   2
   9  -6   9 15572.7 1806.10   3
  10  -6   9 231.266 405.902   3
  11  -6   9 38387.6 2981.26   3
   0  -6 -10 69429.3 4314.27   2
   1  -6 -10 2710.61 899.511   2
  -1  -6 -10 3370.27 898.960   2
   2  -6 -10 40737.7 3347.66   2
  -2  -6 -10 44737.1 3346.73   2
   2  -6  10 38907.5 2832.96   3
   3  -6 -10 774.076 464.710   2
   3  -6  10 104.221 381.680   3
  -3  -6 -10 40.1942 479.682   2
  -3   6 -10 705.638 451.040   5
  -4   6 -10 65421.4 4320.99   5
   4  -6 -10 63270.1 4330.08   2
  -4  -6 -10 65940.3 4023.11   2
   4  -6  10 64189.6 3657.17   3
   5  -6  10 6467.71 1192.85   3
  -5  -6 -10 5284.32 1154.35   2
  -5   6 -10 7348.04 1466.53   5
   5  -6 -10 6032.00 1357.29   2
  -6   6 -10 91880.7 5193.11   5
   6  -6 -10 83243.6 5199.36   2
  -6  -6 -10 89801.8 4834.21   2
   6  -6  10 81997.2 4132.54   3
   7  -6  10 856.750 426.612   3
  -7  -6 -10 1104.75 636.498   2
   8  -6  10 2588.19 721.592   3
  -8  -6 -10 5901.28 1235.19   2
   9  -6  10 462.178 394.384   3
  -9  -6 -10 1123.05 582.239   2
  10  -6  10 1680.53 752.289   3
   0  -6 -11 455.759 266.267   2
   1  -6 -11 35353.4 3301.44   2
  -1  -6 -11 36255.2 3278.21   2
   2  -6 -11 7498.80 1512.64   2
  -2  -6 -11 4060.63 1109.02   2
   3  -6 -11 16779.0 2306.25   2
  -3  -6 -11 14168.2 1971.21   2
   3  -6  11 16314.1 1882.60   3
   4  -6 -11 10694.6 1826.23   2
   4  -6  11 10675.8 1539.29   3
  -4  -6 -11 10600.4 1713.00   2
   5  -6 -11 78240.0 5140.89   2
  -5  -6 -11 77306.7 4649.29   2
   5  -6  11 72395.6 3986.08   3
   6  -6  11 772.484 555.324   3
   0  -7   0-217.726 265.685   3
  -1  -7   0 811.249 327.141   3
   1  -7   0 817.733 425.952   3
  -2  -7   0 3653.77 737.373   3
   2  -7   0 2994.11 678.136   3
   3  -7   0 699.034 382.522   3
  -3  -7   0 469.644 311.954   3
   4  -7   0 65782.5 3202.13   3
   5  -7   0 13.8960 219.670   3
   6  -7   0 1856.74 572.927   3
   7  -7   0 1654.98 593.241   3
  -7   7   0 673.110 405.333   4
   8  -7   0 54965.1 3310.16   3
  -8   7   0 49149.9 4058.50   4
   9  -7   0-4.52757 264.378   3
  -9   7   0-134.137 321.396   4
  10  -7   0 24866.7 2404.81   3
 -10   7   0 20489.3 2730.61   4
  11  -7   0-339.418 583.064   3
 -11   7   0 1626.97 927.723   4
  12  -7   0 6709.85 1342.52   3
 -12   7   0 6921.75 1685.42   4
  13  -7   0-446.637 659.279   3
 -13   7   0-194.346 566.296   4
  14  -7   0 22881.0 2701.31   3
 -14   7   0 33072.3 3866.29   4
  15  -7   0-167.122 676.241   3
 -15   7   0 483.305 783.174   4
 -16   7   0 1472.77 901.094   4
   0  -7   1 14331.5 1438.51   3
   0  -7  -1 13783.9 1336.06   3
  -1  -7  -1 12922.5 1283.40   3
  -1  -7   1 16225.9 1537.39   3
   1  -7   1 12733.3 1386.70   3
   1  -7  -1 18205.7 1553.01   3
  -2  -7  -1 2730.15 584.600   3
  -2  -7   1 2183.86 626.223   3
   2  -7   1 3921.83 764.069   3
   2  -7  -1 2351.69 587.143   3
   3  -7   1 683.755 218.854   3
   3  -7  -1 626.030 256.088   3
   4  -7   1 19911.3 1768.66   3
   4  -7  -1 21491.7 1770.30   3
   5  -7   1 16937.3 1679.11   3
   5  -7  -1 14678.7 1522.27   3
  -5   7  -1 13325.3 1992.02   4
   6  -7   1 497.339 466.282   3
   6  -7  -1 376.496 234.149   3
  -6   7  -1 269.386 540.274   4
  -6  -7   1-2.68503 112.772   1
   7  -7   1 23602.8 2097.76   3
   7  -7  -1 20578.4 1937.53   3
  -7   7  -1 22587.2 2710.67   4
  -7  -7   1 14945.7 1436.62   1
   8  -7   1 10555.9 1464.72   3
   8  -7  -1 13522.3 1644.18   3
  -8   7   1 12783.3 2067.60   4
  -8   7  -1 10385.8 1855.95   4
  -8  -7   1 8006.85 1099.89   1
  -9  -7   1-88.6952 211.148   1
   9  -7   1 25.4080 247.905   3
   9  -7  -1 692.567 386.545   3
  -9   7   1 77.2082 373.219   4
  10  -7   1 12867.8 1739.99   3
  10  -7  -1 9836.73 1453.59   3
 -10   7   1 10836.7 1970.24   4
 -10   7  -1 12526.4 2170.21   4
  11  -7   1 14207.6 1856.46   3
  11  -7  -1 13882.9 1809.95   3
 -11   7   1 17374.3 2518.52   4
 -11   7  -1 15643.2 2524.56   4
  12  -7   1-513.958 774.877   3
  12  -7  -1 89.1932 594.344   3
 -12   7   1 220.873 453.895   4
 -12   7  -1 86.8608 431.437   4
  13  -7   1 4644.60 1061.63   3
  13  -7  -1 5038.12 1212.40   3
 -13   7   1 4499.19 1334.63   4
 -13   7  -1 5334.13 1463.76   4
  14  -7   1 7479.40 1533.21   3
 -14   7   1 11184.4 2249.22   4
 -14   7  -1 9510.33 2208.79   4
  15  -7   1-703.448 709.878   3
 -15   7   1 2385.29 1028.23   4
 -15   7  -1 1802.64 1000.29   4
 -16   7   1 1683.14 908.648   4
   0  -7  -2 102.146 96.2618   2
   0  -7   2 286.868 217.527   3
   0  -7  -2 431.527 220.033   3
   1  -7  -2 15131.2 904.386   2
  -1  -7  -2 15430.6 917.236   2
  -1  -7  -2 12064.5 1209.93   3
  -1  -7   2 14864.0 1494.25   3
   1  -7   2 15657.0 1531.93   3
   1  -7  -2 14216.2 1312.65   3
   2  -7  -2 80216.0 2283.79   2
  -2  -7  -2 72110.7 3097.94   3
  -2  -7   2 72835.4 3416.13   3
   2  -7   2 79420.9 3472.91   3
   2  -7  -2 74641.2 3072.41   3
   3  -7  -2 17110.0 1493.31   3
   3  -7  -2 16073.6 1065.18   2
  -3  -7   2 15017.1 1564.53   3
   3  -7   2 12764.3 1394.89   3
   4  -7   2 975.485 365.975   3
   4  -7  -2 858.669 482.352   3
  -4   7  -2 1104.72 559.529   4
   5  -7   2 3690.02 762.681   3
  -5   7  -2 4884.65 1212.79   4
   6  -7   2 2967.32 746.503   3
   6  -7  -2 1940.46 656.499   3
  -6  -7   2 1423.69 493.968   1
  -6   7  -2 2410.87 923.668   4
   7  -7   2 3729.37 826.676   3
   7  -7  -2 4025.05 835.689   3
  -7   7  -2 5551.25 1391.59   4
  -7  -7   2 2916.59 698.037   1
   8  -7   2 6653.36 1171.06   3
   8  -7  -2 6489.99 1148.96   3
  -8   7  -2 5355.74 1309.57   4
  -8  -7   2 6152.32 1048.37   1
   9  -7   2 98.2468 434.263   3
   9  -7  -2 130.987 319.202   3
  -9   7   2 86.6001 399.575   4
  -9   7  -2-157.784 578.109   4
  -9  -7   2 310.313 293.831   1
 -10  -7   2 4674.15 1002.04   1
  10  -7   2 7730.27 1375.64   3
  10  -7  -2 4738.35 1005.76   3
 -10   7   2 5604.30 1398.79   4
 -10   7  -2 4900.63 1399.17   4
 -11  -7   2 3398.21 915.407   1
  11  -7   2 1057.01 654.434   3
  11  -7  -2 1381.56 543.147   3
 -11   7   2 1517.93 844.660   4
 -11   7  -2 1210.04 624.009   4
 -12  -7   2 149.807 482.163   1
  12  -7   2 331.789 538.713   3
 -12   7   2-239.073 553.487   4
  13  -7   2 902.373 611.419   3
 -13  -7   2 807.152 488.586   1
 -13   7   2 995.124 653.495   4
 -13   7  -2 532.330 777.644   4
  14  -7   2 1821.17 777.886   3
 -14   7   2 2817.62 1216.09   4
 -14   7  -2 1040.49 734.330   4
  15  -7   2 8753.01 1670.16   3
 -15   7   2 9186.97 2060.08   4
 -15   7  -2 9116.25 2277.33   4
 -16   7   2 23043.9 3275.34   4
   0   7  -3 9851.01 1066.54   5
   0  -7  -3 8552.60 826.785   2
   0  -7  -3 8912.08 996.010   3
   0  -7   3 8530.69 1175.31   3
   1   7  -3 25649.3 1656.88   5
  -1   7  -3 26763.9 1797.16   5
  -1   7  -3 30337.7 2738.63   4
   1  -7  -3 27103.8 1476.88   2
  -1  -7  -3 27847.2 1466.30   2
  -1  -7  -3 26098.2 1722.52   3
  -1  -7   3 22002.4 1880.22   3
   1  -7   3 28851.2 2146.07   3
   1  -7  -3 25040.0 1708.90   3
   2  -7  -3 1128.57 317.455   2
  -2  -7   3 667.536 404.344   3
   2  -7   3 1866.16 597.242   3
  -2  -7  -3 1192.82 321.470   2
   2  -7  -3 1205.13 409.562   3
   2   7  -3 655.726 253.090   5
  -2   7  -3 1752.21 685.018   4
   3  -7  -3 10471.9 1147.08   3
   3   7  -3 11026.5 1019.98   5
   3  -7  -3 10810.3 1018.97   2
  -3  -7   3 10712.0 1355.87   3
  -3  -7  -3 12908.1 1037.06   2
   3  -7   3 12802.2 1376.61   3
   4  -7   3 867.953 425.512   3
   4  -7  -3 1479.56 590.914   3
   4   7  -3 805.189 270.040   5
  -4   7  -3 873.640 528.134   4
   5  -7   3 17295.3 1723.53   3
   5  -7  -3 13977.1 1436.21   3
  -5   7  -3 16317.0 2237.27   4
   6  -7   3 14740.9 1669.78   3
   6  -7  -3 14662.7 1535.13   3
  -6   7  -3 15601.1 2234.02   4
   7  -7   3 2141.26 703.812   3
   7  -7  -3 299.913 264.102   3
  -7  -7   3 576.416 282.653   1
  -7   7  -3 1452.56 566.908   4
   8  -7   3 23604.4 2188.72   3
   8  -7  -3 17842.8 1866.19   3
  -8  -7   3 19321.6 1998.14   1
  -8   7  -3 21442.4 2817.11   4
   9  -7   3-254.751 292.454   3
   9  -7  -3 285.695 449.360   3
  -9   7  -3-35.4090 333.065   4
  -9  -7   3-331.061 333.939   1
  10  -7   3 21165.9 2226.14   3
  10  -7  -3 17372.0 2005.11   3
 -10   7   3 23760.0 2848.23   4
 -10  -7   3 16306.8 1948.95   1
 -10   7  -3 20152.7 2891.29   4
 -11  -7   3 211.482 267.573   1
  11  -7   3 671.900 490.609   3
 -11   7   3 1123.84 748.387   4
 -11   7  -3 502.855 688.840   4
 -12  -7   3 5856.55 1245.40   1
  12  -7   3 5358.51 1215.11   3
 -12   7   3 5062.40 1384.59   4
 -12   7  -3 6381.77 1756.77   4
 -13  -7   3 10449.3 1720.28   1
  13  -7   3 9836.85 1710.71   3
 -13   7   3 11370.0 2042.89   4
 -13   7  -3 8512.46 2126.73   4
 -14  -7   3 1680.83 727.403   1
  14  -7   3 1854.19 716.538   3
 -14   7   3 1896.80 861.414   4
 -14   7  -3 1250.56 1042.50   4
  15  -7   3 396.869 384.272   3
 -15  -7   3 2863.71 1043.49   1
 -15   7   3 3038.41 1172.62   4
 -15   7  -3 3241.90 1551.64   4
 -16   7   3 986.502 918.543   4
   0  -7  -4 96.9591 145.326   2
   0  -7  -4 505.477 236.277   3
   0  -7   4 597.891 411.974   3
   0   7  -4 61.0273 150.644   5
   0   7  -4 791.758 549.895   4
   1  -7  -4 739.462 310.060   2
  -1  -7  -4 568.922 242.553   3
  -1  -7  -4 945.721 296.917   2
  -1  -7   4 213.598 283.327   3
   1  -7   4 110.949 269.057   3
   1  -7  -4 848.357 279.649   3
   1   7  -4 202.009 149.025   5
  -1   7  -4 1220.73 419.530   5
   1   7  -4 1134.99 550.754   4
  -1   7  -4 416.176 334.979   4
   2  -7  -4 837.190 347.197   2
  -2  -7   4 149.546 239.998   3
  -2  -7  -4 547.752 247.276   2
   2  -7   4 162.701 334.193   3
   2  -7  -4 275.809 215.965   3
   2   7  -4 717.224 345.571   5
  -2   7  -4 621.735 347.130   5
   2   7  -4 720.450 451.328   4
  -2   7  -4 533.280 383.995   4
   3  -7  -4 5385.65 819.411   3
   3  -7   4 8027.99 1169.13   3
   3   7  -4 5158.92 781.898   5
  -3   7  -4 6831.71 1009.15   5
   3  -7  -4 7182.28 917.136   2
  -3   7  -4 8151.56 1506.75   4
  -3  -7  -4 7036.01 850.517   2
   4  -7  -4 21914.4 1695.59   3
   4   7  -4 24682.7 1671.95   5
  -4   7  -4 25987.9 2022.26   5
  -4   7  -4 25429.6 2704.07   4
  -4  -7  -4 24277.1 1586.00   2
   4  -7   4 21989.5 1936.05   3
   5  -7  -4 24681.6 1866.41   3
  -5   7  -4 21016.9 2571.13   4
   5  -7   4 24689.4 2105.02   3
   6  -7   4 1162.06 484.515   3
   6  -7  -4 888.522 396.371   3
  -6   7  -4 474.481 435.140   4
   7  -7   4 3777.49 875.957   3
   7  -7  -4 3505.22 741.851   3
  -7   7  -4 2863.52 1075.94   4
   8  -7   4 5077.15 1042.14   3
   8  -7  -4 3382.28 720.941   3
  -8  -7   4 2574.20 800.284   1
  -8   7  -4 5642.62 1451.72   4
   9  -7   4 42467.3 3119.98   3
   9  -7  -4 33849.7 2670.18   3
  -9   7  -4 41590.7 4146.41   4
  10  -7   4 1527.71 747.730   3
  10  -7  -4 1037.98 358.588   3
 -10   7   4 3413.42 1074.84   4
 -10  -7   4 2135.36 656.489   1
 -10   7  -4 1565.37 893.277   4
  11  -7   4 1110.83 536.661   3
 -11   7   4 295.597 425.151   4
 -11   7  -4 974.424 954.504   4
 -11  -7   4 499.532 432.932   1
  12  -7   4 805.200 572.208   3
 -12   7   4 666.093 760.194   4
 -12   7  -4 152.652 574.670   4
 -12  -7   4 1322.54 675.469   1
  13  -7   4 17893.3 2300.03   3
 -13   7   4 16937.1 2547.47   4
 -13  -7   4 18722.7 2392.24   1
 -13   7  -4 20637.0 3390.66   4
 -14  -7   4 7576.88 1596.13   1
  14  -7   4 7041.90 1429.41   3
 -14   7   4 6332.47 1488.81   4
 -14   7  -4 5495.12 1848.91   4
 -15  -7   4 1580.70 773.951   1
 -15   7   4 1873.50 866.352   4
 -16  -7   4 558.230 563.466   1
   0  -7  -5 2301.05 539.520   2
   0  -7   5 1419.64 500.978   3
   0   7  -5 3348.98 705.185   5
   0   7  -5 1692.44 662.319   4
   1  -7  -5 3932.07 718.166   2
  -1  -7   5 3299.56 805.294   3
   1  -7   5 5422.07 951.045   3
   1   7  -5 3573.12 727.908   5
  -1   7  -5 5760.23 951.216   5
  -1  -7  -5 5446.70 826.759   2
   1   7  -5 3559.75 906.520   4
  -1   7  -5 6257.36 1234.44   4
   2   7  -5 10480.2 1224.03   5
  -2   7  -5 11908.9 1407.65   5
   2  -7  -5 11906.3 1283.64   2
   2   7  -5 10435.7 1467.39   4
  -2   7  -5 11014.0 1686.92   4
  -2  -7  -5 11999.1 1185.67   2
  -2  -7   5 10329.6 1391.64   3
   2  -7   5 10958.5 1395.84   3
   3   7  -5 11970.6 1305.66   5
  -3   7  -5 11180.4 1367.66   5
   3  -7  -5 12568.7 1357.68   2
   3   7  -5 13378.0 1592.32   4
  -3   7  -5 12125.8 1881.02   4
  -3  -7  -5 13089.3 1258.19   2
   3  -7   5 12897.1 1517.13   3
   4  -7   5 2552.28 682.050   3
  -4  -7  -5 3104.28 616.962   2
  -4   7  -5 3532.18 810.857   5
  -4   7  -5 2883.32 1003.08   4
   5  -7   5 307.642 324.676   3
  -5  -7  -5 306.283 242.718   2
  -5   7  -5 355.979 365.886   5
  -5   7  -5 586.738 455.060   4
  -6   7  -5 28077.9 2297.23   5
  -6   7  -5 24914.2 2904.86   4
  -6  -7  -5 24735.4 1850.70   2
   6  -7   5 26814.0 2262.68   3
   7  -7   5 23859.0 2168.60   3
   7  -7  -5 20414.5 1847.62   3
  -7   7  -5 20978.6 2843.15   4
   8  -7   5 686.818 510.905   3
   8  -7  -5 99.7605 365.853   3
  -8   7  -5 951.118 823.173   4
   9  -7  -5 27.3947 374.647   3
  -9  -7   5 707.557 489.698   1
  -9   7  -5 378.552 529.032   4
  10  -7   5 775.827 583.738   3
  10  -7  -5 840.698 317.095   3
 -10  -7   5 2124.74 908.202   1
 -10   7  -5 1750.54 777.065   4
  11  -7   5 16088.2 2044.50   3
 -11  -7   5 16699.4 2253.97   1
 -11   7   5 19013.7 2552.12   4
 -11   7  -5 17083.2 3013.44   4
  12  -7   5 19997.7 2349.99   3
 -12   7   5 22177.0 2789.52   4
 -12  -7   5 18289.1 2402.52   1
 -12   7  -5 15930.4 2964.74   4
  13  -7   5 883.991 497.944   3
 -13   7   5 1058.27 761.065   4
 -13   7  -5 640.738 755.934   4
 -13  -7   5 118.640 376.362   1
 -14  -7   5 1344.28 812.602   1
 -14   7   5 1402.46 815.320   4
 -15  -7   5 1811.91 755.531   1
   0  -7  -6 57.4986 203.248   2
   0  -7   6 173.881 316.338   3
   0   7  -6-41.5378 191.142   5
   0   7  -6 644.697 313.094   4
   1   7  -6 26566.3 2156.24   5
  -1   7  -6 26981.0 2227.31   5
   1  -7  -6 26953.6 2059.21   2
   1   7  -6 26137.9 2370.41   4
  -1   7  -6 26163.6 2578.74   4
  -1  -7  -6 28022.4 2031.81   2
  -1  -7   6 25627.2 2219.01   3
   1  -7   6 28189.4 2277.51   3
   2  -7  -6 1126.83 462.593   2
  -2  -7  -6 78.5354 218.556   2
   2  -7   6 74.3303 371.161   3
   2   7  -6 46.3036 169.769   5
  -2   7  -6-74.5517 239.193   5
  -2   7  -6 1651.42 682.642   4
  -2  -7   6-335.383 314.832   3
  -3   7  -6 35031.7 2593.57   5
   3  -7  -6 34385.9 2457.32   2
  -3   7  -6 31747.4 3086.88   4
  -3  -7  -6 33972.9 2223.45   2
   3  -7   6 33392.4 2500.96   3
  -4  -7  -6 1201.35 410.687   2
   4  -7   6 1171.20 598.927   3
  -4   7  -6 1392.23 528.525   5
  -4   7  -6 1328.03 836.152   4
   4  -7  -6 1397.53 494.796   2
   5  -7   6 919.688 459.940   3
  -5  -7  -6 2012.99 587.651   2
  -5   7  -6 1655.99 583.988   5
  -5   7  -6 1482.08 838.823   4
   6  -7   6 5360.37 1028.28   3
  -6  -7  -6 5616.52 933.528   2
  -6   7  -6 6130.61 1156.78   5
  -6   7  -6 4809.99 1409.43   4
   7  -7   6 5191.27 1024.03   3
  -7   7  -6 6234.37 1180.77   5
  -7   7  -6 4410.53 1300.70   4
   8  -7   6 1997.05 654.843   3
  -8   7  -6 678.781 568.497   4
   9  -7   6 362.895 340.807   3
  -9   7  -6 715.229 493.886   4
  10  -7   6 3020.53 850.292   3
 -10  -7   6 1930.69 900.172   1
 -10   7  -6 2188.51 1017.79   4
  11  -7   6 4150.81 1083.07   3
 -11   7   6 4746.37 1342.48   4
 -11  -7   6 6043.90 1497.96   1
 -11   7  -6 2134.31 930.932   4
  12  -7   6 4151.59 1125.98   3
 -12   7   6 3030.77 1038.00   4
 -12  -7   6 3513.31 1243.93   1
 -12   7  -6 4708.44 1701.64   4
 -13  -7   6 2.14851 429.522   1
 -14  -7   6 445.851 686.161   1
   0   7  -7 63827.3 3649.14   5
   0  -7  -7 59541.2 3286.48   2
   0  -7   7 56569.5 3354.29   3
   1  -7  -7 835.404 441.861   2
  -1  -7  -7 2160.18 675.422   2
  -1  -7   7 677.603 478.131   3
   1  -7   7 760.503 440.802   3
   1   7  -7 1104.88 500.355   5
  -1   7  -7 652.481 467.144   5
  -1   7  -7 813.359 481.313   4
   2  -7  -7-82.0001 303.178   2
  -2  -7  -7-100.007 384.050   2
   2  -7   7-22.6877 312.817   3
  -2   7  -7 110.063 357.712   5
  -2   7  -7 408.956 326.791   4
  -3  -7  -7 2848.62 701.506   2
   3  -7   7 3542.72 868.277   3
  -3   7  -7 3654.93 869.643   5
  -3   7  -7 2144.06 785.712   4
   3  -7  -7 1714.57 569.649   2
  -4   7  -7 17694.7 1988.81   5
   4  -7  -7 15264.7 1813.20   2
  -4   7  -7 16119.6 2392.55   4
  -4  -7  -7 17410.0 1733.23   2
   4  -7   7 17269.2 1854.22   3
   5  -7   7-71.7804 281.645   3
  -5  -7  -7 569.279 319.402   2
  -5   7  -7 84.8223 306.425   5
  -5   7  -7 977.752 701.525   4
   6  -7   7 2661.92 805.737   3
  -6  -7  -7 1603.35 510.061   2
  -6   7  -7 1802.55 645.891   5
  -6   7  -7 1020.81 614.899   4
   7  -7   7 5716.14 1096.56   3
  -7  -7  -7 6852.46 1120.18   2
  -7   7  -7 7147.05 1274.46   5
  -7   7  -7 4977.93 1437.54   4
   8  -7   7 1016.30 598.173   3
  -8   7  -7 1385.17 627.268   5
  -8   7  -7 2304.32 1176.63   4
   9  -7   7 956.451 620.482   3
  -9   7  -7 972.928 845.903   4
  10  -7   7 1702.75 632.727   3
 -10  -7   7 1944.55 924.558   1
 -10   7  -7 3119.27 1333.79   4
  11  -7   7 4501.81 1099.68   3
 -11  -7   7 7323.00 1692.11   1
 -11   7  -7 4025.63 1532.54   4
 -12  -7   7 2674.47 1032.29   1
   0  -7  -8 369.501 378.455   2
   0  -7   8 128.196 274.396   3
   0   7  -8 540.625 375.747   5
   1  -7  -8-249.527 398.336   2
  -1  -7  -8 920.928 544.005   2
   1  -7   8 761.789 423.225   3
  -1   7  -8 279.923 371.458   5
   2  -7  -8 464.663 480.974   2
  -2  -7  -8 793.051 486.566   2
   2  -7   8 418.080 345.551   3
  -2   7  -8 92.5007 275.045   5
   3  -7  -8 5906.03 1177.01   2
  -3  -7  -8 7508.20 1215.15   2
   3  -7   8 5209.10 1011.74   3
  -3   7  -8 6450.09 1223.96   5
  -3   7  -8 7399.01 1579.82   4
   4  -7   8 2383.31 739.950   3
  -4  -7  -8 1010.09 440.001   2
  -4   7  -8 1357.74 614.679   5
  -4   7  -8 1096.46 463.485   4
   4  -7  -8 893.867 453.146   2
   5  -7   8 8986.04 1377.07   3
  -5   7  -8 8120.06 1429.29   5
  -5  -7  -8 9699.22 1410.51   2
  -5   7  -8 6840.49 1722.95   4
   5  -7  -8 8612.72 1490.20   2
  -6   7  -8 13575.7 1872.50   5
  -6   7  -8 14675.3 2532.80   4
  -6  -7  -8 15128.9 1770.96   2
   6  -7   8 13583.5 1729.65   3
   7  -7   8 3193.20 808.052   3
  -7  -7  -8 3959.04 886.072   2
  -7   7  -8 4501.75 1052.63   5
  -7   7  -8 2100.20 916.061   4
   8  -7   8 9882.94 1526.84   3
  -8   7  -8 13099.1 1877.21   5
  -8  -7  -8 9403.91 1418.90   2
  -9   7  -8 14166.6 1963.45   5
   9  -7   8 13111.3 1722.58   3
  10  -7   8 7963.45 1390.35   3
 -11  -7   8 1403.37 846.150   1
   0  -7  -9 1726.18 644.275   2
   0   7  -9 2657.73 894.110   5
   1  -7  -9 2744.68 832.729   2
  -1  -7  -9 5289.29 1153.15   2
   1  -7   9 4463.46 1020.58   3
  -1   7  -9 2894.73 869.955   5
   2  -7  -9 7802.63 1379.65   2
  -2  -7  -9 9174.11 1446.22   2
   2  -7   9 7723.09 1280.08   3
  -2   7  -9 7631.17 1477.71   5
   3  -7  -9 371.300 385.682   2
   3  -7   9 232.252 329.587   3
  -3  -7  -9 155.521 315.714   2
  -3   7  -9 362.666 399.607   5
   4  -7  -9 683.363 360.737   2
   4  -7   9 1344.25 570.966   3
  -4  -7  -9 924.224 505.055   2
  -4   7  -9 1077.15 576.097   5
   5  -7   9 4957.82 1080.85   3
  -5  -7  -9 3776.89 960.854   2
  -5   7  -9 4490.50 1173.98   5
   5  -7  -9 2525.31 834.647   2
  -6   7  -9 19710.1 2406.88   5
   6  -7  -9 15852.4 2124.23   2
  -6  -7  -9 17717.9 2063.03   2
   6  -7   9 19731.7 2132.79   3
   7  -7   9-7.83778 435.068   3
  -7  -7  -9 548.755 348.724   2
  -7   7  -9 186.897 298.504   5
   8  -7   9 2456.73 829.390   3
  -8  -7  -9 2081.20 760.118   2
   0  -7 -10 738.657 541.155   2
   0   7 -10-89.6375 476.511   5
   1  -7 -10 160.820 447.828   2
  -1   7 -10-652.175 647.313   5
  -2   7 -10 13354.1 2014.78   5
   2  -7 -10 13392.0 1974.36   2
  -2  -7 -10 12614.8 1803.74   2
   2  -7  10 12574.2 1736.55   3
   3  -7 -10 1397.48 708.960   2
   3  -7  10 99.6661 302.991   3
  -3  -7 -10 988.703 550.908   2
  -3   7 -10 498.426 437.745   5
   4  -7 -10 3763.00 1046.96   2
   4  -7  10 5006.12 1106.38   3
  -4  -7 -10 3579.20 962.345   2
  -4   7 -10 4713.00 1235.81   5
   5  -7  10 2170.80 732.670   3
  -5  -7 -10 2590.21 849.240   2
   5  -7 -10 1392.03 760.777   2
   6  -7  10 8956.07 1452.11   3
  -6  -7 -10 10226.4 1640.09   2
   6  -7 -10 9245.05 1693.20   2
  -7  -7 -10 1209.12 612.847   2
   7  -7 -10 298.746 331.374   2
   0  -7 -11 20235.6 2493.63   2
   1  -7 -11 7999.06 1527.25   2
  -1  -7 -11 8878.95 1668.10   2
   0  -8   0 294960. 7295.99   3
  -1  -8   0-34.2923 320.155   3
   1  -8   0 85.9235 272.661   3
  -2  -8   0 76823.2 3684.15   3
   2  -8   0 75437.1 3583.29   3
   3  -8   0 934.846 417.909   3
   4  -8   0 13652.3 1533.63   3
   5  -8   0 986.138 564.601   3
   6  -8   0 100240. 4532.85   3
   7  -8   0 1900.88 789.793   3
  -7   8   0 1220.07 859.470   4
   8  -8   0 61578.2 3738.15   3
  -8   8   0 59220.8 4759.25   4
   9  -8   0 628.838 636.057   3
  -9   8   0 83.8030 374.238   4
  10  -8   0 41394.1 3324.76   3
 -10   8   0 45514.8 4319.15   4
  11  -8   0-267.721 446.962   3
 -11   8   0 29.6116 434.119   4
  12  -8   0 69659.8 4655.79   3
 -12   8   0 72073.3 5698.51   4
  13  -8   0 14.8654 465.548   3
 -13   8   0 1262.02 974.291   4
  14  -8   0 5623.04 1443.51   3
 -14   8   0 10290.6 2316.06   4
   0  -8  -1 519.971 217.630   3
   0  -8   1 773.906 437.244   3
  -1  -8  -1 157515. 5123.33   3
  -1  -8   1 154806. 5337.37   3
   1  -8   1 159709. 5366.72   3
   1  -8  -1 153304. 5047.00   3
  -2  -8  -1 2971.43 679.163   3
  -2  -8   1 2753.95 681.215   3
   2  -8   1 3995.45 866.198   3
   2  -8  -1 2966.73 723.475   3
   3  -8   1 13924.9 1548.12   3
   3  -8  -1 16263.1 1603.68   3
   4  -8   1 2181.70 661.969   3
   4  -8  -1 1814.66 571.238   3
   5  -8   1 86346.1 4113.89   3
   5  -8  -1 94830.3 4194.48   3
   6  -8   1 14394.6 1745.29   3
   6  -8  -1 9975.81 1438.56   3
  -6   8  -1 13873.4 2234.95   4
   7  -8   1 112523. 5013.81   3
   7  -8  -1 112633. 4921.93   3
  -7   8  -1 112408. 6508.20   4
   8  -8  -1 9542.05 1496.18   3
   8  -8   1 9461.55 1503.26   3
  -8   8   1 11461.9 2078.25   4
  -8   8  -1 10744.1 2067.08   4
   9  -8   1 28353.1 2620.30   3
   9  -8  -1 23989.7 2395.87   3
  -9   8   1 27795.0 3312.42   4
  -9   8  -1 25184.7 3163.18   4
  10  -8   1 7521.95 1451.83   3
  10  -8  -1 6130.09 1208.74   3
 -10   8   1 5459.70 1558.20   4
 -10   8  -1 7122.76 1819.02   4
  11  -8   1 76361.4 4674.83   3
  11  -8  -1 58185.4 4106.40   3
 -11   8   1 71162.9 5486.16   4
 -11   8  -1 71095.7 5625.92   4
  12  -8   1 8875.71 1671.95   3
  12  -8  -1 9950.25 1763.80   3
 -12   8   1 10426.5 2118.13   4
 -12   8  -1 6328.44 1766.08   4
  13  -8   1 55153.5 4259.02   3
  13  -8  -1 46373.5 3909.53   3
 -13   8   1 61630.5 5288.96   4
 -13   8  -1 61454.0 5565.05   4
  14  -8   1-30.6907 637.626   3
  14  -8  -1 135.644 415.539   3
 -14   8   1 1201.00 820.679   4
 -14   8  -1 1808.27 1048.10   4
   0  -8  -2 71514.0 3302.00   3
   0  -8   2 75659.9 3674.15   3
  -1  -8  -2 921.015 376.246   3
  -1  -8   2 1270.87 503.899   3
   1  -8   2 1459.49 548.684   3
   1  -8  -2 712.450 345.935   3
  -2  -8  -2 36799.6 2383.57   3
  -2  -8   2 32147.0 2450.64   3
   2  -8   2 39832.3 2695.95   3
   2  -8  -2 35588.1 2344.14   3
   3  -8   2 1811.31 651.544   3
   3  -8  -2 2326.91 637.433   3
  -3   8  -2 2699.42 973.080   4
  -3  -8   2 2416.94 719.105   3
   4  -8  -2 87121.6 3859.96   3
  -4   8  -2 91039.1 5553.71   4
   4  -8   2 92248.5 4172.24   3
   5  -8   2 1316.13 659.234   3
   5  -8  -2 2258.95 721.693   3
  -5   8  -2 2037.07 983.335   4
   6  -8   2 193864. 6485.70   3
   6  -8  -2 183551. 6102.75   3
  -6   8  -2 181723. 8226.45   4
   7  -8   2 11085.7 1640.20   3
   7  -8  -2 10376.4 1481.64   3
  -7   8  -2 9308.49 1880.14   4
   8  -8   2 33237.3 2786.73   3
   8  -8  -2 27291.3 2492.78   3
  -8   8  -2 30459.1 3409.49   4
   9  -8   2 1326.18 670.915   3
   9  -8  -2 1423.98 644.354   3
  -9   8   2 1146.69 727.804   4
  -9   8  -2 1249.52 860.648   4
  10  -8   2 19705.0 2288.53   3
  10  -8  -2 17991.9 2162.79   3
 -10   8   2 22710.8 3011.92   4
 -10   8  -2 18491.3 2830.95   4
  11  -8   2 11245.4 1827.60   3
  11  -8  -2 9112.65 1609.41   3
 -11   8   2 8827.16 1940.09   4
 -11   8  -2 9103.71 2118.25   4
  12  -8   2 111134. 5820.12   3
 -12   8   2 117607. 7069.90   4
 -12   8  -2 104043. 7104.02   4
  13  -8   2 1567.03 803.143   3
  13  -8  -2 301.264 426.424   3
 -13   8   2 398.799 624.688   4
 -13   8  -2 1181.76 987.781   4
  14  -8  -2 29329.8 3230.84   3
 -14   8   2 53279.2 4929.64   4
   0  -8  -3-25.7180 252.120   3
   0  -8   3 353.080 295.599   3
  -1   8  -3 76104.3 4721.89   4
  -1  -8  -3 70319.4 3209.06   3
  -1  -8   3 61887.8 3421.20   3
   1  -8   3 73624.4 3675.24   3
   1  -8  -3 63153.7 3010.63   3
  -2   8  -3 14278.3 2093.44   4
  -2  -8   3 13506.3 1609.40   3
   2  -8   3 14920.7 1660.99   3
   2  -8  -3 13038.7 1376.31   3
  -3   8  -3 55894.5 4223.05   4
   3  -8   3 52362.7 3182.74   3
   4  -8  -3 8011.17 1109.64   3
   4  -8   3 7466.78 1197.18   3
  -4   8  -3 7487.23 1592.76   4
   5  -8  -3 139318. 5025.31   3
  -5   8  -3 147555. 7200.90   4
   5  -8   3 153217. 5630.36   3
   6  -8   3 3836.98 875.888   3
   6  -8  -3 5548.74 1065.71   3
  -6   8  -3 3805.00 1312.35   4
   7  -8   3 102146. 4771.60   3
  -7   8  -3 98055.3 6133.56   4
   8  -8   3 2574.66 937.359   3
   8  -8  -3 2208.46 813.702   3
  -8   8  -3 1636.00 783.689   4
   9  -8   3 7208.74 1341.12   3
   9  -8  -3 5308.28 1129.52   3
  -9   8  -3 5353.30 1495.93   4
  10  -8   3 983.750 627.202   3
  10  -8  -3 395.775 616.954   3
 -10   8   3 1492.18 790.591   4
 -10   8  -3 434.045 631.557   4
  11  -8   3 46422.5 3650.13   3
  11  -8  -3 41705.5 3493.24   3
 -11   8  -3 46540.1 4751.57   4
  12  -8   3 2745.71 1091.41   3
  12  -8  -3 911.816 577.164   3
 -12   8   3 1846.71 845.810   4
 -12   8  -3 2515.15 1236.95   4
  13  -8   3 87854.5 5381.15   3
 -13   8   3 108896. 6780.93   4
 -13   8  -3 92926.9 7155.77   4
  14  -8  -3 3443.50 1095.07   3
 -14   8   3 5419.55 1562.10   4
   0   8  -4 154088. 4937.82   5
   0   8  -4 165214. 6854.35   4
   0  -8   4 159085. 5713.66   3
   1   8  -4 19961.9 1686.48   5
  -1   8  -4 27302.3 2083.26   5
   1   8  -4 31333.6 2867.97   4
  -1   8  -4 25698.4 2711.98   4
  -1  -8   4 25961.1 2240.25   3
   1  -8   4 25781.0 2204.76   3
   2   8  -4 73356.8 4306.00   4
  -2   8  -4 73695.9 4732.10   4
  -2  -8   4 65579.7 3665.23   3
   2  -8   4 72316.6 3785.34   3
   3  -8   4 8211.38 1312.60   3
  -3   8  -4 9416.31 1727.91   4
  -4   8  -4 40957.8 3693.04   4
   4  -8   4 42894.9 2934.71   3
   5  -8  -4 13907.0 1515.82   3
  -5   8  -4 13809.0 2238.51   4
   5  -8   4 12834.5 1609.04   3
   6  -8  -4 74906.1 3722.32   3
  -6   8  -4 72574.4 5238.21   4
   6  -8   4 80828.4 4181.63   3
   7  -8   4 215.015 365.630   3
   7  -8  -4 994.941 577.339   3
  -7   8  -4 34.9126 473.809   4
   8  -8   4 42612.5 3187.26   3
   8  -8  -4 34330.0 2729.87   3
  -8   8  -4 39095.1 4127.66   4
   9  -8   4 545.569 555.045   3
   9  -8  -4 698.553 655.797   3
  -9   8  -4 40.4023 480.712   4
  10  -8   4 41206.0 3325.89   3
  10  -8  -4 29621.0 2750.41   3
 -10   8  -4 36161.9 4134.68   4
  11  -8   4 1449.85 841.609   3
  11  -8  -4-339.539 494.260   3
 -11   8   4-157.646 572.888   4
 -11   8  -4-543.202 552.198   4
  12  -8   4 60560.3 4313.77   3
 -12   8   4 64144.6 5101.22   4
 -12   8  -4 54213.9 5483.94   4
  13  -8  -4 7222.51 1509.74   3
 -13   8   4 9709.83 2009.19   4
  14  -8  -4 11958.6 1971.46   3
   0  -8   5 210.900 397.173   3
   0   8  -5 428.411 323.595   5
   0   8  -5 969.727 578.899   4
   1   8  -5 105822. 4285.70   5
   1   8  -5 124439. 5678.80   4
  -1   8  -5 124769. 5988.01   4
  -1  -8   5 117420. 5004.75   3
   1  -8   5 122987. 5021.30   3
   2   8  -5 17421.6 1672.00   5
  -2   8  -5 16921.0 1761.01   5
   2   8  -5 18910.1 2123.79   4
  -2   8  -5 19741.7 2494.15   4
  -2  -8   5 16789.2 1888.12   3
   2  -8   5 17663.4 1882.27   3
  -3   8  -5 27619.9 2303.71   5
  -3   8  -5 27048.8 2955.02   4
   3  -8   5 25866.9 2326.80   3
   4  -8   5 4243.48 919.455   3
  -4   8  -5 4768.18 974.923   5
  -4   8  -5 5561.90 1431.40   4
  -5   8  -5 27504.5 3163.09   4
   5  -8   5 29646.1 2522.42   3
   6  -8   5 245.398 410.709   3
  -6   8  -5 806.104 404.333   4
  -7   8  -5 73657.1 5510.76   4
   7  -8   5 73429.6 4125.11   3
   8  -8   5 9733.44 1606.94   3
  -8  -8   5 9678.60 1658.32   1
  -8   8  -5 10828.4 2190.48   4
   9  -8   5 67856.0 4201.17   3
  -9  -8   5 69715.8 4525.16   1
  -9   8  -5 68964.4 5742.85   4
  10  -8   5 7081.80 1412.11   3
 -10   8  -5 6373.05 1936.05   4
  11  -8   5 59119.7 4130.66   3
 -11   8   5 60752.9 4914.09   4
 -11   8  -5 56188.3 5541.19   4
 -12   8   5 925.807 706.860   4
 -13   8   5 21946.3 2985.84   4
   0   8  -6 79989.4 3995.11   5
   0   8  -6 69838.6 4355.52   4
   0  -8   6 68456.1 3853.52   3
  -1  -8   6 927.113 543.459   3
   1  -8   6 3770.44 953.955   3
   1   8  -6 2029.91 724.287   5
  -1   8  -6 3670.94 961.937   5
  -1   8  -6 3834.35 1095.92   4
   2   8  -6 51408.3 3116.95   5
  -2   8  -6 57228.6 3434.10   5
  -2   8  -6 57552.6 4225.50   4
   2  -8   6 56152.9 3450.31   3
   3  -8   6 4660.60 1019.07   3
  -3   8  -6 5881.54 1156.99   5
  -3   8  -6 4677.13 1329.34   4
  -4   8  -6 38588.5 2917.50   5
  -4   8  -6 32685.4 3387.38   4
   4  -8   6 36187.0 2827.18   3
   5  -8   6 4950.32 1048.47   3
  -5   8  -6 5054.68 1121.53   5
  -5   8  -6 4131.14 1275.50   4
  -6   8  -6 46687.8 4360.85   4
   6  -8   6 52595.4 3483.00   3
  -7   8  -6 25095.9 3339.57   4
   7  -8   6 26013.9 2466.17   3
  -8   8  -6 70200.5 5773.58   4
   8  -8   6 72727.4 4264.96   3
   9  -8   6 839.160 582.583   3
  -9  -8   6 596.415 629.404   1
  -9   8  -6 1278.17 1099.46   4
  10  -8   6 70281.7 4368.99   3
 -10  -8   6 71024.2 4902.29   1
 -10   8  -6 59806.2 5829.03   4
 -11  -8   6 20062.6 2656.44   1
 -11   8   6 23973.8 3035.42   4
 -11   8  -6 21888.8 3593.78   4
 -12   8   6 34762.6 3714.06   4
   0  -8   7-154.452 554.482   3
   0   8  -7 441.493 345.448   5
   1   8  -7 27765.8 2482.18   5
  -1   8  -7 29916.7 2623.41   5
  -1  -8   7 24561.8 2370.04   3
   1  -8   7 30976.1 2628.42   3
   2  -8   7 413.397 415.254   3
   2   8  -7 384.172 260.090   5
  -2   8  -7 502.979 430.954   5
  -2   8  -7 797.285 585.844   4
  -3   8  -7 83194.5 4476.04   5
  -3   8  -7 72066.6 5007.22   4
   3  -8   7 77701.9 4225.01   3
  -4   8  -7 16312.2 2048.29   5
  -4   8  -7 16051.5 2469.07   4
   4  -8   7 15851.9 1899.71   3
  -5   8  -7 88715.6 4746.18   5
   5  -8   7 81313.0 4388.01   3
   6  -8   7 674.155 517.208   3
  -6   8  -7 633.091 593.877   5
  -6   8  -7 570.223 622.544   4
  -7   8  -7 43482.1 3413.21   5
  -7   8  -7 38951.8 4332.75   4
   7  -8   7 45476.2 3379.45   3
  -8   8  -7 13812.4 2681.14   4
   8  -8   7 16633.7 2081.25   3
  -9   8  -7 24858.4 3726.78   4
   9  -8   7 24221.1 2512.80   3
 -10  -8   7 9703.93 1870.18   1
 -10   8  -7 8544.67 2253.50   4
 -11  -8   7 30978.4 3421.29   1
 -11   8   7 33896.9 3599.90   4
   0   8  -8 15737.6 2014.01   5
   0  -8   8 14823.2 1872.27   3
   1  -8   8 5062.55 1084.86   3
   1   8  -8 7782.36 1433.05   5
  -1   8  -8 7312.34 1422.78   5
   2   8  -8 48936.0 3534.66   5
  -2   8  -8 61942.5 4070.78   5
   2  -8   8 56564.6 3679.43   3
   3  -8   8 1011.15 590.295   3
  -3   8  -8 707.229 543.105   5
  -4   8  -8 93812.5 5096.74   5
   4  -8   8 89980.6 4670.08   3
   5  -8   8 5512.93 1182.53   3
  -5   8  -8 4834.95 1190.89   5
  -5   8  -8 6204.36 1721.28   4
  -6   8  -8 37851.0 3288.43   5
  -6   8  -8 32870.3 3873.85   4
   6  -8   8 32470.3 2871.90   3
   7  -8   8 2074.67 783.911   3
  -7   8  -8 1898.03 749.822   5
  -7   8  -8 2246.22 1193.68   4
  -8   8  -8 19924.4 3232.96   4
   0   8  -9 519.779 473.107   5
   1   8  -9 26760.1 2783.15   5
  -1   8  -9 28442.3 2895.81   5
   1  -8   9 31595.6 2796.46   3
   2   8  -9 19219.9 2354.39   5
  -2   8  -9 24396.5 2679.08   5
   2  -8   9 25496.1 2534.31   3
  -3   8  -9 61116.7 4296.49   5
   3  -8   9 53672.9 3677.92   3
  -4   8  -9-5.58443 305.787   5
   2   8 -10 34379.9 3315.70   5
   0  -9   0 145.125 283.634   3
  -1  -9   0 659.721 503.401   3
   1  -9   0 953.033 548.001   3
  -2  -9   0 116.042 276.145   3
   2  -9   0 313.733 370.721   3
   3  -9   0 440.828 469.421   3
   4  -9   0 13736.5 1725.86   3
   5  -9   0 93.2386 368.880   3
   6  -9   0 4622.57 1026.69   3
  -6   9   0 4863.33 1502.56   4
   7  -9   0 745.614 588.555   3
  -7   9   0 415.990 436.720   4
   8  -9   0 21560.4 2371.63   3
  -8   9   0 18464.7 2959.98   4
   9  -9   0 1423.36 828.537   3
  -9   9   0-112.666 543.299   4
  10  -9   0 12570.1 1934.66   3
 -10   9   0 14195.7 2546.30   4
  11  -9   0 609.297 385.822   3
 -11   9   0-593.576 645.138   4
  12  -9   0 4159.36 1205.33   3
   0  -9  -1 15049.1 1678.94   3
   0  -9   1 12328.6 1614.31   3
  -1  -9  -1 6723.52 1142.15   3
  -1  -9   1 9435.13 1375.72   3
   1  -9   1 7386.61 1240.66   3
   1  -9  -1 9116.91 1314.91   3
  -2  -9   1 43.4902 269.837   3
   2  -9   1 719.157 449.696   3
   2  -9  -1 358.569 532.203   3
  -2  -9  -1 51.8207 328.971   3
   3  -9   1 376.773 268.870   3
   3  -9  -1 246.586 290.845   3
   4  -9   1 7855.65 1345.68   3
   4  -9  -1 10028.5 1418.68   3
   5  -9  -1 9493.23 1428.66   3
  -5   9  -1 10815.2 2161.58   4
   5  -9   1 11275.1 1583.05   3
   6  -9   1-118.224 348.553   3
   6  -9  -1 237.445 259.509   3
  -6   9  -1 356.376 477.174   4
   7  -9  -1 12566.3 1752.78   3
   7  -9   1 12365.2 1713.31   3
  -7   9   1 11383.3 2245.99   4
  -7   9  -1 13531.6 2449.84   4
   8  -9   1 2142.07 950.190   3
   8  -9  -1 3084.68 949.253   3
  -8   9   1 2861.29 1180.20   4
  -8   9  -1 1444.80 712.295   4
   9  -9   1 2554.81 920.429   3
   9  -9  -1 846.061 507.297   3
  -9   9   1 1516.90 863.012   4
  -9   9  -1 1358.41 896.209   4
  10  -9   1 2481.22 920.878   3
  10  -9  -1 2135.30 844.114   3
 -10   9   1 2145.01 1188.78   4
 -10   9  -1 2586.35 1279.00   4
  11  -9   1 12063.7 1961.55   3
  11  -9  -1 11611.6 1882.75   3
 -11   9   1 13532.5 2488.24   4
 -11   9  -1 12520.8 2527.60   4
  12  -9   1 262.261 340.314   3
  12  -9  -1 102.007 427.963   3
   0  -9  -2-226.469 309.011   3
   0  -9   2-131.946 415.794   3
  -1  -9  -2 5057.44 1051.78   3
  -1  -9   2 4039.50 910.816   3
   1  -9  -2 5355.07 987.055   3
   1  -9   2 4747.08 1002.38   3
  -2  -9   2 22255.4 2200.19   3
   2  -9   2 21686.2 2157.58   3
   2  -9  -2 20196.4 1927.86   3
   3  -9   2 6178.79 1189.88   3
   3  -9  -2 7789.63 1190.51   3
  -3   9  -2 6928.15 1636.85   4
   4  -9   2 3854.85 942.219   3
   4  -9  -2 2316.73 700.860   3
  -4   9  -2 2132.15 1041.78   4
   5  -9   2 2292.29 783.815   3
   5  -9  -2 2900.62 851.348   3
  -5   9  -2 249.512 392.972   4
   6  -9   2 3978.48 1016.99   3
   6  -9  -2 2674.64 752.637   3
  -6   9  -2 3080.33 1155.33   4
   7  -9   2 517.097 371.362   3
   7  -9  -2 1045.54 693.466   3
  -7   9  -2 1070.27 743.807   4
   8  -9   2 968.083 737.993   3
   8  -9  -2 2211.97 819.211   3
  -8   9   2 1697.07 889.570   4
  -8   9  -2 1448.35 1049.74   4
   9  -9   2 505.906 592.496   3
   9  -9  -2 385.582 436.953   3
  -9   9   2 390.415 915.113   4
  -9   9  -2 290.990 431.829   4
  10  -9   2 2229.50 930.186   3
  10  -9  -2 1098.46 582.577   3
 -10   9   2 1568.73 911.569   4
 -10   9  -2 1105.23 874.555   4
  11  -9   2 989.383 752.822   3
  11  -9  -2 674.650 562.774   3
 -11   9   2 1163.65 873.937   4
 -11   9  -2 1302.76 891.533   4
  12  -9  -2 370.260 363.158   3
  13  -9  -2 262.569 552.602   3
   0  -9   3 1520.29 620.809   3
  -1   9  -3 18518.1 2502.39   4
  -1  -9   3 12774.1 1694.31   3
   1  -9   3 18837.2 2056.77   3
  -2  -9   3 3045.03 877.756   3
   2  -9   3 2803.95 839.442   3
  -2   9  -3 1789.95 751.633   4
   3  -9   3 8325.27 1340.73   3
   3  -9  -3 4314.55 914.981   3
  -3   9  -3 6155.71 1528.23   4
   4  -9   3-171.610 485.989   3
   4  -9  -3 539.571 381.754   3
  -4   9  -3 275.886 594.363   4
   5  -9   3 10159.5 1534.94   3
  -5   9  -3 12482.9 2221.20   4
   5  -9  -3 10532.8 1441.53   3
   6  -9  -3 8864.63 1369.88   3
  -6   9  -3 10065.4 2041.65   4
   6  -9   3 11835.6 1718.73   3
   7  -9   3 1134.90 615.845   3
   7  -9  -3 40.4394 394.922   3
  -7   9  -3 117.837 420.052   4
   8  -9   3 3370.12 934.458   3
   8  -9  -3 3308.81 937.591   3
  -8   9  -3 2776.66 1204.06   4
   9  -9   3-228.811 362.962   3
   9  -9  -3 662.216 572.390   3
  -9   9   3 1082.42 721.057   4
  -9   9  -3 1225.88 643.222   4
  10  -9   3 5881.56 1330.10   3
  10  -9  -3 6574.11 1351.86   3
 -10   9   3 7809.31 1907.03   4
 -10   9  -3 6763.63 1760.78   4
  11  -9  -3 180.485 510.662   3
 -11   9   3-625.120 753.499   4
  12  -9  -3 3846.91 1140.48   3
  13  -9  -3 3721.65 995.240   3
   0  -9   4 235.016 502.790   3
   0   9  -4 1939.02 840.531   4
  -1  -9   4 632.816 387.072   3
   1  -9   4 1232.61 519.994   3
   1   9  -4 528.005 560.911   4
  -1   9  -4 564.649 408.943   4
   2  -9   4 1001.86 495.914   3
   2   9  -4 685.646 643.285   4
  -2   9  -4 1144.10 636.702   4
  -2  -9   4 1074.92 512.520   3
   3  -9   4 2855.62 798.759   3
   3   9  -4 2928.84 914.512   4
  -3   9  -4 2947.64 983.651   4
   4  -9   4 1932.56 735.956   3
  -4   9  -4 2545.42 1034.40   4
   5  -9   4 10338.6 1574.14   3
  -5   9  -4 9135.47 1882.29   4
   6  -9   4 549.849 565.729   3
  -6   9  -4 143.168 420.224   4
   7  -9   4 332.771 333.971   3
  -7   9  -4 561.376 615.250   4
   8  -9   4 2003.04 658.128   3
  -8   9  -4 2781.64 1173.70   4
   9  -9   4 20317.5 2393.46   3
  -9   9  -4 18635.0 2997.22   4
  10  -9   4 325.658 411.376   3
 -10   9   4 1373.89 997.501   4
 -10   9  -4 2614.82 1200.99   4
   0  -9   5 9372.56 1472.32   3
   0   9  -5 9538.87 1690.63   4
  -1  -9   5 227.746 359.279   3
   1  -9   5 1099.50 438.183   3
   1   9  -5 368.261 479.778   4
   2  -9   5 2789.68 803.020   3
  -2   9  -5 5252.89 1346.90   4
   3  -9   5 3943.62 1045.91   3
  -3   9  -5 4891.17 1318.68   4
   4  -9   5 1138.03 709.745   3
  -4   9  -5 2983.09 1247.72   4
   5  -9   5-362.442 499.496   3
  -5   9  -5 617.941 750.512   4
   6  -9   5 9741.83 1594.97   3
  -6   9  -5 11776.5 2299.98   4
   7  -9   5 9661.07 1644.65   3
  -7   9  -5 9103.24 2150.77   4
   8  -9   5 1939.87 820.993   3
  -8   9  -5 876.297 619.724   4
  -9   9  -5 1325.07 992.049   4
   0  -9   6-250.551 479.653   3
  -1  -9   6 6695.03 1311.82   3
   1  -9   6 9291.88 1540.78   3
  -1   9  -6 8218.03 1336.56   5
  -1   9  -6 7330.19 1525.97   4
   2  -9   6 1727.59 737.173   3
  -2   9  -6 1490.92 637.184   5
  -2   9  -6 1372.93 690.516   4
  -3   9  -6 13832.3 1833.83   5
  -3   9  -6 15744.2 2457.48   4
   3  -9   6 11311.0 1710.34   3
   4  -9   6 1841.18 770.758   3
  -4   9  -6 952.678 621.489   4
   5  -9   6 519.817 378.728   3
  -5   9  -6-604.915 699.208   4
   6  -9   6 1185.86 620.857   3
  -6   9  -6 1528.20 878.631   4
   7  -9   6 2866.40 932.541   3
  -7   9  -6 1797.16 955.452   4
  -8   9  -6 975.341 854.412   4
   0  -9   7 17777.0 2156.30   3
   1  -9   7 774.856 432.601   3
  -1   9  -7 1018.70 543.993   5
   2  -9   7 1350.65 661.588   3
  -2   9  -7 1832.18 668.690   5
   3  -9   7 3522.51 989.183   3
  -3   9  -7 3310.40 986.103   5
  -4   9  -7 8389.00 1509.79   5
  -4   9  -7 8329.96 1871.16   4
   4  -9   7 11910.1 1759.10   3
  -5   9  -7-828.663 814.042   4
  -6   9  -7 3975.36 1422.57   4
  -7   9  -7 1760.66 835.945   4
  -8   9  -7-520.017 921.075   4
  -1   9  -8 223.867 312.094   5
  -2   9  -8 204.361 275.174   5
  -3   9  -8 3189.79 990.615   5
  -4   9  -8 2082.20 773.670   5
  -6   9  -8 1167.26 757.933   4
   0 -10   0 5613.51 1185.22   3
  -1 -10   0-190.967 528.075   3
   1 -10   0 802.143 549.751   3
   2 -10   0 80262.1 4365.78   3
   3 -10   0 1147.72 611.976   3
   4 -10   0 115859. 5470.14   3
   5 -10   0 1168.19 754.963   3
  -6  10   0 26293.8 3587.01   4
   6 -10   0 23243.2 2445.07   3
   7 -10   0 464.158 507.231   3
  -7  10   0 1775.79 1111.46   4
   8 -10   0 30779.8 3035.16   3
  -8  10   0 28945.4 3838.86   4
   9 -10   0 106.950 464.321   3
  10 -10   0 25775.1 2967.47   3
   0 -10  -1 492.306 442.832   3
   0 -10   1 35.2907 518.031   3
  -1 -10  -1 29202.9 2577.90   3
  -1 -10   1 28967.2 2655.15   3
   1 -10  -1 28796.9 2575.24   3
   1 -10   1 26138.8 2502.00   3
   2 -10  -1 3250.32 946.678   3
   2 -10   1 4149.53 1053.37   3
   3 -10   1 119557. 5522.16   3
   3 -10  -1 100902. 4924.82   3
   4 -10   1 4157.81 1101.82   3
   4 -10  -1 4012.98 1092.03   3
  -4  10  -1 3765.47 1514.25   4
  -5  10  -1 43820.7 4526.91   4
   5 -10   1 45393.1 3459.40   3
   5 -10  -1 34228.6 2924.63   3
   6 -10   1 1646.02 795.078   3
   6 -10  -1 551.858 307.858   3
  -6  10  -1 1294.23 966.552   4
  -7  10   1 19503.2 3062.00   4
  -7  10  -1 22547.4 3417.17   4
   7 -10   1 22452.4 2487.90   3
   7 -10  -1 22626.3 2487.30   3
   8 -10   1 3217.73 1032.77   3
   8 -10  -1 4089.48 1097.52   3
  -8  10   1 3907.24 1556.90   4
  -8  10  -1 2609.90 1460.95   4
   9 -10   1 65261.1 4567.99   3
   9 -10  -1 65945.6 4503.65   3
  10 -10  -1 2392.56 1084.40   3
   0 -10   2 30685.1 2757.90   3
  -1 -10   2-60.5165 479.153   3
   1 -10   2 1786.90 735.355   3
  -2  10  -2 66407.0 5317.82   4
   2 -10  -2 72599.1 4022.96   3
   2 -10   2 63711.1 4022.93   3
   3 -10   2 2759.12 907.575   3
   3 -10  -2 2360.90 842.877   3
  -3  10  -2 3357.81 1372.91   4
  -4  10  -2 47585.4 4658.39   4
   4 -10   2 48805.6 3609.04   3
   4 -10  -2 46558.9 3310.36   3
   5 -10   2 74.0285 499.443   3
   5 -10  -2 901.619 516.616   3
  -5  10  -2 657.910 606.427   4
  -6  10  -2 18317.1 3004.65   4
   6 -10   2 17149.2 2130.84   3
   6 -10  -2 14123.7 1850.32   3
   7 -10   2 6310.99 1374.42   3
   7 -10  -2 6180.46 1286.54   3
  -7  10  -2 6500.23 1806.76   4
   8 -10  -2 73809.2 4575.53   3
  -8  10  -2 77713.9 6226.82   4
   8 -10   2 77344.8 4819.92   3
   9 -10  -2 3603.62 1225.07   3
  10 -10  -2 65241.2 4653.83   3
   0 -10   3 108.255 382.657   3
   0  10  -3 35.4727 451.721   4
  -1  10  -3 51239.4 4591.53   4
  -1 -10   3 60906.6 4027.72   3
   1 -10   3 54596.3 3782.15   3
  -2  10  -3 13467.3 2357.51   4
   2 -10   3 12569.2 1827.33   3
  -3  10  -3 69471.5 5449.51   4
   3 -10   3 70732.1 4296.82   3
   4 -10   3 990.762 561.869   3
  -4  10  -3 814.344 814.536   4
  -5  10  -3 19667.7 2998.22   4
   5 -10   3 17675.8 2242.27   3
   6 -10   3 488.024 541.263   3
  -6  10  -3 424.359 645.049   4
  -7  10  -3 23523.3 3338.78   4
   7 -10   3 27520.8 2854.21   3
  -8  10  -3 585.753 706.453   4
   0  10  -4 33346.5 3559.79   4
   0 -10   4 31983.1 2915.76   3
   1 -10   4 9305.31 1651.53   3
   1  10  -4 10458.1 1994.07   4
  -1  10  -4 8963.46 1929.37   4
  -1 -10   4 13549.3 1936.30   3
  -2  10  -4 55992.3 4782.38   4
   2 -10   4 55618.0 3920.81   3
   3 -10   4 3391.93 1022.01   3
  -3  10  -4 2871.26 1336.07   4
  -4  10  -4 60843.6 5167.99   4
   4 -10   4 65350.0 4267.35   3
   5 -10   4 7207.04 1474.58   3
  -5  10  -4 6328.74 1777.94   4
  -6  10  -4 24017.8 3406.28   4
   6 -10   4 28652.5 2923.55   3
  -7  10  -4-15.3146 547.031   4
   0 -10   5-185.214 533.092   3
  -1  10  -5 19743.8 2726.41   4
  -1 -10   5 19186.8 2347.67   3
   1 -10   5 17866.1 2190.48   3
   2 -10   5 5584.91 1283.51   3
  -2  10  -5 6361.72 1718.81   4
  -3  10  -5 70045.5 5398.75   4
   3 -10   5 76506.9 4675.30   3
  -4  10  -5 6708.30 1707.52   4
  -5  10  -5 55868.8 5106.59   4
  -6  10  -5 1275.15 974.907   4
  -3  10  -6 16.6284 563.666   4
  -4  10  -6 46670.9 4509.79   4
  -5  10  -6 2896.56 1274.92   4
  -6  10  -6 37022.3 4308.51   4
   0 -11   0 1182.74 677.983   3
   1 -11   0-70.6285 498.273   3
   2 -11   0 2701.86 906.508   3
   3 -11   0 110.991 336.855   3
   4 -11   0 3581.62 958.878   3
   5 -11   0 557.333 648.806   3
   6 -11   0 2521.88 970.218   3
   0 -11   1 11275.4 1832.03   3
   1 -11   1 1860.13 836.122   3
  -1 -11   1 2911.10 873.639   3
   2 -11  -1 1914.14 718.167   3
   2 -11   1 1404.96 715.538   3
   3 -11  -1 320.847 415.556   3
   3 -11   1 411.140 368.663   3
  -3  11  -1 476.885 752.255   4
   4 -11   1 2186.59 773.326   3
   4 -11  -1 4222.40 988.871   3
   5 -11   1 4312.41 1238.70   3
   5 -11  -1 2797.44 916.493   3
   6 -11  -1 856.131 661.847   3
   7 -11  -1 4952.96 1281.32   3
   0 -11   2 29.6930 483.067   3
   1 -11   2 842.086 681.036   3
  -1  11  -2 1006.56 668.025   4
  -1 -11   2 1840.13 847.808   3
   2 -11   2 8124.24 1600.23   3
  -2  11  -2 7980.51 2012.23   4
   3 -11   2 3313.06 1035.65   3
  -3  11  -2 3002.60 1351.14   4
   4 -11   2 5304.87 1255.72   3
  -4  11  -2 8397.57 2127.99   4
   0 -11   3 387.052 536.008   3
   0  11  -3 389.315 616.916   4
   1  11  -3 5883.53 1626.93   4
  -1  11  -3 7042.67 1797.15   4
  -1 -11   3 5477.91 1315.86   3
   2  11  -3 3693.61 1347.73   4
  -2  11  -3 1548.16 848.064   4
  -3  11  -3 316.152 626.759   4
   0  11  -4-353.703 466.022   4
  -1  11  -4 418.612 605.958   4
  -2  11  -4 814.623 586.189   4
  -3  11  -4 2381.84 1145.77   4
   0   0   0    0.00    0.00   0
TITL 4_PbI3 in Pnma
REM Pnma (#62, found as Pmcn in cab setting)
CELL 0.71073  14.904883   8.066026   9.590166  90.0000  90.0000  90.0000
ZERR    6.00   0.000448   0.000236   0.000253   0.0000   0.0000   0.0000
LATT  1
SYMM -x+1/2,-y, z+1/2
SYMM -x, y+1/2,-z
SYMM  x+1/2,-y+1/2,-z+1/2
SFAC C H N I Pb
UNIT 30.00 36.00 6.00 18.00 6.00
TREF
HKLF 4
END
;
_shelx_hkl_checksum              31464
_olex2_submission_special_instructions 'No special instructions were received'
loop_
_space_group_symop_operation_xyz
'x, y, z'
'-x+1/2, -y, z+1/2'
'x+1/2, -y+1/2, -z+1/2'
'-x, y+1/2, -z'
'-x, -y, -z'
'x-1/2, y, -z-1/2'
'-x-1/2, y-1/2, z-1/2'
'x, -y-1/2, z'
loop_
_atom_site_label
_atom_site_type_symbol
_atom_site_fract_x
_atom_site_fract_y
_atom_site_fract_z
_atom_site_U_iso_or_equiv
_atom_site_adp_type
_atom_site_occupancy
_atom_site_site_symmetry_order
_atom_site_calc_flag
_atom_site_refinement_flags_posn
_atom_site_refinement_flags_adp
_atom_site_refinement_flags_occupancy
_atom_site_disorder_assembly
_atom_site_disorder_group
Pb1 Pb 0.5000 0.5000 0.5000 0.01025(12) Uani 1 2 d S T P . .
I1 I 0.60955(5) 0.7500 0.69658(7) 0.01855(18) Uani 1 2 d S T P . .
I2 I 0.33529(5) 0.7500 0.54016(7) 0.01480(16) Uani 1 2 d S T P . .
I3 I 0.44274(5) 0.2500 0.75326(8) 0.0324(2) Uani 1 2 d S T P . .
C3 C 0.3945(5) 0.8333(9) 0.9238(7) 0.0208(16) Uani 0.5 1 d . . . A 2
H3 H 0.4267 0.8912 0.8536 0.025 Uiso 0.5 1 calc R . . A 2
N4 N 0.3945(5) 0.8333(9) 0.9238(7) 0.0208(16) Uani 0.5 1 d . . . A 1
H4 H 0.4244 0.8869 0.8587 0.025 Uiso 0.5 1 calc R . . A 1
C1 C 0.3497(6) 0.9192(11) 1.0214(8) 0.0196(17) Uani 1 1 d . . . . .
H1B H 0.3508 1.0370 1.0203 0.024 Uiso 0.5 1 calc R . . A 2
H1A H 0.3508 1.0370 1.0203 0.024 Uiso 0.5 1 calc R . . A 1
C2 C 0.3022(5) 0.8368(11) 1.1228(8) 0.0200(17) Uani 1 1 d . . . . .
H2 H 0.2699 0.8966 1.1918 0.024 Uiso 1 1 calc R . . . .
loop_
_atom_site_aniso_label
_atom_site_aniso_U_11
_atom_site_aniso_U_22
_atom_site_aniso_U_33
_atom_site_aniso_U_23
_atom_site_aniso_U_13
_atom_site_aniso_U_12
Pb1 0.0101(2) 0.0101(2) 0.0105(2) -0.00041(13) 0.00045(14) 0.00000(14)
I1 0.0132(4) 0.0295(4) 0.0129(3) 0.000 -0.0049(3) 0.000
I2 0.0077(3) 0.0198(3) 0.0169(3) 0.000 0.0019(3) 0.000
I3 0.0104(4) 0.0775(7) 0.0094(3) 0.000 0.0018(3) 0.000
C3 0.028(4) 0.019(4) 0.016(3) 0.006(3) 0.001(3) -0.004(3)
N4 0.028(4) 0.019(4) 0.016(3) 0.006(3) 0.001(3) -0.004(3)
C1 0.021(4) 0.016(4) 0.021(4) -0.002(3) 0.000(3) 0.005(3)
C2 0.013(4) 0.031(5) 0.016(4) -0.006(3) 0.001(3) 0.002(3)
loop_
_atom_type_symbol
_atom_type_description
_atom_type_scat_dispersion_real
_atom_type_scat_dispersion_imag
_atom_type_scat_source
C C 0.0033 0.0016 'International Tables Vol C Tables 4.2.6.8 and 6.1.1.4'
H H 0.0000 0.0000 'International Tables Vol C Tables 4.2.6.8 and 6.1.1.4'
I I -0.4742 1.8119 'International Tables Vol C Tables 4.2.6.8 and 6.1.1.4'
N N 0.0061 0.0033 'International Tables Vol C Tables 4.2.6.8 and 6.1.1.4'
Pb Pb -3.3944 10.1111 'International Tables Vol C Tables 4.2.6.8 and 6.1.1.4'
loop_
_geom_angle_atom_site_label_1
_geom_angle_atom_site_label_2
_geom_angle_atom_site_label_3
_geom_angle
_geom_angle_site_symmetry_1
_geom_angle_site_symmetry_3
I1 Pb1 I1 180.0 5_666 .
I1 Pb1 I3 94.820(15) 5_666 5_666
I1 Pb1 I3 94.819(15) . .
I1 Pb1 I3 85.181(15) . 5_666
I1 Pb1 I3 85.180(15) 5_666 .
I2 Pb1 I1 94.379(15) 5_666 .
I2 Pb1 I1 85.621(15) . .
I2 Pb1 I1 85.621(15) 5_666 5_666
I2 Pb1 I1 94.379(15) . 5_666
I2 Pb1 I2 180.0 . 5_666
I2 Pb1 I3 84.320(15) . 5_666
I2 Pb1 I3 84.321(15) 5_666 .
I2 Pb1 I3 95.679(15) . .
I2 Pb1 I3 95.679(15) 5_666 5_666
I3 Pb1 I3 180.0 5_666 .
Pb1 I1 Pb1 77.912(16) . 4_656
Pb1 I2 Pb1 78.118(16) 4_656 .
Pb1 I3 Pb1 76.143(16) 4_646 .
C1 C3 C3 121.1(5) . 8_575
C1 N4 N4 121.1(5) . 8_575
C3 C1 C2 120.0(8) . .
N4 C1 C2 120.0(8) . .
C1 C2 C2 118.9(5) . 8_575
loop_
_geom_bond_atom_site_label_1
_geom_bond_atom_site_label_2
_geom_bond_distance
_geom_bond_site_symmetry_2
Pb1 I1 3.2073(5) 5_666
Pb1 I1 3.2073(5) .
Pb1 I2 3.2002(5) .
Pb1 I2 3.2002(5) 5_666
Pb1 I3 3.2701(6) .
Pb1 I3 3.2701(6) 5_666
I1 Pb1 3.2073(5) 4_656
I2 Pb1 3.2002(5) 4_656
I3 Pb1 3.2701(6) 4_646
C3 C3 1.343(14) 8_575
C3 C1 1.343(11) .
N4 N4 1.343(14) 8_575
N4 C1 1.343(11) .
C1 C2 1.375(12) .
C2 C2 1.400(18) 8_575
