#------------------------------------------------------------------------------
#$Date: 2019-11-07 22:35:57 +0200 (Thu, 07 Nov 2019) $
#$Revision: 223821 $
#$URL: file:///home/coder/svn-repositories/cod/cif/7/04/98/7049827.cif $
#------------------------------------------------------------------------------
#
# This file is available in the Crystallography Open Database (COD),
# http://www.crystallography.net/
#
# All data on this site have been placed in the public domain by the
# contributors.
#
data_7049827
loop_
_publ_author_name
'Blasco, Daniel'
'L\'opez-de-Luzuriaga, Jos\'e M'
'Monge, Miguel'
'Olmos, M. Elena'
'Rodr\'iguez-Castillo, Mar\'ia'
_publ_section_title
;
 Balancing ionic and H-bonding interactions for the formation of Au(i)
 hydrometallogels.
;
_journal_issue                   22
_journal_name_full
'Dalton transactions (Cambridge, England : 2003)'
_journal_page_first              7519
_journal_page_last               7526
_journal_paper_doi               10.1039/c9dt01154d
_journal_volume                  48
_journal_year                    2019
_chemical_compound_source        'synthesis as described'
_chemical_formula_moiety         'C10 H14 Au F3 N5 O2 P'
_chemical_formula_sum            'C10 H14 Au F3 N5 O2 P'
_chemical_formula_weight         521.2
_space_group_IT_number           2
_space_group_name_Hall           '-P 1'
_space_group_name_H-M_alt        'P -1'
_symmetry_cell_setting           triclinic
_symmetry_Int_Tables_number      2
_symmetry_space_group_name_Hall  '-P 1'
_symmetry_space_group_name_H-M   'P -1'
_atom_sites_solution_hydrogens   geom
_atom_sites_solution_primary     Patterson
_atom_sites_solution_secondary   geom
_audit_conform_dict_location     ftp://ftp.iucr.org/pub/cif_core.dic
_audit_conform_dict_name         cif_core.dic
_audit_conform_dict_version      2.4.3
_audit_creation_date             2016-05-18T12:11:24-00:00
_audit_creation_method           'WinGX routine CIF_UPDATE'
_audit_update_record
;
2019-03-07 deposited with the CCDC.    2019-04-23 downloaded from the CCDC.
;
_cell_angle_alpha                103.280(3)
_cell_angle_beta                 101.295(6)
_cell_angle_gamma                93.609(6)
_cell_formula_units_Z            2
_cell_length_a                   7.1858(5)
_cell_length_b                   7.6550(7)
_cell_length_c                   15.5113(14)
_cell_measurement_reflns_used    2928
_cell_measurement_temperature    173(2)
_cell_measurement_theta_max      27.445
_cell_measurement_theta_min      2.752
_cell_measurement_wavelength     0.71073
_cell_volume                     809.11(12)
_computing_cell_refinement       'HKL Scalepack (Otwinowski & Minor 1997)'
_computing_data_collection       'Collect (Bruker AXS BV, 1997-2004)'
_computing_data_reduction
'HKL Denzo and Scalepack (Otwinowski & Minor 1997)'
_computing_molecular_graphics    'Ortep-3 for Windows (Farrugia, 1997)'
_computing_publication_material  'WinGX publication routines (Farrugia, 1999)'
_computing_structure_refinement  'SHELXL-2014/7 (Sheldrick, 2014)'
_diffrn_ambient_temperature      173(2)
_diffrn_detector                 'CCD plate'
_diffrn_detector_area_resol_mean 9
_diffrn_measured_fraction_theta_full 0.965
_diffrn_measured_fraction_theta_max 0.955
_diffrn_measurement_device       '95mm CCD camera on \k-goniostat'
_diffrn_measurement_device_type  KappaCCD
_diffrn_measurement_method       'CCD rotation images, thick slices'
_diffrn_orient_matrix_UB_11      0.061626
_diffrn_orient_matrix_UB_12      0.01331
_diffrn_orient_matrix_UB_13      -0.050969
_diffrn_orient_matrix_UB_21      0.128665
_diffrn_orient_matrix_UB_22      0.003385
_diffrn_orient_matrix_UB_23      0.039601
_diffrn_orient_matrix_UB_31      -0.006893
_diffrn_orient_matrix_UB_32      -0.134389
_diffrn_orient_matrix_UB_33      -0.020917
_diffrn_radiation_monochromator  'horizonally mounted graphite crystal'
_diffrn_radiation_probe          x-ray
_diffrn_radiation_type           MoK\a
_diffrn_radiation_wavelength     0.71073
_diffrn_reflns_av_R_equivalents  0.047
_diffrn_reflns_av_unetI/netI     0.0393
_diffrn_reflns_Laue_measured_fraction_full 0.965
_diffrn_reflns_Laue_measured_fraction_max 0.955
_diffrn_reflns_limit_h_max       9
_diffrn_reflns_limit_h_min       -9
_diffrn_reflns_limit_k_max       9
_diffrn_reflns_limit_k_min       -9
_diffrn_reflns_limit_l_max       20
_diffrn_reflns_limit_l_min       -20
_diffrn_reflns_number            9758
_diffrn_reflns_point_group_measured_fraction_full 0.965
_diffrn_reflns_point_group_measured_fraction_max 0.955
_diffrn_reflns_theta_full        25.242
_diffrn_reflns_theta_max         27.445
_diffrn_reflns_theta_min         2.752
_diffrn_source                   'Enraf Nonius FR590'
_diffrn_standards_number         0
_exptl_absorpt_coefficient_mu    9.233
_exptl_absorpt_correction_T_max  0.439
_exptl_absorpt_correction_T_min  0.351
_exptl_absorpt_correction_type   multi-scan
_exptl_absorpt_process_details
;
        [c.f. r.h. blessing, acta cryst. (1995), a51, 33-38]
;
_exptl_crystal_colour            colorless
_exptl_crystal_density_diffrn    2.139
_exptl_crystal_density_method    'not measured'
_exptl_crystal_description       prism
_exptl_crystal_F_000             492
_exptl_crystal_size_max          0.225
_exptl_crystal_size_mid          0.06
_exptl_crystal_size_min          0.05
_refine_diff_density_max         2.212
_refine_diff_density_min         -2.274
_refine_diff_density_rms         0.194
_refine_ls_extinction_method     none
_refine_ls_goodness_of_fit_ref   1.105
_refine_ls_hydrogen_treatment    constr
_refine_ls_matrix_type           full
_refine_ls_number_constraints    0
_refine_ls_number_parameters     199
_refine_ls_number_reflns         3528
_refine_ls_number_restraints     62
_refine_ls_restrained_S_all      1.108
_refine_ls_R_factor_all          0.0578
_refine_ls_R_factor_gt           0.051
_refine_ls_shift/su_max          0.001
_refine_ls_shift/su_mean         0
_refine_ls_structure_factor_coef Fsqd
_refine_ls_weighting_details
'w=1/[\s^2^(Fo^2^)+(0.0834P)^2^+1.6260P] where P=(Fo^2^+2Fc^2^)/3'
_refine_ls_weighting_scheme      calc
_refine_ls_wR_factor_gt          0.1317
_refine_ls_wR_factor_ref         0.1371
_reflns_Friedel_coverage         0
_reflns_number_gt                3152
_reflns_number_total             3528
_reflns_threshold_expression     'I > 2\s(I)'
_iucr_refine_instructions_details
;
 
    shelx.res created by SHELXL-2014/7
 
TITL mrc12db020 in P -1
CELL  0.71073   7.1858   7.6550  15.5113  103.280  101.295   93.609
ZERR     2.00   0.0005   0.0007   0.0014    0.003    0.006    0.006
LATT   1
SFAC  C    H    AU   F    N    O    P
UNIT  20 28 2 6 10 4 2
MERG   2
OMIT     0   0   1
OMIT     0   1   1
DFIX  0.91 0.02 N5 H5A N5 H5B
DELU $C $N $F $O
FLAT   N1 > N5
DFIX 1.35 0.02 C5 C6 C6 N3 N3 C7 C7 N4 N4 C8 C8 C5
DFIX 2.34 0.02 C5 N3 C6 C7 N3 N4 C7 C8 N4 C5 C8 C6
FMAP   2
PLAN   10
ACTA
BOND   $H
L.S.  20
WGHT    0.083400    1.626000
FVAR       1.90442
AU    3    0.770995    0.613823    0.825172    11.00000    0.06754    0.04432 =
         0.04832    0.02143    0.01497    0.00657
P     7    0.763698    0.683467    0.692193    11.00000    0.07893    0.06393 =
         0.04850    0.02650    0.02218    0.01546
C1    1    0.851726    0.914761    0.703899    11.00000    0.11969    0.08277 =
         0.08011    0.04125    0.01950   -0.01372
AFIX  33
H1A   2    0.980310    0.939357    0.739204    11.00000   -1.50000
H1B   2    0.849638    0.935144    0.644933    11.00000   -1.50000
H1C   2    0.772219    0.993249    0.733808    11.00000   -1.50000
AFIX   0
C2    1    0.524822    0.657019    0.625487    11.00000    0.08918    0.07359 =
         0.05067    0.02496    0.00642    0.00592
AFIX  33
H2A   2    0.467850    0.535486    0.616274    11.00000   -1.50000
H2B   2    0.450724    0.739766    0.656693    11.00000   -1.50000
H2C   2    0.528143    0.681660    0.567819    11.00000   -1.50000
AFIX   0
C3    1    0.897942    0.547525    0.619925    11.00000    0.12116    0.12586 =
         0.06623    0.03193    0.03681    0.04878
AFIX  33
H3A   2    1.028080    0.556113    0.652030    11.00000   -1.50000
H3B   2    0.842618    0.423808    0.603216    11.00000   -1.50000
H3C   2    0.894243    0.590641    0.566246    11.00000   -1.50000
AFIX   0
N1    5    0.764595    0.557820    0.948863    11.00000    0.06732    0.03598 =
         0.05036    0.01992    0.01364    0.00296
C4    1    0.739840    0.669157    1.023743    11.00000    0.07110    0.04106 =
         0.05610    0.02345    0.01372    0.00755
AFIX  43
H4    2    0.734965    0.792638    1.030777    11.00000   -1.20000
AFIX   0
N2    5    0.722655    0.582681    1.088164    11.00000    0.07224    0.03948 =
         0.04982    0.01916    0.01638    0.00778
AFIX  43
H2    2    0.705740    0.630050    1.141575    11.00000   -1.20000
AFIX   0
C5    1    0.737225    0.404200    1.052544    11.00000    0.05960    0.03459 =
         0.05128    0.01815    0.00948    0.00286
C6    1    0.762559    0.389536    0.966589    11.00000    0.05628    0.03297 =
         0.05215    0.01760    0.01009    0.00204
N3    5    0.785567    0.233310    0.909786    11.00000    0.10842    0.04767 =
         0.05361    0.01296    0.02728    0.00911
C7    1    0.779934    0.094759    0.946577    11.00000    0.13952    0.03441 =
         0.07418    0.01504    0.03663    0.01023
AFIX  43
H7    2    0.800872   -0.015093    0.911391    11.00000   -1.20000
AFIX   0
N4    5    0.747614    0.092930    1.028751    11.00000    0.11485    0.04034 =
         0.06811    0.02243    0.03182    0.01389
C8    1    0.727733    0.250396    1.085938    11.00000    0.06870    0.04207 =
         0.05674    0.02639    0.01396    0.01067
N5    5    0.696620    0.248976    1.168079    11.00000    0.09195    0.05142 =
         0.06139    0.03255    0.03136    0.02201
AFIX  93
H5A   2    0.689410    0.148896    1.184154    11.00000   -1.20000
H5B   2    0.683837    0.348142    1.204788    11.00000   -1.20000
AFIX   0
C9    1    0.316553    0.178839    0.706566    11.00000    0.08903    0.06280 =
         0.05715    0.02939    0.02330    0.00725
F1    4    0.241653   -0.046154    0.565814    11.00000    0.22082    0.06447 =
         0.10903   -0.00436    0.01032    0.02335
F2    4    0.484970    0.137589    0.588791    11.00000    0.16904    0.19968 =
         0.12308    0.04080    0.09755    0.04588
F3    4    0.215266    0.225303    0.558654    11.00000    0.24177    0.12345 =
         0.07981    0.05302    0.01575    0.07783
C10   1    0.313251    0.123810    0.605664    11.00000    0.12636    0.05988 =
         0.06562    0.02544    0.03231    0.02910
O1    6    0.329962    0.056966    0.746086    11.00000    0.11739    0.09252 =
         0.08778    0.06129    0.02224    0.01091
O2    6    0.313293    0.343474    0.736748    11.00000    0.13583    0.07068 =
         0.06812    0.02062    0.04047    0.02954
HKLF    4
 
REM  mrc12db020 in P -1
REM R1 =  0.0510 for    3152 Fo > 4sig(Fo)  and  0.0578 for all    3528 data
REM    199 parameters refined using     62 restraints
 
END
 
WGHT      0.0834      1.6331
 
REM Highest difference peak  2.212,  deepest hole -2.274,  1-sigma level  0.194
Q1    1   0.7627  0.6354  0.8782  11.00000  0.05    2.21
Q2    1   0.7968  0.5615  0.7715  11.00000  0.05    1.65
Q3    1   0.6502  0.5835  0.8262  11.00000  0.05    1.10
Q4    1   0.5007  0.3862  1.1761  11.00000  0.05    1.05
Q5    1   1.0395  0.6086  0.8204  11.00000  0.05    0.91
Q6    1   0.8232  0.3805  1.1731  11.00000  0.05    0.80
Q7    1   0.6381  0.3841  1.1719  11.00000  0.05    0.74
Q8    1   0.8935  0.6694  0.8335  11.00000  0.05    0.71
Q9    1   0.9167  0.7387  0.8184  11.00000  0.05    0.69
Q10   1   0.0814  0.1119  0.5657  11.00000  0.05    0.62
;
_cod_data_source_file            c9dt01154d2.cif
_cod_data_source_block           shelx
_cod_depositor_comments          'Adding full bibliography for 7049827.cif.'
_cod_database_code               7049827
_iucr_refine_reflections_details
;
   9   1  -1  -43.03   83.02
   9   1  -2  197.28   83.93
  -9  -1   3  193.28  106.52
   9   1  -3  233.80   69.98
   9   1  -4  -62.94   88.91
  -9  -1   4  104.02  102.49
  -9  -1   5  266.84  106.77
   9   1  -5  416.80  105.53
   9   1  -6  537.49  103.73
  -9  -1   6  670.83  121.14
   9   1  -7  138.51   99.24
  -9  -1   7   89.72  105.16
   9   1  -8  382.70  108.65
   9   0  -1  143.89   79.06
   9   0  -2  104.28   70.55
  -9   0   3  418.28  110.66
   9   0  -3  307.11   85.87
  -9   0   4  112.22   77.71
   9   0  -4   55.02   82.94
   9   0  -5   76.86   91.62
  -9   0   5  -63.50  102.72
   9   0  -6  452.33   86.63
  -9   0   6  462.45  126.85
   9   0  -7  368.31   81.33
  -9   0   7   81.33   86.39
   9   0  -8  384.37  100.80
  -9   1   0  212.78  125.25
  -9   1   1  423.12  116.42
  -9   1   2  201.41   87.11
  -9   1   2   37.90   77.66
   9  -1  -2   11.73   73.38
  -9   1   3  327.73  129.80
   9  -1  -3  169.65   91.27
  -9   1   3  149.42  132.82
  -9   1   4  173.46  109.92
  -9   1   4  379.09  113.93
   9  -1  -4  251.39   88.09
   9  -1  -5 -130.59   88.12
  -9   1   5    9.65   99.94
  -9   1   5   -0.17   78.27
  -9   1   6  383.37  119.45
   9  -1  -6  259.12   66.42
  -9   1   6  158.75  101.68
   9  -1  -7  403.63   95.03
  -9   1   7  777.06  122.52
   9  -1  -8   33.12  109.67
  -9   2   0   43.00  122.66
  -9   2   1  260.21  120.53
  -9   2   2  292.00  111.31
  -9   2   2  724.08   97.04
  -9   2   3  -63.09  123.67
  -9   2   3  -58.04  108.58
   9  -2  -3  204.65   79.66
   9  -2  -4   76.98   82.48
  -9   2   4  531.24  143.14
  -9   2   4  131.39   96.08
   9  -2  -5  261.89   97.30
  -9   2   5  330.34  118.74
  -9   2   5  322.17  110.68
   9  -2  -6   92.21  105.54
  -9   2   6   43.37   98.17
  -9   2   6  -23.54   91.26
   9  -2  -7   46.66   89.92
  -9   3   2  287.43   86.16
  -9   3   3  340.79  108.30
   8   4  -2  268.08   77.50
   8   4  -3   67.60   72.45
   8   4  -4  343.18   87.54
  -8  -4   4  296.44   97.45
   8   4  -5  876.09   89.90
  -8  -4   5  560.40  100.44
  -8  -4   6  251.97   92.67
   8   4  -6  231.07   79.99
   8   4  -7  548.06  123.77
  -8  -4   7  113.15   93.19
   8   4  -8  880.85  136.57
  -8  -4   8  717.93  105.83
   8   4  -9  248.31  142.20
  -8  -4   9  -21.97   92.43
   8   3  -1   72.84   85.88
   8   3  -2  201.01   93.00
   8   3  -3  596.99  110.42
  -8  -3   3  536.85   94.36
   8   3  -4   93.48   94.43
  -8  -3   4  108.00   91.48
   8   3  -5  698.38  124.45
  -8  -3   5  592.29  102.22
  -8  -3   6 1152.92  166.23
   8   3  -6 1140.23  129.43
   8   3  -7  -17.84  103.76
  -8  -3   7   41.47   95.40
  -8  -3   8  517.94   80.44
   8   3  -8  670.13  114.41
   8   3  -9  385.67   83.12
  -8  -3   9  455.60  105.08
   8   3 -10   12.41   95.95
  -8  -3  10 -158.91   90.59
  -8  -3  11   87.36   93.44
   8   3 -11  146.82  111.23
   8   2  -1  448.70   89.07
   8   2  -2   14.23   75.42
  -8  -2   3  500.17  107.23
   8   2  -3  655.21  100.84
   8   2  -4  708.68  100.15
  -8  -2   4  768.29  110.39
  -8  -2   5   14.43   80.57
   8   2  -5  -73.37   89.08
  -8  -2   6  932.32  114.08
   8   2  -6 1316.05  120.72
  -8  -2   7  825.20  113.03
   8   2  -7  698.12  109.22
   8   2  -8   78.25  109.36
  -8  -2   8  165.97   93.16
   8   2  -9  933.18   85.49
  -8  -2   9  710.65   81.12
  -8  -2  10  159.11   94.13
   8   2 -10  208.80   96.90
  -8  -2  11  133.07  122.17
   8   2 -11  173.57  102.44
   8   2 -12  404.55  121.57
  -8  -2  12  557.10  112.36
   8   1  -1  917.16   86.18
   8   1  -2  338.34   75.84
  -8  -1   2  159.01   99.26
   8   1  -3    5.56   78.90
  -8  -1   3  195.53   63.09
   8   1  -4  641.56   90.59
  -8  -1   4  623.06   74.62
  -8  -1   5  314.59   97.30
   8   1  -5  265.97   91.00
  -8  -1   6  405.16   91.72
   8   1  -6  246.51   89.57
  -8  -1   7 1390.79  137.85
   8   1  -7 1267.06  103.23
  -8  -1   8  254.32  106.49
   8   1  -8  261.29   61.18
   8   1  -9  555.39  106.90
  -8  -1   9  377.84  102.35
   8   1 -10 1069.09  115.11
  -8  -1  10  746.97  125.22
   8   1 -11   53.68   97.54
  -8  -1  11  -68.49   87.55
   8   1 -12  305.41  116.21
  -8  -1  12  440.59  115.45
  -8  -1  13  372.97   52.42
   8   1 -13  495.44   84.86
  -8   0   1  390.59  115.56
   8   0  -1  447.70   79.08
  -8   0   2 1012.42  113.71
  -8   0   2 1122.87  122.32
   8   0  -2 1093.35  101.51
  -8   0   3  -43.32   95.72
   8   0  -3  120.79   62.09
  -8   0   3  150.06   98.05
  -8   0   4  557.17  107.43
   8   0  -4  387.91   85.53
  -8   0   5  786.26  111.06
   8   0  -5  970.13   90.25
   8   0  -6  112.02   84.50
  -8   0   6  105.28  102.40
   8   0  -7  809.53  111.78
  -8   0   7  982.97  111.06
   8   0  -8 1112.23  116.32
  -8   0   8 1160.77  119.99
   8   0  -9  -75.65   64.10
  -8   0   9   13.98   98.87
   8   0 -10  972.84  108.73
  -8   0  10 1032.24  132.29
   8   0 -11  231.06   65.63
  -8   0  11  649.64  145.66
  -8   0  12  100.85   52.71
   8   0 -12  -65.99   93.78
  -8   0  12  144.13   92.23
  -8   1   0 1205.63  125.26
   8  -1   0 1122.67   93.13
  -8   1   1   -4.04   94.11
   8  -1  -1   97.08   63.45
  -8   1   1  -90.40   98.52
  -8   1   2 1060.73  128.29
   8  -1  -2  897.93   87.51
  -8   1   2  832.66  109.37
  -8   1   3  771.36  107.48
   8  -1  -3  599.09   86.30
  -8   1   3  900.41   93.55
  -8   1   4  117.96   67.05
  -8   1   4 -167.37   91.71
   8  -1  -4  132.09   73.48
  -8   1   5  409.41   98.03
  -8   1   5  990.27  114.48
   8  -1  -5  620.74   87.29
  -8   1   6  332.55   89.70
   8  -1  -6  518.78   67.04
  -8   1   6  726.42  101.03
  -8   1   7   98.57   85.90
  -8   1   7  185.40   83.34
   8  -1  -7  170.16   59.82
  -8   1   8 1469.94  135.40
   8  -1  -8 1185.12  120.44
  -8   1   8 1329.25  116.62
  -8   1   9  726.94  106.72
   8  -1  -9  524.73   98.66
   8  -1 -10  125.99  103.77
  -8   1  10  339.70   98.71
   8  -1 -11  581.30  106.65
  -8   1  11  567.75   62.88
  -8   1  11  717.85  112.37
   8  -1 -12  318.56  165.42
  -8   1  12  175.08   97.42
  -8   1  12   20.16   57.03
   8  -2   0  688.72   68.43
  -8   2   0 1006.96  127.11
  -8   2   1 1025.23  123.75
   8  -2  -1  598.59   74.41
  -8   2   1  807.33  117.76
   8  -2  -2   67.11   73.64
  -8   2   2 -101.12   98.15
  -8   2   2  141.77   87.48
  -8   2   3  826.29  102.69
  -8   2   3 1010.71   87.41
   8  -2  -3  852.17   94.83
  -8   2   4  474.04  111.98
  -8   2   4  373.19   95.99
   8  -2  -4  252.96   73.68
   8  -2  -5   67.91   63.82
  -8   2   5  157.63   87.77
  -8   2   5   56.90   91.11
   8  -2  -6  597.76  173.67
  -8   2   6  718.27  101.37
  -8   2   6  884.98  110.77
   8  -2  -7  -33.70   80.85
  -8   2   7   79.78   98.38
  -8   2   7  136.21   78.23
  -8   2   8  466.05  100.49
  -8   2   8  281.86  106.00
   8  -2  -8  368.51  105.46
   8  -2  -9 1246.39  132.57
  -8   2   9 1357.43  127.38
  -8   2   9 1380.06  114.68
  -8   2  10   54.11   90.29
   8  -2 -10  123.95   98.15
  -8   2  10  365.39   54.65
   8  -2 -11  176.78  133.35
  -8   2  11  257.58   61.77
  -8   2  11  -37.30   97.48
  -8   2  12  271.68   67.90
  -8   3   0   95.57  101.04
  -8   3   1  635.96   88.35
   8  -3  -1  726.43   83.96
  -8   3   2   83.43   90.96
   8  -3  -2  175.38   90.25
  -8   3   2  321.53   99.22
   8  -3  -3  459.41   94.98
  -8   3   3  362.11  101.80
  -8   3   3  429.51  130.99
  -8   3   4  878.35  115.22
   8  -3  -4  575.36   91.37
  -8   3   4  896.61  116.17
   8  -3  -5 -137.76   77.53
  -8   3   5   12.03   64.59
  -8   3   5  140.49   81.09
   8  -3  -6  156.34   92.35
  -8   3   6  285.74   99.97
  -8   3   6  455.06   88.61
  -8   3   7  761.65   72.84
  -8   3   7  596.11   89.42
   8  -3  -7  591.53  113.31
  -8   3   7  879.09   96.64
  -8   3   8  -59.96   94.78
   8  -3  -8   59.31   95.86
  -8   3   8   84.27  111.58
  -8   3   9  557.40   94.96
  -8   3   9  495.91   69.19
   8  -3  -9  412.62  123.95
  -8   3   9  307.39   72.87
  -8   3  10  557.76   75.12
  -8   3  10  729.98  111.38
   8  -3 -10  230.34  101.34
  -8   4   0  -42.58   68.66
  -8   4   1  214.58  108.89
   8  -4  -2  441.83   74.66
  -8   4   2  658.31  121.65
  -8   4   2  818.14  114.29
   8  -4  -3  -18.14   77.32
  -8   4   3  253.21   85.93
  -8   4   3 -250.16   86.36
   8  -4  -4  280.05   83.05
  -8   4   4  575.10  102.53
  -8   4   4  417.93   89.26
   8  -4  -5  166.29   80.34
  -8   4   5  294.48   96.41
  -8   4   5  287.42   97.31
  -8   4   6  -88.61   79.67
  -8   4   6  -49.75   85.72
   8  -4  -6  -37.73   72.32
   8  -4  -7  326.88  103.77
  -8   4   7  606.53  108.66
  -8   4   7  418.76   65.13
  -8   4   8  433.44  105.50
   8  -4  -8  132.16   91.57
  -8   5   0  296.30  106.79
  -8   5   1 -121.48  110.15
  -8   5   2  539.92  115.32
  -8   5   3  411.00   71.65
  -8   5   3  419.50  101.99
  -8   5   3  326.97  101.72
   8  -5  -3  239.04   90.78
  -8   5   4  126.86  111.42
  -8   5   4  -51.50   83.40
   8  -5  -4   11.81   76.78
  -8   5   5  588.34  173.71
  -8   5   5  405.93  107.90
   8  -5  -5  210.80   97.33
   7   5  -4  261.99  111.57
   7   5  -5  552.42  104.75
  -7  -5   5  245.83   80.12
   7   5  -6 1433.41  130.47
  -7  -5   6 1234.83  104.25
  -7  -5   7  219.57   50.39
  -7  -5   7  125.03   76.25
   7   5  -7  129.36   77.63
  -7  -5   8  263.93   83.47
   7   5  -8  697.52  106.80
  -7  -5   8  227.78   53.60
   7   5  -9  539.25  110.97
  -7  -5   9  405.23   67.05
  -7  -5   9  346.52   91.09
  -7  -5  10  -28.71   66.56
   7   5 -10  -26.65  105.18
  -7  -5  10  146.45  111.36
  -7  -5  11  653.67  140.88
   7   5 -11  565.59  128.34
  -7  -5  11  575.42   73.95
  -7  -5  12  927.72   85.03
  -7  -5  12  993.38  105.16
   7   4  -2  243.05   72.85
  -7  -4   3  389.68   82.40
   7   4  -3  425.60   91.99
  -7  -4   4 1232.01  100.21
   7   4  -4 1008.71  112.20
  -7  -4   5   72.01   75.76
   7   4  -5  -73.74   80.54
   7   4  -6 1177.06  124.28
  -7  -4   6 1074.34   96.28
  -7  -4   7 1230.91  112.40
   7   4  -7 1441.27  122.86
   7   4  -8  137.03  100.72
  -7  -4   8   86.64   43.35
  -7  -4   8  277.62   76.97
  -7  -4   9 1388.52  104.48
  -7  -4   9  925.18   71.45
   7   4  -9 1200.38   93.39
  -7  -4  10  641.53   63.12
   7   4 -10  824.76  119.53
  -7  -4  10  594.98   87.44
   7   4 -11   36.57  102.11
  -7  -4  11  190.52   60.56
  -7  -4  12  909.59   88.96
   7   4 -12 1344.53  139.26
  -7  -4  12 1105.04  117.38
   7   4 -13  989.89  121.80
  -7  -4  13  627.36   71.27
  -7  -4  14  133.62   63.67
   7   4 -14  306.46  106.05
  -7  -4  14  204.19   96.62
   7   3  -1  943.03  126.48
   7   3  -2 1178.56   99.32
  -7  -3   2 1093.33   78.98
   7   3  -3   45.86   75.80
  -7  -3   3  121.34   82.71
  -7  -3   4 1511.52  102.78
   7   3  -4 1588.75  114.14
  -7  -3   5 1548.12  174.62
   7   3  -5 1460.75   91.01
   7   3  -6  219.81   79.80
  -7  -3   6  440.17   80.59
   7   3  -7 2225.11  149.01
  -7  -3   7 2129.13  138.86
   7   3  -8  329.32   92.44
  -7  -3   8  297.69   43.72
  -7  -3   8  537.97   92.10
   7   3  -9  891.69  108.32
  -7  -3   9  557.30   90.98
  -7  -3   9  533.24   53.30
   7   3 -10 1754.77  118.16
  -7  -3  10 1431.69   89.99
  -7  -3  11  732.63   74.05
  -7  -3  11  603.88   99.11
   7   3 -11  594.12  102.19
   7   3 -12  514.55   86.49
  -7  -3  12  387.97   76.75
  -7  -3  13 1818.71  149.08
  -7  -3  13 1884.24  124.13
   7   3 -13 2193.71  174.95
   7   3 -14   86.46   73.15
  -7  -3  14   92.25   70.26
  -7  -3  14  173.53   91.19
  -7  -3  15  571.10   84.51
   7   3 -15  803.10  118.88
  -7  -3  15  523.56  113.07
   7   2  -1  550.66  100.76
  -7  -2   2 1695.95  123.69
   7   2  -2 1873.68  121.37
   7   2  -3  597.33   86.18
  -7  -2   3  806.53   98.45
   7   2  -4  498.81   70.87
  -7  -2   4  555.81   89.93
   7   2  -5 2870.55  150.53
  -7  -2   5 2565.76  149.33
  -7  -2   6 1198.47  108.89
   7   2  -6 1174.06  111.74
  -7  -2   7  893.34   97.41
   7   2  -7 1012.00   77.95
  -7  -2   8 2454.88  115.69
   7   2  -8 2721.28  150.38
  -7  -2   8 2453.34  148.79
  -7  -2   9   55.27   41.82
  -7  -2   9  140.59  103.34
   7   2  -9    8.06   82.79
   7   2 -10 1148.97  126.63
  -7  -2  10 1052.95  111.68
  -7  -2  10  956.62   71.12
   7   2 -11 1200.83  123.59
  -7  -2  11 1234.54  106.57
  -7  -2  11 1121.49   82.98
  -7  -2  12  110.92   58.24
   7   2 -12  112.71   60.77
  -7  -2  13  979.51  125.46
   7   2 -13 1194.85  129.97
  -7  -2  13  769.22   80.89
   7   2 -14 1273.75  106.60
  -7  -2  14 1136.18   92.49
  -7  -2  14 1060.04  129.08
  -7  -2  15   38.29   97.43
  -7  -2  15  -11.76   70.37
   7   2 -15  165.71  108.67
   7   1  -1  295.28   71.04
  -7  -1   1  349.08   85.53
  -7  -1   2 1270.34  109.10
   7   1  -2 1370.13  104.05
  -7  -1   3 2107.36  181.55
   7   1  -3 2083.39  123.88
   7   1  -4  280.92   87.71
  -7  -1   4  555.87  146.58
  -7  -1   5 1609.81  108.23
   7   1  -5 1656.01  114.65
  -7  -1   6 3550.07  173.43
   7   1  -6 3901.24  183.16
  -7  -1   7  432.36   95.52
   7   1  -7  181.01   82.52
  -7  -1   7  260.64   27.91
   7   1  -8 2350.32  124.12
  -7  -1   8 1855.29  142.34
  -7  -1   8 2467.04  108.95
   7   1  -9 1450.91  107.07
  -7  -1   9 1247.05  112.44
  -7  -1   9 1365.36   72.29
   7   1 -10  208.76   91.93
  -7  -1  10  209.03   45.42
  -7  -1  10   69.32   65.71
  -7  -1  11 1050.00   70.87
  -7  -1  11 1044.73  124.64
   7   1 -11 1029.72   85.82
  -7  -1  12  679.46  103.05
   7   1 -12  867.15  118.36
  -7  -1  12  792.19   68.91
  -7  -1  13  -33.71  102.91
   7   1 -13  103.93   93.90
  -7  -1  13  -10.74   65.75
  -7  -1  14 1150.74   91.35
   7   1 -14 1314.57  124.55
  -7  -1  14 1118.60  140.14
   7   1 -15  604.81  123.82
  -7  -1  15  515.67  134.46
  -7  -1  15  533.71   79.26
   7   0  -1 2633.28  149.71
  -7   0   1 2608.16  154.10
  -7   0   1 2210.53  152.81
  -7   0   2  143.56   62.05
  -7   0   2    3.69   83.36
   7   0  -2  285.46   67.80
  -7   0   3 2089.96  149.86
  -7   0   3 2657.17  148.59
   7   0  -3 2372.04  130.62
  -7   0   4 1663.27  123.77
  -7   0   4 1382.96  111.96
   7   0  -4 1623.40  103.38
  -7   0   5  164.08   84.18
  -7   0   5  113.13   78.28
   7   0  -5  257.80   84.30
   7   0  -6 1988.26  121.39
  -7   0   6 1807.34  125.55
   7   0  -7 1750.10  133.79
  -7   0   7 1687.09  126.43
   7   0  -8  205.73   85.54
  -7   0   8  186.36   38.21
  -7   0   8  197.08   80.74
  -7   0   9 2301.21  160.35
   7   0  -9 2471.31  137.14
  -7   0  10  642.89  101.75
   7   0 -10  578.76  104.96
  -7   0  10  711.81   66.12
  -7   0  11  261.02   51.52
   7   0 -11  399.42   84.05
  -7   0  11  319.13   95.22
  -7   0  12  869.67  121.21
   7   0 -12  882.44   98.08
  -7   0  12  761.32   71.91
  -7   0  13  382.19   59.91
   7   0 -13  322.39  102.00
   7   0 -14  512.21  140.11
  -7   0  14  411.57   70.00
  -7   0  14  376.26  112.81
  -7   0  15 1133.64  109.26
   7   0 -15 1083.49  130.95
  -7   0  15 1126.40  147.38
   7  -1   0   97.24   49.03
  -7   1   0  184.92   90.17
  -7   1   0  141.60   61.96
  -7   1   1 2472.85  166.47
   7  -1  -1 2542.43  128.85
  -7   1   1 2393.26  158.24
  -7   1   2  887.84  108.28
  -7   1   2  891.68  103.32
   7  -1  -2  924.43   87.43
   7  -1  -3  738.60   81.69
  -7   1   3  592.22   93.13
  -7   1   3  317.74   63.69
  -7   1   4 1821.25  126.33
  -7   1   4 2000.03  122.89
   7  -1  -4 2124.12  130.49
   7  -1  -5  966.11   96.05
  -7   1   5  863.67  103.70
  -7   1   5  833.58   95.31
   7  -1  -6  598.19  102.55
  -7   1   6  539.23   90.06
  -7   1   6  358.01   75.63
   7  -1  -7 2930.51  147.16
  -7   1   7 2893.79  161.34
  -7   1   7 2444.44  139.74
  -7   1   8  764.54  101.85
  -7   1   8  711.59   83.82
  -7   1   8  674.92   54.76
   7  -1  -8  661.10   90.47
  -7   1   9  993.46   78.84
   7  -1  -9  974.51  110.36
  -7   1   9  892.26  109.05
  -7   1   9  933.10   88.02
  -7   1  10 1493.40  134.12
  -7   1  10 1708.10   84.23
   7  -1 -10 1264.11  125.57
  -7   1  11   28.86   58.98
  -7   1  11  139.96   98.31
   7  -1 -11  142.47   96.73
  -7   1  12  386.37   64.11
   7  -1 -12  199.98   83.22
  -7   1  12  217.80  105.36
   7  -1 -13  513.16   90.17
  -7   1  13  791.73  126.19
  -7   1  13  644.46   68.72
  -7   1  14  107.05  108.13
   7  -1 -14   23.86   76.20
  -7   1  14  -39.74   65.59
  -7   1  15  467.06  138.57
  -7   1  15  587.70   82.51
  -7   2   0  659.93   85.97
   7  -2   0  659.64   72.93
  -7   2   0  792.99   89.84
   7  -2  -1 1070.46   88.17
  -7   2   1 1136.86  104.60
  -7   2   1  883.66  108.97
  -7   2   2 2514.24  158.40
  -7   2   2 2900.06  171.77
   7  -2  -2 2625.65  132.24
   7  -2  -3  281.44   67.17
  -7   2   3  261.20   60.18
  -7   2   3  319.00   95.87
   7  -2  -4  781.83   66.75
  -7   2   4  850.31   90.63
  -7   2   4 1155.23   98.64
  -7   2   5 1333.50  103.83
  -7   2   5 1122.29  101.83
   7  -2  -5 1026.50   89.67
  -7   2   6  -19.64   76.59
   7  -2  -6   86.94   80.63
  -7   2   6   10.08   68.88
   7  -2  -7  637.95   96.77
  -7   2   7  591.02   84.24
  -7   2   7  827.93   59.67
  -7   2   7  592.64   77.31
   7  -2  -8 1629.24  135.67
  -7   2   8 1686.23  119.46
  -7   2   8 1649.40  107.93
  -7   2   8 2042.96  104.72
  -7   2   9   33.11   63.68
  -7   2   9  -11.76   40.91
   7  -2  -9  115.19   69.74
  -7   2   9  -59.56   74.83
  -7   2  10 1728.50  160.46
  -7   2  10 2257.34  112.68
   7  -2 -10 1589.09  122.25
  -7   2  10 1997.81  120.21
   7  -2 -11  625.51  103.27
  -7   2  12    2.05   57.59
   7  -2 -12  157.61  105.87
  -7   2  12  234.55   73.83
   7  -2 -13  419.31  115.01
  -7   2  13  617.84   83.13
   7  -2 -14  316.52  118.25
  -7   2  14  359.39   77.79
  -7   2  14  389.09  110.76
  -7   3   0 1110.28  126.76
   7  -3   0 1214.98   88.30
  -7   3   1  409.87   88.31
   7  -3  -1  160.77   59.63
  -7   3   1  126.45   97.62
   7  -3  -2 1580.91  107.06
  -7   3   2 1386.52  119.75
  -7   3   3 1878.62  130.83
  -7   3   3 2136.94  116.90
   7  -3  -3 1657.81  128.19
  -7   3   4  107.63  110.23
   7  -3  -4  -49.01   68.58
  -7   3   4  116.60   85.42
  -7   3   5 1290.65  103.03
  -7   3   5  927.17  103.53
  -7   3   6  641.72   87.01
  -7   3   6  779.27   97.14
   7  -3  -6  630.59   98.61
  -7   3   6  901.06   74.12
  -7   3   7   92.29   74.19
  -7   3   7  169.35  106.40
   7  -3  -7   19.70   61.53
  -7   3   8  860.37  105.95
  -7   3   8  958.40   78.27
  -7   3   8 1170.48   88.15
   7  -3  -8  996.14  142.45
  -7   3   9  614.49  100.89
  -7   3   9  618.37   77.64
  -7   3   9  524.22   66.76
   7  -3  -9  271.07   94.69
   7  -3 -10  227.01   72.76
  -7   3  10  291.13   65.64
  -7   3  10  361.16   92.17
  -7   3  11 1136.57   84.13
   7  -3 -11  751.03  112.76
   7  -3 -12  223.42  104.82
  -7   3  12  157.99   98.03
  -7   3  13  181.04   87.77
   7  -3 -13  -15.10  100.44
  -7   4   0 1022.68  120.23
   7  -4   0  931.50   77.36
  -7   4   1 1135.48  107.15
   7  -4  -1  787.74   74.59
  -7   4   1  729.40  106.66
  -7   4   2  387.57   93.02
  -7   4   2   77.63   92.58
   7  -4  -2   88.17   51.55
  -7   4   3 2631.18  136.93
  -7   4   3 2075.90  135.40
  -7   4   4  740.34   97.37
  -7   4   4  894.64   81.70
   7  -4  -4  465.90   64.72
  -7   4   4  666.25   89.74
  -7   4   5  400.98   86.18
  -7   4   5  513.60  100.89
   7  -4  -5  182.71   85.34
  -7   4   5  550.32   60.84
   7  -4  -6  803.62   94.61
  -7   4   6  777.59   88.28
  -7   4   6  823.30  101.51
  -7   4   6 1082.13   84.04
   7  -4  -7  267.41   96.57
  -7   4   7  218.38   72.20
  -7   4   7  255.38   80.72
  -7   4   8   33.06   59.60
  -7   4   8  275.25   86.55
   7  -4  -8  -38.31   87.76
  -7   4   8  128.38   65.95
  -7   4   9 1245.65   89.18
   7  -4  -9 1008.00  126.27
  -7   4   9 1269.74  110.60
   7  -4 -10   38.63   97.01
  -7   4  10  162.54   73.50
  -7   4  10  219.97   88.31
  -7   4  11  335.87   90.04
  -7   4  11  692.14   91.31
   7  -4 -11  140.66  141.51
  -7   5   0  408.44   67.59
  -7   5   0  241.96   80.27
   7  -5  -1  739.54   73.37
  -7   5   1  652.44   80.24
   7  -5  -2  224.33   72.58
  -7   5   2  196.62   99.40
  -7   5   2  245.60   81.08
  -7   5   2  435.16   67.44
  -7   5   3  392.11   91.54
  -7   5   3  394.40   83.22
   7  -5  -3  392.17   91.59
  -7   5   3  723.25   80.69
  -7   5   4 1492.06  104.10
  -7   5   4  894.77  100.48
  -7   5   4 1061.53  104.99
  -7   5   5  102.75   82.31
  -7   5   5  -40.00   77.39
   7  -5  -5  -60.83   50.46
  -7   5   5   42.11   71.92
  -7   5   6  461.84   80.83
  -7   5   6  342.47   81.14
   7  -5  -6  173.11   64.20
   7  -5  -7  580.12  114.63
  -7   5   7  594.01  105.02
  -7   5   7  634.42   86.08
  -7   5   7  938.83   78.38
  -7   5   8   10.23   67.43
  -7   5   8  114.32   69.55
   7  -5  -8 -122.92   97.92
  -7   5   8  485.82  213.42
  -7   5   9  347.85   90.42
   7  -5  -9  351.39  109.34
  -7   6   0  124.11   79.97
  -7   6   0  173.39   93.63
  -7   6   1  114.93   97.41
  -7   6   1  512.08   73.95
  -7   6   2  666.35   82.05
   7  -6  -3   97.28   74.52
  -7   6   3 -134.06   87.44
  -7   6   3  112.94   82.70
  -7   6   3   -4.80   72.03
  -7   6   4  274.86   86.90
   7  -6  -4  334.61  102.72
  -7   6   4  527.03   86.60
  -7   6   5  564.31   86.20
  -7   6   5  672.32   75.79
   7  -6  -5  400.88   92.78
  -7   6   5  494.00  134.26
  -7   6   6   42.93   88.13
   7  -6  -6   38.47   94.00
  -7   6   6   22.60   73.08
  -7   6   6  158.87   73.52
  -7   7   0  386.01   78.53
  -6  -7   4  408.35   92.49
  -6  -7   5   24.11   76.56
  -6  -7   6 1058.11  106.19
  -6  -7   7  222.69   71.36
  -6  -7   8  167.30   66.94
   6   7  -8  182.33  115.13
  -6  -7   9  634.95   86.43
  -6  -6   1  765.78   83.07
  -6  -6   3  127.96   68.33
  -6  -6   4 1208.13  104.28
  -6  -6   5  119.88   65.60
  -6  -6   6  790.69   81.35
   6   6  -7 1304.77  140.98
  -6  -6   7 1432.58  117.64
  -6  -6   8  -80.07   64.80
  -6  -6   8   30.08   53.20
   6   6  -8  110.38   95.94
   6   6  -9  621.73  103.87
  -6  -6   9  830.14   90.73
  -6  -6   9  651.41   81.18
  -6  -6  10 1218.60  104.29
   6   6 -10 1492.82  148.66
  -6  -6  10 1549.54  127.75
  -6  -6  11   18.32   65.71
   6   6 -11  -68.80   95.75
  -6  -6  11  321.69   75.44
   6   6 -12 1218.93  111.06
  -6  -6  12 1385.29  107.86
  -6  -6  12  915.42  102.62
   6   6 -13 1154.90  140.08
  -6  -6  13 1194.72  102.88
  -6  -6  13  904.28  106.70
  -6  -5   2 1287.38  103.19
  -6  -5   3   49.39   48.10
  -6  -5   4 1149.04   83.12
  -6  -5   4  905.87   83.76
  -6  -5   5 2769.64  140.68
  -6  -5   5 2250.05  123.25
  -6  -5   6  132.36   59.04
  -6  -5   6   28.70   70.02
   6   5  -6  105.72   94.37
   6   5  -7 2031.41  137.90
  -6  -5   7 1780.70  124.14
  -6  -5   8 1404.70  106.46
  -6  -5   8 1193.23   96.72
   6   5  -8 1287.61  121.01
   6   5  -9   67.30   62.19
  -6  -5   9  -15.75   61.76
  -6  -5   9    7.09   76.77
  -6  -5  10 1046.78   96.19
   6   5 -10 1647.91  126.68
  -6  -5  10 1485.20  100.01
  -6  -5  11  796.29   97.72
  -6  -5  11 1188.38   92.25
   6   5 -11 1170.40  124.76
  -6  -5  12  135.55   75.08
   6   5 -12   70.53   72.93
  -6  -5  12  125.78   60.35
  -6  -5  13 2129.61  122.88
   6   5 -13 2356.51  165.91
  -6  -5  13 1721.82  142.32
  -6  -5  14  442.30   93.28
  -6  -5  14  903.90  112.78
   6   5 -14  500.37  105.01
  -6  -5  15  131.69   90.31
  -6  -5  15  150.34   74.78
   6   5 -15  250.35  112.65
  -6  -4   1   71.77   42.22
  -6  -4   2 1190.18   88.56
  -6  -4   3 1391.92   89.43
  -6  -4   3 1070.83   91.66
  -6  -4   4  199.96   39.22
  -6  -4   4  262.78   65.39
   6   4  -5 3726.27  192.66
  -6  -4   5 3334.10  159.32
  -6  -4   5 3918.38  185.31
   6   4  -6 2196.19  140.41
  -6  -4   6 1983.51  120.69
  -6  -4   7  487.11   77.17
  -6  -4   7  557.64   51.86
   6   4  -7  514.24  100.27
  -6  -4   8 3377.04  140.01
  -6  -4   8 2711.90  164.02
   6   4  -8 3020.37  167.15
   6   4  -9 1136.00  111.75
  -6  -4   9 1149.70   78.49
  -6  -4   9  999.74  110.58
  -6  -4  10   69.09   49.19
  -6  -4  10  200.98   71.89
   6   4 -10  132.32   69.27
  -6  -4  11 2219.38  128.02
   6   4 -11 2178.45  189.65
  -6  -4  12  457.15   76.61
   6   4 -12  222.22   93.04
  -6  -4  12  277.52   80.92
   6   4 -13 1766.51  130.40
  -6  -4  13 1551.54  123.18
  -6  -4  13 1612.46  107.16
  -6  -4  14 1931.09  128.64
   6   4 -14 2229.80  194.32
  -6  -4  14 1829.85  133.90
  -6  -4  15   -9.89   85.24
  -6  -4  15  127.97   92.16
   6   4 -15  236.87   96.75
  -6  -4  16  519.08  103.29
  -6  -4  16  714.64   91.75
   6   4 -16  730.10  112.37
  -6  -3   1 1168.24   65.58
  -6  -3   2  593.31   40.57
  -6  -3   2  653.31   79.70
   6   3  -3 2393.13  132.55
  -6  -3   3 2430.20  133.92
  -6  -3   3 2460.21  118.31
  -6  -3   4 1103.75   63.61
  -6  -3   4 1147.18   95.66
   6   3  -4 1085.88   94.48
  -6  -3   5 1264.43  100.25
  -6  -3   5 1134.01   64.69
   6   3  -5 1622.42  102.16
  -6  -3   6 6200.29  264.13
  -6  -3   6 5617.37  257.31
   6   3  -6 6885.69  258.15
  -6  -3   7  534.62   74.34
  -6  -3   7  551.39   53.08
   6   3  -7  448.80   65.17
  -6  -3   8 1720.99  129.98
  -6  -3   8 1985.79  111.91
   6   3  -8 2255.46  137.39
   6   3  -9 2553.37  143.95
  -6  -3   9 2283.00  125.83
  -6  -3   9 2006.30  141.74
  -6  -3  10   12.51   54.40
  -6  -3  10   87.57   76.57
   6   3 -10  138.41   51.28
   6   3 -11  898.79  100.80
  -6  -3  11  821.24   77.80
   6   3 -12 2156.80  154.70
  -6  -3  12 1924.31  112.28
  -6  -3  12 1594.99  129.33
  -6  -3  13 -103.71   80.65
   6   3 -13  131.88   67.87
  -6  -3  13  -13.35   67.92
  -6  -3  14 1855.28  143.25
  -6  -3  14 2450.30  148.63
   6   3 -14 2305.96  157.26
  -6  -3  15 1565.83  102.75
  -6  -3  15 1068.44  123.63
   6   3 -15 1972.06  243.27
   6   3 -16  114.97   97.01
  -6  -3  16  197.39   97.52
  -6  -3  16   64.61   78.83
   6   3 -17 1014.95  135.05
  -6  -3  17  857.42   94.70
  -6  -2   1 3154.41  190.80
   6   2  -1 3455.26  169.01
   6   2  -2   45.26   62.04
  -6  -2   2  241.35   71.70
  -6  -2   3 2238.67  119.27
   6   2  -3 2290.02  123.34
   6   2  -4 4279.71  179.44
  -6  -2   4 3652.23  183.29
   6   2  -5  374.01   78.07
  -6  -2   5  435.61   32.18
  -6  -2   5  346.26   50.40
  -6  -2   5  537.21   32.71
   6   2  -5  321.35   27.86
   6   2  -6 3649.30  158.21
  -6  -2   6 3327.00  165.52
  -6  -2   6 3179.98  132.13
  -6  -2   7 4329.93  187.73
  -6  -2   7 4727.17  213.05
   6   2  -8   99.41   63.79
  -6  -2   8  282.96   77.19
  -6  -2   8  140.63   43.58
   6   2  -9 3504.96  156.87
  -6  -2   9 2845.62  160.24
  -6  -2   9 2869.36  139.51
  -6  -2  10 1367.67  112.28
  -6  -2  10 1683.93  100.25
   6   2 -10 1789.88  114.37
  -6  -2  11   12.81   52.13
  -6  -2  11   23.72   48.62
   6   2 -11  -12.49   53.79
  -6  -2  12 2125.60  123.02
   6   2 -12 2275.79  164.67
  -6  -2  12 1720.48  140.02
  -6  -2  13  911.85   81.75
  -6  -2  13  828.71  108.16
   6   2 -13 1272.32  155.24
  -6  -2  14  374.80  100.88
  -6  -2  14  624.09   85.48
   6   2 -14  496.21   71.97
   6   2 -15 2799.29  187.84
  -6  -2  15 2621.33  183.79
  -6  -2  15 3226.42  152.99
  -6  -2  16  328.33   80.40
   6   2 -16  348.50  107.67
  -6  -2  17  500.68   89.65
   6   2 -17  482.09  115.89
  -6  -2  17  162.57  105.18
   6   1  -1 5117.88  202.54
  -6  -1   1 4422.08  202.13
   6   1  -2 3381.00  142.87
  -6  -1   2 3186.89  153.96
   6   1  -3  451.36   64.63
  -6  -1   3  436.62   78.92
   6   1  -4 3355.92  163.96
  -6  -1   4 2805.65  151.61
   6   1  -5 2375.31  129.62
  -6  -1   5 2083.59  122.09
  -6  -1   6  305.11   30.48
   6   1  -6  288.71   27.05
  -6  -1   6  223.73   64.41
   6   1  -6  578.43  118.47
   6   1  -7 5343.19  241.26
  -6  -1   7 6686.18  247.19
  -6  -1   7 5513.97  250.85
   6   1  -7 6538.24  262.50
   6   1  -8 2096.47  137.50
  -6  -1   8 2107.70  100.18
  -6  -1   8 1927.02  129.20
  -6  -1   9 1095.72   65.14
  -6  -1   9  946.70   95.98
   6   1  -9 1173.01  101.74
  -6  -1  10 3567.90  192.00
   6   1 -10 3923.23  206.28
  -6  -1  10 4003.46  184.41
   6   1 -11  585.03   76.49
  -6  -1  11  657.50   96.56
  -6  -1  11  559.61   59.58
  -6  -1  12  585.08   64.07
   6   1 -12  635.88   91.35
   6   1 -13 2357.52  135.80
  -6  -1  13 2854.90  168.58
  -6  -1  13 2168.84  151.00
   6   1 -14  361.96   99.61
  -6  -1  14  570.76  110.23
  -6  -1  15  816.65  118.59
   6   1 -15 1000.82  106.39
  -6  -1  15 1332.70  129.49
   6   1 -16 1368.34  172.21
  -6  -1  16  952.34  125.05
  -6  -1  16 1394.14  112.47
  -6  -1  17  -38.05   77.05
   6   1 -17  -16.98   66.56
  -6   0   1  334.14   75.73
  -6   0   1  603.20   77.84
   6   0  -1  500.01   57.94
  -6   0   2 5287.87  244.10
  -6   0   2 5153.78  235.75
   6   0  -2 5720.49  223.62
  -6   0   3 1227.21   84.83
  -6   0   3 1163.11   94.89
   6   0  -3 1160.14   71.45
  -6   0   4  463.69   68.11
  -6   0   4  655.23   80.64
   6   0  -4  615.45   67.63
   6   0  -5 3946.35  196.64
  -6   0   5 3596.07  184.44
  -6   0   5 3439.71  175.64
   6   0  -6 1430.80   84.78
  -6   0   6 1354.91  102.80
   6   0  -6 1707.71   75.82
  -6   0   6 1493.42  102.49
  -6   0   7 3367.20  158.05
   6   0  -7 3140.50  159.44
   6   0  -7 2940.45  126.53
  -6   0   7 2906.83  152.29
   6   0  -8 7468.16  284.63
  -6   0   8 8017.27  292.53
   6   0  -8 6985.97  290.82
  -6   0   9   40.57   49.36
   6   0  -9  -11.65   70.53
  -6   0  10 2297.25  105.51
  -6   0  10 1867.85  144.78
   6   0 -10 1945.24  129.13
  -6   0  11 2400.87  115.41
  -6   0  11 2060.76  132.02
   6   0 -11 1943.47  124.30
  -6   0  12   65.42   51.14
  -6   0  12   40.74   58.02
   6   0 -12   67.35   90.92
  -6   0  13 1810.13  104.62
   6   0 -13 1730.97  142.57
  -6   0  13 1436.65  106.53
  -6   0  14 2072.53  122.63
   6   0 -14 2031.08  149.69
  -6   0  15   59.85   75.99
  -6   0  15  -54.96   97.39
   6   0 -15  -97.78   95.72
  -6   0  16 1533.36  113.86
  -6   0  16  918.27  129.13
   6   0 -16 1221.05  114.01
  -6   0  17  536.49   89.23
   6   0 -17  359.78  109.23
  -6   1   0 6390.91  298.95
  -6   1   0 7594.81  311.30
   6  -1   0 7552.08  310.59
  -6   1   1 1306.40  102.43
   6  -1  -1 1520.32   87.68
  -6   1   1 1767.76  112.62
   6  -1  -2 4202.35  178.05
  -6   1   2 4070.20  192.00
  -6   1   2 3716.32  168.59
   6  -1  -3 4766.18  195.35
  -6   1   3 4495.19  227.36
  -6   1   3 4862.58  224.40
  -6   1   4  207.18   38.42
   6  -1  -4  116.86   59.66
  -6   1   4  213.99   58.25
  -6   1   4  380.48   75.70
  -6   1   5 2072.94  102.67
  -6   1   5 1812.69  104.90
  -6   1   5 1878.32  100.81
   6  -1  -5 1607.67   93.07
   6  -1  -5 2066.01  108.20
   6  -1  -6 2994.95  164.11
  -6   1   6 3655.81  165.89
   6  -1  -6 3965.62  166.47
  -6   1   6 3815.01  173.07
  -6   1   7   70.23   56.66
  -6   1   7  119.39   41.02
  -6   1   7  -75.35   64.85
   6  -1  -7   22.32   67.30
   6  -1  -7    8.04   34.23
   6  -1  -8 4243.86  202.86
   6  -1  -8 4436.88  195.20
  -6   1   8 5029.23  224.32
  -6   1   9 3926.35  187.29
  -6   1   9 3630.74  199.81
   6  -1  -9 3767.80  166.17
   6  -1 -10   23.06   56.13
  -6   1  10  173.74   83.25
  -6   1  10   65.77   46.73
  -6   1  11 1643.34  131.90
  -6   1  11 1937.42  101.70
   6  -1 -11 1738.53  128.57
   6  -1 -12  485.49   99.85
  -6   1  12  740.97   74.98
  -6   1  12  728.46  104.88
   6  -1 -13   18.55   85.72
  -6   1  13  111.80   97.59
  -6   1  13  -77.13   67.41
  -6   1  14 1265.11  131.79
   6  -1 -14 1559.34  128.52
  -6   1  14 1944.48  118.29
  -6   1  15  810.86   88.38
   6  -1 -15  687.89   85.33
  -6   1  15  632.70  118.69
  -6   1  16  340.83   89.28
   6  -1 -16  298.56  114.44
  -6   1  16  351.17  113.24
  -6   2   0 3339.32  176.15
   6  -2   0 3121.99  141.60
  -6   2   0 3211.65  129.16
   6  -2   0 2805.23  116.54
  -6   2   0 2744.96  158.34
   6  -2   0 2949.97  116.01
   6  -2  -1 5056.60  197.62
  -6   2   1 5305.08  214.18
  -6   2   1 4882.50  230.48
   6  -2  -1 4440.28  190.27
  -6   2   1 5379.05  209.48
  -6   2   2  -15.65   67.53
   6  -2  -2   48.56   24.89
  -6   2   2   16.46   67.01
   6  -2  -2  108.76   74.28
  -6   2   3 4563.62  195.27
   6  -2  -3 3776.47  185.06
  -6   2   3 4354.66  225.73
   6  -2  -3 4528.04  189.43
  -6   2   4 1924.33  131.01
   6  -2  -4 2070.22  114.78
   6  -2  -4 2792.77  132.74
  -6   2   4 2351.27  120.61
   6  -2  -5   56.30   38.14
   6  -2  -5    8.08   48.15
  -6   2   5   44.60   65.50
  -6   2   5  261.56   59.31
  -6   2   5    7.92   57.19
  -6   2   5   61.91   40.45
   6  -2  -6 2059.90  129.78
  -6   2   6 2034.84  126.20
  -6   2   6 2391.44  125.82
  -6   2   7 2520.05  115.38
  -6   2   7 2301.77  134.78
   6  -2  -7 2179.30  148.15
   6  -2  -8  674.00   59.09
  -6   2   8  761.24   56.51
  -6   2   8  533.00   69.17
   6  -2  -8  675.13  100.37
  -6   2   8  597.69   83.39
   6  -2  -9 4976.63  276.75
  -6   2   9 5303.82  209.93
   6  -2 -10 1187.00  117.23
  -6   2  10 1498.94  116.47
  -6   2  11  286.91   59.55
  -6   2  11  167.17   89.37
   6  -2 -11  101.60   92.13
  -6   2  12 1283.46   94.17
   6  -2 -12 1144.42  120.49
  -6   2  13  232.20   72.18
   6  -2 -13  151.71  106.36
  -6   2  13  186.62   87.92
  -6   2  14  388.35   83.99
   6  -2 -14  632.80  138.15
  -6   2  14   91.66   96.24
  -6   2  15  988.80  124.79
  -6   2  15 1187.22  123.83
   6  -2 -15 1102.23  139.57
  -6   2  16  218.77   89.82
  -6   3   0  140.85   74.52
  -6   3   0 -126.03   73.25
   6  -3   0   14.90   46.15
  -6   3   1 3415.82  187.15
   6  -3  -1 3502.70  171.02
  -6   3   2 1743.53   95.02
   6  -3  -2 1763.97  109.65
  -6   3   2 1558.02  128.67
  -6   3   3  866.07   95.67
  -6   3   3 1032.91   91.67
   6  -3  -3  832.75   78.83
   6  -3  -4 2894.95  158.70
  -6   3   4 3577.76  178.44
  -6   3   4 3258.80  179.03
   6  -3  -5  665.79   65.66
  -6   3   5  591.45   83.62
   6  -3  -5  593.11   78.91
  -6   3   5  483.93   74.70
   6  -3  -6  654.80   87.94
  -6   3   6  646.46   85.17
  -6   3   6  599.91   73.20
  -6   3   7 2177.25  132.59
   6  -3  -7 1699.35  134.66
  -6   3   7 2300.51  132.96
  -6   3   8 1231.40   99.40
  -6   3   8 1330.07  104.30
   6  -3  -8 1216.64  159.44
  -6   3   9  787.25   71.03
   6  -3  -9  377.35   93.68
  -6   3   9  652.88   59.10
  -6   3  10 2910.56  137.00
  -6   3  10 2547.89  164.32
   6  -3 -10 2208.73  158.12
  -6   3  11  -44.92   76.76
  -6   3  11  120.26   68.98
   6  -3 -11   21.18  103.50
  -6   3  12  752.80   85.53
  -6   3  12  662.38   98.99
   6  -3 -12  392.51  106.95
  -6   3  13  502.82  102.14
   6  -3 -13  627.09  138.18
  -6   3  13  779.98   84.24
  -6   3  14   72.55   98.78
  -6   3  14   30.72   81.92
   6  -3 -14   41.07  101.67
   6  -4   0  791.29   64.59
  -6   4   0  955.64   93.90
   6  -4  -1  355.49   57.83
  -6   4   1  330.63   79.87
  -6   4   1  410.57   76.06
   6  -4  -2 2342.59  110.17
  -6   4   3  368.43   70.60
   6  -4  -3  377.45   68.66
  -6   4   3  503.28   73.79
  -6   4   4 1503.45  107.21
  -6   4   4 1374.99  101.77
   6  -4  -4 1073.81   74.74
  -6   4   5 1486.07  102.04
  -6   4   5 1261.56  101.19
   6  -4  -6  124.27   77.10
  -6   4   6   -9.02   59.16
  -6   4   6   68.45   60.06
  -6   4   6  113.34   79.60
  -6   4   7 1073.01   90.98
  -6   4   7 1032.91   86.71
   6  -4  -7  934.06  103.33
  -6   4   8 1978.67  129.74
   6  -4  -8 1788.10  122.54
  -6   4   9  216.89   71.97
  -6   4   9   93.53   70.23
  -6   4   9   23.34   54.85
   6  -4  -9  -59.41   81.19
  -6   4  10 1516.57  110.28
   6  -4 -10  867.65  122.20
  -6   4  10  959.62  104.21
  -6   4  11  825.90   91.45
   6  -4 -11  588.22   87.57
   6  -4 -12   76.94  115.07
  -6   4  12   88.31   84.43
  -6   4  12   16.80   86.27
   6  -4 -13  303.44  111.26
  -6   4  13  470.90   95.09
  -6   5   0 1226.52  101.32
   6  -5   0 1251.00   91.64
  -6   5   1  165.34   78.68
  -6   5   1  -86.63   64.81
   6  -5  -1  158.56   61.58
  -6   5   1  149.78   55.11
  -6   5   2 2742.27  148.24
  -6   5   2 1861.07  116.44
  -6   5   3 1938.80  130.89
  -6   5   3 2514.24  145.40
   6  -5  -3 2355.03  135.54
  -6   5   4   44.10   61.18
  -6   5   4   82.67   71.71
  -6   5   4   76.30   64.46
   6  -5  -4   79.07   76.75
  -6   5   5 1112.10   94.49
   6  -5  -5  770.91   99.98
  -6   5   5  945.80   92.05
  -6   5   6  329.19   77.09
  -6   5   6  352.60   75.19
   6  -5  -6  369.01   88.57
  -6   5   7   65.22   66.96
   6  -5  -7  358.31   87.41
  -6   5   7  108.53   71.03
  -6   5   7  -33.67   67.82
  -6   5   8 1043.65   92.23
  -6   5   8  854.34  100.20
  -6   5   8  696.56   81.18
   6  -5  -8  729.78  107.80
  -6   5   9  627.03   86.40
   6  -5  -9  422.46   72.45
  -6   5  10  186.59   93.08
  -6   5  10   19.90   74.94
   6  -5 -10  179.10  109.92
  -6   5  11  886.17  111.66
   6  -5 -11  821.49  128.62
   6  -6   0 1043.34   81.77
  -6   6   0  778.23  108.44
  -6   6   1  523.21  108.22
  -6   6   1 1022.38  107.91
   6  -6  -1  657.15   80.32
   6  -6  -2  116.32   78.94
  -6   6   2  269.93  146.35
  -6   6   2  -61.97   60.22
  -6   6   2  109.54  101.12
   6  -6  -3 1804.34  121.91
  -6   6   3 1387.72   96.96
  -6   6   3 1786.46  130.08
   6  -6  -4  658.56   86.56
  -6   6   4  639.04   99.32
  -6   6   4  820.94   82.77
  -6   6   5  396.58   85.08
   6  -6  -5  235.07   88.08
  -6   6   5  296.08   72.24
  -6   6   5  189.26   84.17
  -6   6   6  451.24   90.64
  -6   6   6  573.43  108.97
   6  -6  -6  234.15   99.71
  -6   6   7   96.97   77.09
   6  -6  -7   55.79   99.96
  -6   6   7  267.16   90.95
  -6   6   7  137.89   71.20
  -6   6   8  262.93   84.95
  -6   6   8  106.79   73.66
   6  -6  -8  505.84  151.37
  -6   6   9  912.36  106.28
   6  -6  -9  629.09  119.12
  -6   7   0  163.89   72.74
  -6   7   0  325.11   85.72
   6  -7  -1  597.11   82.09
  -6   7   1  996.34   94.36
  -6   7   1  359.61   91.49
   6  -7  -2  290.79   84.88
  -6   7   2  265.91   86.77
  -6   7   2  496.67  160.81
  -6   7   3  270.54   85.65
  -6   7   3  341.55  130.28
   6  -7  -3  218.47   89.17
  -6   7   4  694.07   91.47
   6  -7  -4  523.67   89.65
  -6   7   5  117.77   86.17
   6  -7  -5  -56.03   63.91
  -6   7   5   60.15   77.36
  -6   7   6  210.51   76.84
  -6   7   6  440.36   91.20
   6  -7  -6  123.53   99.50
  -5  -8   6  237.34   78.01
  -5  -8   7  886.55  109.50
  -5  -7   1  302.58   68.44
  -5  -7   2 1427.48  108.35
  -5  -7   3  511.08   79.29
  -5  -7   4  858.20   95.70
  -5  -7   5 1878.85  172.52
  -5  -7   7  572.04   90.62
  -5  -7   8  917.56  101.88
  -5  -7   9 -102.74   77.90
   5   7  -9   80.51   95.00
  -5  -7  10 1298.98  130.61
   5   7 -10 1238.90  126.66
   5   7 -11 1887.62  158.96
  -5  -7  12   26.69   74.02
   5   7 -12   -2.26   94.87
  -5  -7  13 1317.56  132.63
   5   7 -13 1463.08  103.02
  -5  -6   2 1209.58   97.62
  -5  -6   4   13.70   63.95
  -5  -6   5 2218.12  124.98
  -5  -6   5 2593.79  210.57
  -5  -6   7   32.25   60.28
  -5  -6   7  405.04  118.36
  -5  -6   8 1253.41   92.71
  -5  -6   9  850.14   83.57
   5   6  -9 1021.64  115.14
  -5  -6   9 1097.87  117.05
  -5  -6  10   83.90   59.14
   5   6 -10  388.90   91.10
  -5  -6  10  295.06   70.84
  -5  -6  11 2926.48  164.56
   5   6 -11 2431.94  145.42
   5   6 -12  960.01   84.14
  -5  -6  12  785.96   87.79
  -5  -6  12  998.22  118.48
   5   6 -13  421.72   99.96
  -5  -6  13  373.23   80.28
  -5  -6  13  440.89   79.41
  -5  -6  14 2110.89  133.38
   5   6 -14 2141.23  162.67
   5   6 -15  186.01   95.25
  -5  -6  15  231.36   87.24
  -5  -6  15  238.08   86.35
  -5  -5   3 3698.14  190.35
  -5  -5   3 2870.22  142.07
  -5  -5   4 2437.32  207.02
  -5  -5   4 2810.07  171.01
  -5  -5   5  735.57   80.39
  -5  -5   5  691.19   61.02
  -5  -5   7 2048.82  120.08
   5   5  -7 1523.39   96.85
  -5  -5   7 1582.23  108.61
  -5  -5   8  350.52   73.08
   5   5  -8  415.56   86.17
  -5  -5   9 1798.23  112.39
  -5  -5   9 2468.37  158.98
   5   5  -9 2351.65  139.59
  -5  -5  10  510.57   78.85
  -5  -5  10  421.09   70.04
   5   5 -10  401.27   92.31
   5   5 -11 1905.80  129.64
  -5  -5  11 1835.12  115.61
  -5  -5  11 1397.83  114.51
   5   5 -12 5283.78  253.79
  -5  -5  12 5254.04  238.95
   5   5 -13  156.16   59.69
  -5  -5  13  194.35   68.15
  -5  -5  14 2328.09  150.08
  -5  -5  14 1671.17  130.44
   5   5 -14 2130.86  129.24
   5   5 -15 1525.79  122.60
  -5  -5  15 1509.36  126.16
  -5  -5  15 1745.33  126.89
  -5  -5  16  -23.45   80.29
   5   5 -16  182.70   80.97
  -5  -5  16  -34.80   82.96
  -5  -5  17  676.84   88.86
   5   5 -17  750.39   96.52
  -5  -4   1 5313.56  227.54
  -5  -4   2 1088.69  100.86
  -5  -4   2 1632.84   87.77
  -5  -4   3  646.53   63.82
  -5  -4   3  727.49   90.23
   5   4  -3  905.89   65.47
  -5  -4   4 7075.21  305.09
   5   4  -4 6632.60  245.26
  -5  -4   4 6076.38  266.41
  -5  -4   5 1775.43   92.63
   5   4  -5 1511.63  104.27
   5   4  -6 4995.08  244.97
  -5  -4   6 5770.92  237.53
  -5  -4   7 6606.93  306.42
   5   4  -7 6419.70  273.68
   5   4  -7 6431.28  257.05
   5   4  -8   -6.89   71.95
  -5  -4   8   77.91   58.48
   5   4  -8   71.20   39.54
  -5  -4   8   58.91   54.03
   5   4  -9 3355.87  164.85
   5   4  -9 3018.64  157.37
  -5  -4   9 3274.77  189.10
   5   4 -10 4005.36  187.02
  -5  -4  10 4472.79  216.30
   5   4 -10 4019.45  195.15
   5   4 -11  103.24   59.45
   5   4 -11  212.74   56.40
  -5  -4  11  175.85   59.43
  -5  -4  12 2721.97  125.75
   5   4 -12 2587.77  156.68
   5   4 -12 2910.05  149.87
  -5  -4  12 2281.85  140.37
   5   4 -13 3266.37  160.26
   5   4 -13 3220.08  166.82
  -5  -4  13 3532.85  176.43
  -5  -4  14  122.15   85.20
   5   4 -14   32.11   82.92
   5   4 -15 2827.30  176.69
  -5  -4  15 2967.22  162.73
  -5  -4  16  987.86   95.92
  -5  -4  16  827.91   99.87
   5   4 -16 1087.30  106.97
  -5  -4  17  135.04   94.60
  -5  -4  17   81.22   97.79
   5   4 -17  271.74  103.91
  -5  -4  18 1257.04  115.41
  -5  -3   1 3584.30  171.54
   5   3  -1 3265.11  152.65
  -5  -3   2 5025.65  236.74
   5   3  -2 4794.74  213.89
  -5  -3   2 6406.30  294.90
   5   3  -2 6109.06  230.67
   5   3  -3  973.29   62.79
   5   3  -3  834.01   48.79
  -5  -3   3  752.10   69.51
  -5  -3   3 1122.14   64.08
  -5  -3   4 3187.88  146.44
   5   3  -4 3605.21  162.08
   5   3  -4 3131.71  163.06
  -5  -3   4 3843.35  162.05
   5   3  -5 7377.12  273.59
   5   3  -5 7923.68  300.81
   5   3  -5 6673.75  282.03
   5   3  -6   58.31   44.01
  -5  -3   6   64.67   33.69
  -5  -3   6   97.80   57.11
   5   3  -6  -12.27   64.68
  -5  -3   6   81.31   38.94
  -5  -3   7 8292.69  304.65
   5   3  -7 7736.09  299.55
   5   3  -7 8608.52  322.62
  -5  -3   8 3412.23  157.35
   5   3  -8 3176.49  148.73
  -5  -3   8 4036.80  175.26
   5   3  -8 3283.73  166.45
   5   3  -9  840.73   88.43
  -5  -3   9  692.07   75.10
  -5  -3   9  962.67   74.67
   5   3  -9  780.29   64.34
   5   3 -10 5907.21  260.23
   5   3 -10 5451.17  231.83
  -5  -3  10 5712.54  236.23
   5   3 -11 4985.82  234.21
   5   3 -11 5566.12  235.51
  -5  -3  11 5817.74  224.26
   5   3 -12  105.76   56.16
   5   3 -12  307.86  123.79
  -5  -3  12   98.40   57.14
  -5  -3  13 6352.86  275.73
   5   3 -13 5876.07  254.07
   5   3 -13 5681.72  299.32
  -5  -3  14 1711.23  121.17
   5   3 -14 1358.12  106.29
  -5  -3  14 1321.85  113.09
   5   3 -15  993.85   89.28
   5   3 -15 1059.45  101.51
  -5  -3  15  931.84   89.73
  -5  -3  16 2321.91  136.26
   5   3 -16 1988.50  145.10
  -5  -3  16 1862.79  154.85
  -5  -3  17   66.86   87.93
   5   3 -17  115.58   82.63
  -5  -3  17   54.40   71.42
  -5  -3  18    4.88   92.44
   5   3 -18  130.66   97.15
  -5  -3  18  149.95   84.62
   5   2  -1  107.86   17.30
  -5  -2   1   88.23   52.00
  -5  -2   1  114.06   16.67
  -5  -2   1   96.80   18.60
  -5  -2   2 9388.71  330.59
   5   2  -2 7558.32  310.36
   5   2  -2 8380.22  300.68
  -5  -2   2 8033.97  335.70
   5   2  -2 8831.03  332.80
  -5  -2   2 9286.75  331.42
   5   2  -3 3859.28  155.37
  -5  -2   3 3679.55  144.56
  -5  -2   3 4190.88  155.58
  -5  -2   3 3341.53  155.03
   5   2  -3 3193.50  143.38
   5   2  -3 3881.39  144.16
   5   2  -4   66.59   24.10
  -5  -2   4   98.75   52.04
   5   2  -4  101.05   56.00
   5   2  -4  133.65   26.06
  -5  -2   4   14.89   22.92
  -5  -2   5 8219.92  350.21
   5   2  -5 8637.45  355.85
  -5  -2   5 9225.35  330.17
  -5  -2   6 8569.56  329.16
  -5  -2   6 7777.71  323.11
   5   2  -6 9354.38  304.93
   5   2  -6 8583.33  330.65
   5   2  -7 1205.52   73.96
   5   2  -7 1402.99   75.28
  -5  -2   7 1103.73   83.49
  -5  -2   7 1422.84   80.55
   5   2  -8 9535.72  362.77
  -5  -2   8 8913.95  358.54
  -5  -2   8 7848.93  331.28
   5   2  -8 8319.97  343.60
   5   2  -9 1749.49  111.36
  -5  -2   9 1797.46   98.21
  -5  -2   9 1606.98  104.58
   5   2  -9 1678.86   93.28
  -5  -2  10 1735.68  119.38
  -5  -2  10 2116.66  124.75
   5   2 -10 1712.34  109.66
   5   2 -10 2023.36  101.71
   5   2 -11 5047.56  218.84
   5   2 -11 4996.13  207.26
  -5  -2  11 4499.90  219.86
  -5  -2  11 5172.99  258.40
   5   2 -12  884.56   75.10
   5   2 -12  804.49   77.42
  -5  -2  12 1005.70   81.13
   5   2 -13 1203.67   89.42
  -5  -2  13 1473.50  111.26
   5   2 -13 1572.28  118.59
  -5  -2  13  907.20  119.37
  -5  -2  14 5471.40  248.84
   5   2 -14 4946.72  243.20
   5   2 -14 4907.57  237.88
  -5  -2  15  506.10   85.29
   5   2 -15  339.54   82.64
  -5  -2  15   36.23   84.70
   5   2 -15  295.25   75.02
   5   2 -16 1277.89  105.04
   5   2 -16 1392.03  111.96
  -5  -2  16 1024.11  121.55
   5   2 -17 1302.56  120.32
  -5  -2  17 1601.98  127.56
   5   2 -18  113.27   92.84
  -5  -2  18   60.26   83.83
   5   1  -1 2541.24  116.12
  -5  -1   1 2510.55  122.99
   5   1  -2 2607.12  117.15
  -5  -1   2 2163.08  120.70
  -5  -1   4 2950.79  112.44
   5   1  -4 2750.45  113.67
  -5  -1   4 2422.89  132.89
   5   1  -4 3041.71  127.01
   5   1  -5 2756.15  126.87
  -5  -1   5 2896.01  125.73
  -5  -1   5 2701.44  129.41
   5   1  -617171.82  588.88
   5   1  -615274.81  585.07
  -5  -1   615780.79  581.31
   5   1  -7 3891.90  188.60
   5   1  -7 4329.76  175.30
  -5  -1   7 3647.46  178.18
   5   1  -7 4078.99  184.49
  -5  -1   7 4035.37  183.93
  -5  -1   8 5852.84  236.94
   5   1  -8 4676.58  219.60
   5   1  -8 5208.82  208.31
   5   1  -8 5807.21  228.23
  -5  -1   8 4840.49  227.44
   5   1  -9 6355.14  274.58
  -5  -1   9 6267.14  253.47
   5   1  -9 6015.50  242.69
   5   1  -9 5076.47  248.46
  -5  -1   9 6783.95  267.92
  -5  -1   9 5466.77  250.80
  -5  -1  10   -4.36   50.67
   5   1 -10   36.91   41.44
   5   1 -10  -31.95   60.48
   5   1 -10  -66.83   36.93
  -5  -1  10   55.50   47.67
   5   1 -11 2037.16  105.90
  -5  -1  11 1754.78   94.11
   5   1 -11 1612.25  101.50
  -5  -1  11 2206.26  127.88
  -5  -1  11 1945.47  137.46
   5   1 -11 2230.69  130.14
   5   1 -12 4426.96  201.03
   5   1 -12 4300.15  194.93
  -5  -1  12 5130.57  208.23
   5   1 -13  -28.92   58.66
  -5  -1  13  117.98   69.18
   5   1 -13   35.73   82.59
  -5  -1  13  122.42   81.82
  -5  -1  14 2647.24  154.17
   5   1 -14 2539.70  151.41
  -5  -1  14 1900.06  138.78
   5   1 -14 2249.77  128.76
  -5  -1  15 2697.54  172.16
   5   1 -15 2368.89  123.98
   5   1 -15 2239.36  139.21
  -5  -1  16  180.13   79.43
  -5  -1  16  244.88  101.98
   5   1 -16   33.33   94.60
   5   1 -16  141.70   75.26
   5   1 -17 1292.66  102.61
   5   1 -17 1580.20  142.29
   5   1 -18  191.60   97.21
  -5  -1  18  455.52  103.20
  -5   0   113209.04  476.52
  -5   0   113577.67  464.15
  -5   0   2  583.73   67.53
  -5   0   2  685.73   65.08
   5   0  -2  585.55   52.37
  -5   0   3 8453.90  302.48
  -5   0   3 7432.14  291.24
   5   0  -4 8964.36  289.20
  -5   0   4 7955.42  284.28
   5   0  -4 7091.06  297.99
   5   0  -4 7839.40  287.12
   5   0  -5  725.83   79.70
   5   0  -5  724.27   57.59
  -5   0   5  991.84   53.54
  -5   0   5  795.36   68.64
  -5   0   5  752.44   67.83
   5   0  -5  999.96   49.03
   5   0  -5  996.66   49.89
  -5   0   6 6546.65  308.44
   5   0  -6 7242.03  270.47
   5   0  -6 8177.08  286.01
   5   0  -6 7372.20  306.16
  -5   0   6 7776.58  342.45
  -5   0   6 8158.75  308.34
   5   0  -7 8282.75  357.49
  -5   0   7 9124.16  315.45
   5   0  -7 9017.19  335.19
  -5   0   7 8583.80  358.33
   5   0  -7 7895.09  325.09
   5   0  -7 7270.13  314.76
   5   0  -8  193.98   45.32
   5   0  -8   38.10   39.11
  -5   0   8  105.86   81.54
  -5   0   8   62.04   33.02
   5   0  -8   19.20   66.12
  -5   0   8  188.23   46.62
  -5   0   9 4740.47  259.93
  -5   0   9 4356.35  209.25
  -5   0   9 5236.71  194.77
   5   0  -9 4296.73  182.97
   5   0  -9 4904.33  202.41
   5   0  -9 4920.01  226.94
  -5   0  10 4302.65  202.45
   5   0 -10 4117.55  167.41
  -5   0  10 4472.44  238.87
   5   0 -10 4399.52  199.81
   5   0 -10 4490.13  218.65
  -5   0  11   48.63   50.32
  -5   0  11   52.12   72.01
   5   0 -11  277.07   93.89
   5   0 -11  127.94   53.26
  -5   0  11  128.60   59.52
   5   0 -12 2163.39  144.19
  -5   0  12 1816.82  141.30
  -5   0  12 2526.88  124.93
   5   0 -12 2148.42  132.70
   5   0 -13 1477.92  106.38
  -5   0  13 1371.36  110.66
   5   0 -13 1448.76  109.67
  -5   0  13 1327.28  106.77
  -5   0  14  366.59   99.78
   5   0 -14   67.45   86.00
  -5   0  14  292.81   70.64
   5   0 -14  280.80   67.39
  -5   0  15 4396.86  201.25
   5   0 -15 3670.54  193.01
   5   0 -15 3722.68  223.78
   5   0 -16  653.19  103.35
   5   0 -16  489.96  105.57
  -5   0  16  426.54  106.65
  -5   0  16  820.37   98.15
  -5   0  17  534.89   96.28
   5   0 -17  253.54  109.78
  -5   0  17  276.44   97.46
   5   0 -17  319.50   91.79
   5   0 -18  743.57  101.72
  -5   0  18 1004.39  121.68
  -5   1   0   69.50   53.31
  -5   1   0  210.77   62.21
   5  -1   0   59.99   35.42
   5  -1  -111523.53  443.21
  -5   1   111473.79  430.17
  -5   1   2 4742.94  201.53
   5  -1  -2 5161.05  172.32
  -5   1   2 4190.66  185.93
  -5   1   2 3945.82  212.34
   5  -1  -2 4870.04  214.96
   5  -1  -3  744.06   56.59
  -5   1   3  509.77   56.81
  -5   1   3  557.92   71.29
  -5   1   3  852.35   66.43
  -5   1   3  815.10   72.77
   5  -1  -3  691.38   39.56
  -5   1   4 4820.92  221.92
   5  -1  -4 5023.55  234.31
  -5   1   4 5382.20  227.16
   5  -1  -4 5791.62  219.12
   5  -1  -4 5803.21  223.04
   5  -1  -5 4234.53  172.01
   5  -1  -5 3874.99  179.59
  -5   1   5 3784.32  237.79
  -5   1   5 3636.69  175.22
   5  -1  -6   61.98   36.76
   5  -1  -6   33.83   34.00
   5  -1  -6   60.78   28.56
  -5   1   6  152.16   58.46
  -5   1   6   54.74   41.65
   5  -1  -6   34.52   40.50
  -5   1   6   58.71   32.39
  -5   1   6    6.97   40.80
   5  -1  -7 9597.49  337.20
  -5   1   7 8320.15  350.27
  -5   1   7 7891.61  445.66
   5  -1  -7 8696.71  344.36
  -5   1   7 8675.31  361.78
  -5   1   8 4817.52  297.00
  -5   1   8 5220.07  236.81
   5  -1  -8 5792.34  236.26
  -5   1   8 5345.83  216.92
  -5   1   9 1722.37  111.95
   5  -1  -9 2161.48  101.88
   5  -1  -9 1837.93   88.72
  -5   1   9 2022.20   94.97
  -5   1   9 1646.79   94.04
  -5   1   9 1526.65  138.40
   5  -1 -10 4655.11  192.49
  -5   1  10 3880.11  195.96
  -5   1  10 3569.81  220.66
   5  -1 -10 4206.63  207.65
  -5   1  10 4683.33  177.36
   5  -1 -11  660.94   64.85
  -5   1  11  354.12   65.99
   5  -1 -11  490.95   86.58
  -5   1  11  644.22   70.56
   5  -1 -12  808.74   76.63
   5  -1 -12  690.82   98.55
  -5   1  12  838.69   99.35
   5  -1 -13 1866.43  136.55
   5  -1 -13 2161.52  127.19
  -5   1  13 1820.27  127.12
   5  -1 -14  279.21   88.16
  -5   1  14  336.50   84.20
  -5   1  14  175.20   83.81
   5  -1 -14  204.57   69.07
  -5   1  15  834.47   95.32
   5  -1 -15  723.99  108.51
  -5   1  15  443.63   97.36
   5  -1 -15  715.10   88.50
  -5   1  16 2254.20  150.53
   5  -1 -16 2076.58  157.46
  -5   1  16 1788.17  165.51
   5  -1 -16 2147.99  141.19
  -5   1  17    1.11   88.83
   5  -1 -17   47.10   73.00
   5  -2   0 9085.06  371.77
  -5   2   0 9086.24  354.96
   5  -2  -1  839.48   57.40
  -5   2   1  855.77   82.56
  -5   2   1 1217.63   70.23
  -5   2   1  684.66   89.56
   5  -2  -1 1026.27   56.44
   5  -2  -214803.59  511.66
  -5   2   214502.18  500.81
  -5   2   212552.33  627.49
   5  -2  -3 1401.51   71.45
   5  -2  -3 1242.64   80.80
  -5   2   3 1350.86   81.59
  -5   2   3 1552.12   80.28
  -5   2   3 1107.15   95.25
  -5   2   4 1116.09   97.47
   5  -2  -4 1355.26   79.93
  -5   2   4 1342.93   90.89
  -5   2   4 1527.04   91.89
   5  -2  -4 1204.61   77.41
  -5   2   5 3461.61  192.21
  -5   2   5 4130.93  180.06
   5  -2  -5 3667.05  179.07
  -5   2   5 4319.36  219.23
   5  -2  -5 3639.35  179.09
   5  -2  -6 1239.75   85.35
  -5   2   6 1717.26   91.51
  -5   2   6 1442.56   93.04
  -5   2   6 1345.03   91.71
  -5   2   6 1518.45  111.05
   5  -2  -6 1803.22   97.15
  -5   2   7 1933.89  109.78
   5  -2  -7 2031.59  126.37
  -5   2   7 2138.77  152.13
  -5   2   8 5157.06  211.98
  -5   2   8 4586.00  307.45
  -5   2   8 4926.18  212.41
   5  -2  -8 4614.65  239.82
   5  -2  -9  392.25   63.56
   5  -2  -9  631.28   67.48
  -5   2   9  357.68   69.61
  -5   2   9  531.96   77.39
  -5   2   9  646.19   68.46
  -5   2   9  480.56   49.78
  -5   2  10 4400.92  183.82
  -5   2  10 3438.92  166.06
   5  -2 -10 4233.07  190.90
   5  -2 -11 4550.05  193.91
  -5   2  11 4589.88  201.23
  -5   2  11 3870.93  187.05
   5  -2 -11 3458.41  233.84
  -5   2  11 3812.83  178.38
   5  -2 -12  170.63   62.56
  -5   2  12   65.01   62.56
  -5   2  12   54.49   80.23
   5  -2 -12  -20.26   61.81
  -5   2  13  771.22   89.96
   5  -2 -13  768.12   86.69
   5  -2 -13  580.86   95.80
  -5   2  14 1100.35  120.73
   5  -2 -14 1377.06  102.71
   5  -2 -14 1293.16  100.56
  -5   2  14 1346.88  119.11
   5  -2 -15  148.60   80.23
  -5   2  15  240.85   89.01
  -5   2  15  165.77  105.69
   5  -2 -15  252.29   95.64
  -5   2  16 1060.08  124.38
   5  -2 -16  729.05  122.29
  -5   2  16  725.88  112.21
   5  -2 -16  685.19   94.25
  -5   2  17  518.96  134.08
  -5   3   0 8000.03  319.80
  -5   3   0 9146.99  328.85
   5  -3   0 7667.05  295.09
  -5   3   0 6619.30  315.01
  -5   3   1 1067.01   81.02
  -5   3   1 1576.96   80.34
  -5   3   1 1215.75   74.24
   5  -3  -1 1167.79   68.73
  -5   3   1 1220.00   69.11
  -5   3   2 7199.34  284.70
  -5   3   2 7032.91  262.37
  -5   3   2 6023.75  273.60
  -5   3   315630.64  558.50
   5  -3  -315113.09  525.42
  -5   3   312251.07  507.90
  -5   3   4  666.94   67.65
  -5   3   4  429.06   61.33
   5  -3  -4  434.23   62.06
  -5   3   4  660.31   66.38
   5  -3  -5 3030.07  127.38
  -5   3   5 3021.36  123.55
  -5   3   5 2587.35  176.89
  -5   3   5 2269.10  135.57
  -5   3   6 4714.66  192.37
  -5   3   6 3681.12  183.71
   5  -3  -6 4931.80  195.38
  -5   3   6 4003.28  223.43
  -5   3   7  168.42   45.68
  -5   3   7  130.65   50.58
   5  -3  -7  136.46   69.30
  -5   3   7  184.28   57.93
   5  -3  -7  205.67   45.95
  -5   3   7  189.61   56.37
  -5   3   8 2611.68  139.26
  -5   3   8 2470.09  151.31
   5  -3  -8 3233.96  150.66
  -5   3   8 2471.92  147.11
   5  -3  -9 2263.95  138.85
  -5   3   9 2354.07  128.99
   5  -3  -9 2869.30  137.68
  -5   3   9 2297.48  136.58
   5  -3 -10  503.28   95.88
  -5   3  10  475.89   54.97
  -5   3  10  410.31   71.54
  -5   3  10  652.17   87.19
   5  -3 -10  418.14   78.99
   5  -3 -11 3088.04  167.73
  -5   3  11 2638.07  158.44
  -5   3  11 3370.66  165.36
   5  -3 -12 1072.81   91.48
  -5   3  12 1189.74  107.21
  -5   3  12  787.41  108.21
   5  -3 -12  778.86  107.01
  -5   3  13   77.45   82.98
   5  -3 -13  141.42   77.51
  -5   3  13  193.52   85.87
   5  -3 -13  160.72   75.15
   5  -3 -14  955.60  105.72
  -5   3  14  817.78  110.49
   5  -3 -14  622.97   98.57
  -5   3  14 1041.50  101.34
   5  -3 -15  635.59  103.65
   5  -3 -15  712.76   79.93
  -5   3  15  749.59  101.56
  -5   3  16  -16.07   71.41
  -5   3  16   55.99   71.90
  -5   4   0 3393.24  158.53
  -5   4   0 2595.91  172.11
  -5   4   0 3343.10  149.34
  -5   4   1 8233.84  328.28
   5  -4  -110842.18  406.78
  -5   4   2   61.84   52.38
   5  -4  -2   16.92   69.85
  -5   4   2    1.76   35.87
  -5   4   2  -91.42   61.93
   5  -4  -3 9237.84  337.09
  -5   4   3 7326.33  319.43
  -5   4   3 9428.95  352.35
   5  -4  -4 2612.01  135.18
  -5   4   4 2769.65  137.25
  -5   4   4 2582.62  139.29
  -5   4   5  110.82   57.93
  -5   4   5  384.32   60.80
   5  -4  -5  208.11   50.88
  -5   4   5  199.61   52.12
   5  -4  -5  134.00   63.48
  -5   4   5  246.92   52.87
   5  -4  -6 2344.75  139.35
  -5   4   6 2267.48  193.98
  -5   4   6 2892.21  146.36
  -5   4   6 2649.36  133.54
  -5   4   7 1538.69   95.28
   5  -4  -7 1390.92  111.95
  -5   4   7 1274.09   79.80
  -5   4   8  160.37   66.90
   5  -4  -8   68.02   55.93
   5  -4  -8  137.88   86.20
  -5   4   8   93.21   64.50
  -5   4   8  158.26   53.86
  -5   4   9 2848.19  155.33
  -5   4   9 2262.67  137.16
  -5   4   9 2416.79  142.86
   5  -4 -10 1656.33  115.02
   5  -4 -10 1265.89  103.59
  -5   4  10 1349.95   98.60
  -5   4  10 1586.11  116.09
  -5   4  11  628.70   93.73
   5  -4 -11  671.13   83.00
   5  -4 -11  498.61  107.20
  -5   4  12 1397.85  117.31
   5  -4 -12 1304.30  110.91
   5  -4 -12 1329.69  120.07
   5  -4 -13  273.13  115.76
  -5   4  13   97.62   85.67
  -5   4  13   58.36   79.93
   5  -4 -13  211.13   79.62
  -5   4  14  390.16   89.34
   5  -4 -14  120.78  115.54
  -5   4  14  250.16   67.47
   5  -4 -14   49.93   91.36
   5  -5   0   49.46   51.91
  -5   5   0   47.82   61.46
   5  -5   0  296.53   74.96
  -5   5   0   62.04   72.99
   5  -5  -1 6015.89  255.49
  -5   5   1 5728.90  247.75
   5  -5  -2 3285.30  183.59
  -5   5   2 3538.63  177.23
  -5   5   3  544.14   70.66
   5  -5  -3  936.65   79.80
   5  -5  -3  480.98   75.61
  -5   5   3  755.05   65.15
  -5   5   3  968.26   83.10
  -5   5   4 5606.03  271.81
   5  -5  -4 5590.99  258.59
   5  -5  -5  367.70   73.91
  -5   5   5  401.47   63.36
  -5   5   5  215.53   65.37
  -5   5   5  434.52   82.34
  -5   5   6  722.61   72.26
  -5   5   6  526.38   76.70
  -5   5   6  921.75   82.06
   5  -5  -6  811.58   84.74
   5  -5  -7 2474.08  123.64
  -5   5   7 1827.94  122.60
  -5   5   7 2513.22  134.69
  -5   5   8  791.21   91.32
   5  -5  -8 1119.77   96.52
  -5   5   8  814.22   88.23
   5  -5  -8  948.37  112.43
  -5   5   8 1234.96  111.86
   5  -5  -9  603.01   77.79
  -5   5   9  465.23   62.72
   5  -5  -9  516.23  110.33
  -5   5   9  801.36  107.11
  -5   5  10 1419.28  112.51
  -5   5  10 1928.53  140.47
   5  -5 -10 1483.59  123.38
   5  -5 -10 2061.68  127.66
   5  -5 -11  150.27  101.80
  -5   5  11  234.07   96.93
   5  -5 -11   71.51   76.23
  -5   5  11   76.81   66.70
  -5   5  12  668.79   98.00
   5  -5 -12  585.49   94.64
  -5   5  12  859.04  107.94
   5  -5 -12  690.12   94.21
  -5   5  13  467.54  104.10
  -5   5  13  638.49  118.80
   5  -6   0  451.95   68.55
   5  -6   0  343.81   62.41
  -5   6   0  170.37   80.67
  -5   6   0  525.76   81.19
  -5   6   1  200.04   81.19
   5  -6  -1  503.94   67.99
   5  -6  -2 4024.85  224.66
  -5   6   2 4219.09  193.55
   5  -6  -3  562.63   69.80
  -5   6   3  240.03   80.37
   5  -6  -3  434.48   82.95
  -5   6   3  431.70   67.52
   5  -6  -4  801.57   94.88
  -5   6   4  833.58   90.57
  -5   6   4 1102.49   85.77
  -5   6   5 1697.14  119.19
  -5   6   5 1637.93  126.74
  -5   6   6  175.40   78.92
  -5   6   6  133.26   76.64
  -5   6   6    4.04   60.07
   5  -6  -6  -20.49   69.54
   5  -6  -6  161.65   89.04
  -5   6   7  737.63   81.65
  -5   6   7  758.45   79.53
   5  -6  -7  764.80  117.39
  -5   6   7  994.75  106.71
   5  -6  -7  863.29   84.60
   5  -6  -8  922.94  119.36
  -5   6   8  830.87   90.14
  -5   6   8 1155.54  121.09
  -5   6   8  665.29   78.49
   5  -6  -8 1036.20   97.03
   5  -6  -9   84.96  111.35
   5  -6  -9   17.64   77.53
  -5   6   9  165.10   85.96
   5  -6 -10  470.14  117.50
   5  -6 -10  747.91  117.63
  -5   6  10  887.33  113.95
  -5   7   0  402.10   86.46
   5  -7   0  773.95   81.17
   5  -7  -1   16.40   70.93
   5  -7  -1  -50.19   74.63
  -5   7   1    9.31   75.50
  -5   7   1   24.93   74.95
   5  -7  -2  582.85   91.74
  -5   7   2  470.10   88.32
  -5   7   2 1108.91  115.03
   5  -7  -3 1664.52  129.20
  -5   7   3 2342.63  152.33
   5  -7  -3 2131.03  142.17
  -5   7   4   85.23   73.75
   5  -7  -4 -205.42   82.01
  -5   7   4   67.25   77.73
   5  -7  -5  941.22  120.47
   5  -7  -5 1376.06  101.26
  -5   7   5 1041.55  118.32
   5  -7  -6  209.27  105.98
  -5   7   6  267.50   72.75
  -5   7   6  568.70  100.11
   5  -7  -6  258.18   87.48
   5  -7  -7  -53.40  102.02
  -5   7   7    9.29   69.08
  -5   7   7   16.77   85.60
   5  -7  -8  228.55   93.42
   5  -8   0  501.09   81.43
  -5   8   0  355.44  147.55
  -5   8   0 1001.65  120.78
  -5   8   1  567.93  102.02
   5  -8  -1  305.26   79.16
  -5   8   1  132.09   83.77
   5  -8  -2  116.94   92.94
  -5   8   2 -112.02  103.60
  -5   8   2  190.02  101.19
   5  -8  -3  697.45  107.82
  -5   8   3  552.06   93.37
  -5   8   4  731.92  111.28
   5  -8  -4  562.68  107.88
  -5   8   4  325.01   81.93
  -4  -8   1  241.74   81.20
  -4  -8   2  256.44   79.66
  -4  -8   3 1818.57  135.58
  -4  -8   7  179.72   86.09
  -4  -8   8  922.61  112.11
  -4  -8   9 1903.23  140.36
  -4  -8  10   88.16   92.49
  -4  -8  11 1919.60  147.93
   4   8 -11 1492.92  102.96
   4   8 -12 1021.91  125.23
  -4  -8  12 1135.26  121.72
  -4  -7   1 1506.76  121.03
  -4  -7   2  199.27   74.54
  -4  -7   3 1579.64  112.19
  -4  -7   5  205.00   94.65
  -4  -7   6 3984.35  280.63
   4   7  -7 2310.04  135.69
  -4  -7   7 2542.31  203.09
   4   7  -8  -23.95   68.78
  -4  -7   8  -59.56   61.98
   4   7  -9 2339.18  152.67
  -4  -7   9 2780.55  144.28
   4   7 -10 1334.36  128.76
  -4  -7  10 1679.06  114.39
   4   7 -11  550.21   99.28
  -4  -7  11  694.30   94.71
  -4  -7  12 3742.03  213.06
   4   7 -12 3518.94  194.13
   4   7 -13  686.40  103.11
  -4  -7  13 1071.67  138.75
   4   7 -14  692.57  103.70
  -4  -7  14  678.49   99.52
   4   7 -15 2167.41  241.83
  -4  -7  15 1685.64  139.53
  -4  -6   1 1856.33  117.74
  -4  -6   2 2440.48  162.85
   4   6  -2 2019.41  129.45
  -4  -6   3  166.12   77.44
   4   6  -3   15.81   56.41
  -4  -6   4 6331.24  280.41
   4   6  -4 5737.83  269.95
  -4  -6   5 1351.49   80.84
   4   6  -5 1994.46  122.38
  -4  -6   6 1526.81   88.21
  -4  -6   6 1910.37  179.08
   4   6  -6 2153.17  120.20
  -4  -6   8  988.13   69.07
  -4  -6   8 1383.49  101.57
   4   6  -8 1175.44   89.33
   4   6  -9 1062.87   90.20
   4   6  -9 1341.53  114.65
  -4  -6   9 1541.42  101.66
   4   6 -10 4816.36  217.98
   4   6 -10 4465.70  211.90
  -4  -6  10 5106.40  245.38
   4   6 -11 1210.60   99.20
   4   6 -11 1582.01  117.32
  -4  -6  11 1783.00  144.48
   4   6 -12 1907.12  149.10
  -4  -6  12 1925.99  129.69
   4   6 -12 1744.87  131.92
   4   6 -13 4777.04  219.10
   4   6 -13 4303.31  213.30
  -4  -6  13 4800.97  242.51
   4   6 -14  -88.50   72.56
  -4  -6  14  -24.56   85.63
   4   6 -14   63.76   78.30
  -4  -6  15 1475.00  130.56
   4   6 -15 1324.48  122.11
   4   6 -15 1257.46  113.54
  -4  -6  16  983.76  110.33
   4   6 -16 1184.42  118.96
   4   6 -16  922.40  125.54
  -4  -6  16 1143.95  116.84
  -4  -6  17  132.14  136.81
   4   6 -17  129.61   61.46
   4   5  -1  356.65   59.09
   4   5  -1  603.90   63.06
  -4  -5   1  809.80   79.71
   4   5  -2 5338.84  223.27
  -4  -5   2 5031.63  232.35
  -4  -5   2 6416.74  247.72
  -4  -5   3 2018.72  104.76
   4   5  -3 1986.73  106.85
  -4  -5   3 1368.33   89.35
  -4  -5   3 1630.59   95.57
   4   5  -4 2412.35  124.03
  -4  -5   4 2475.52  109.65
  -4  -5   4 2616.65  139.99
   4   5  -510638.02  398.64
  -4  -5   510041.42  393.50
  -4  -5   510795.95  555.76
  -4  -5   6 1212.69   91.62
   4   5  -6 1135.69   79.26
  -4  -5   6 1162.52   80.58
  -4  -5   6  878.31   70.89
  -4  -5   7 4377.68  196.42
  -4  -5   7 3860.24  187.66
   4   5  -7 4215.54  204.21
   4   5  -8 4907.03  232.80
  -4  -5   8 6106.23  248.38
  -4  -5   8 5469.66  232.60
  -4  -5   9  203.73   65.27
   4   5  -9   93.12   46.48
   4   5  -9  203.25   60.96
  -4  -5   9  150.02   54.36
   4   5 -10 4164.23  189.06
   4   5 -10 4227.06  201.12
  -4  -5  10 4185.17  229.49
   4   5 -11 5114.80  237.37
  -4  -5  11 5487.49  298.89
   4   5 -11 4924.05  216.07
   4   5 -12   26.99   64.77
  -4  -5  12   12.44   62.92
  -4  -5  12   12.70   67.79
   4   5 -12 -102.77   80.33
   4   5 -13 4477.92  191.67
  -4  -5  13 4392.44  210.13
   4   5 -13 4236.14  218.64
   4   5 -14 2909.42  144.01
   4   5 -14 3201.03  158.88
  -4  -5  14 3460.37  190.77
   4   5 -15  211.08   77.49
   4   5 -15   87.01   78.52
  -4  -5  15  125.15   79.65
   4   5 -16 1696.64  140.01
  -4  -5  16 1868.62  140.75
   4   5 -16 2052.20  164.50
  -4  -5  17 1396.79  117.96
   4   5 -17 1246.71  111.77
   4   5 -17 1171.64  123.15
   4   5 -18   56.38   83.50
  -4  -5  18  181.95  102.99
   4   5 -18  -66.56   84.61
  -4  -4   1  264.38   42.56
  -4  -4   1  424.52   46.84
   4   4  -1  331.65   46.48
  -4  -4   2 2212.63  108.43
   4   4  -2 2134.30  119.98
  -4  -4   2 2244.63  105.86
  -4  -4   3 8243.26  338.83
   4   4  -3 7810.80  302.68
  -4  -4   3 7825.14  310.63
  -4  -4   4  103.32   37.65
  -4  -4   4   73.04   43.90
  -4  -4   4   62.65   54.14
   4   4  -514148.08  509.18
  -4  -4   514190.27  566.19
   4   4  -7   38.21   61.74
  -4  -4   7  120.65   43.52
  -4  -4   7   -1.35   38.71
  -4  -4   8 8044.69  353.91
  -4  -4   8 7819.45  288.94
   4   4  -8 7563.83  281.58
   4   4  -8 7253.44  293.38
   4   4  -9 5900.16  266.44
  -4  -4   9 6154.87  235.66
  -4  -4   9 6077.74  298.20
   4   4  -9 5184.11  213.60
  -4  -4  10   41.92   52.81
  -4  -4  10  128.62   53.96
   4   4 -10  -30.47   58.70
   4   4 -10  143.81   55.54
  -4  -4  10   57.08   45.05
   4   4 -11 3868.92  180.80
  -4  -4  11 4173.59  188.80
   4   4 -11 3836.46  189.30
   4   4 -12 3183.80  168.68
  -4  -4  12 3468.84  176.95
   4   4 -12 3441.23  166.34
  -4  -4  13 2788.95  172.24
   4   4 -13 2387.88  133.90
   4   4 -13 2585.70  129.58
   4   4 -14 7708.65  376.24
   4   4 -14 7842.40  331.19
  -4  -4  14 8141.77  315.08
   4   4 -15  279.11   82.85
  -4  -4  15  493.12   81.29
   4   4 -15  238.58   79.97
  -4  -4  16  931.39   97.95
   4   4 -16 1022.26  111.63
   4   4 -16  733.63   83.54
   4   4 -17 1603.72  119.95
   4   4 -17 1529.64  135.97
  -4  -4  17 1812.97  130.99
   4   4 -18  399.34   92.52
  -4  -4  18  408.91   97.68
   4   4 -18  500.76  102.68
  -4  -3   1 6552.51  266.52
  -4  -3   1 6714.83  252.60
   4   3  -1 5702.94  243.50
  -4  -3   2  186.25   42.60
   4   3  -2  243.15   35.42
   4   3  -2  198.75   32.59
  -4  -3   2  161.00   32.42
  -4  -3   3 7395.73  369.87
   4   3  -3 7169.79  301.18
   4   3  -3 7504.56  276.54
  -4  -3   3 7964.70  297.63
  -4  -3   410273.56  394.08
  -4  -3   4 9893.34  359.22
   4   3  -4 9341.58  363.15
   4   3  -5 1073.31   72.70
  -4  -3   5 1511.29   75.16
  -4  -3   5 1299.81   70.41
  -4  -3   625583.14  865.44
   4   3  -623488.68  822.51
   4   3  -622802.41  808.56
   4   3  -7 7230.67  267.17
   4   3  -7 6935.40  271.86
  -4  -3   7 7552.02  320.40
   4   3  -8 3924.55  189.80
   4   3  -8 4055.62  186.67
  -4  -3   8 3695.27  206.58
   4   3  -9 8476.75  328.85
   4   3  -9 8406.64  312.69
  -4  -3   9 8535.09  354.55
  -4  -3   9 9105.99  339.53
  -4  -3  10 1001.69   70.10
  -4  -3  10  947.03   62.84
   4   3 -10 1033.92   69.32
  -4  -3  10  717.40   81.46
   4   3 -10  787.89   62.60
  -4  -3  11 1856.93  106.25
   4   3 -11 1772.59  103.71
   4   3 -11 1826.58  107.78
  -4  -3  11 1943.91  106.72
   4   3 -12 5133.42  226.37
  -4  -3  12 5251.98  222.15
   4   3 -12 5145.87  239.66
   4   3 -13  691.66   77.18
  -4  -3  13  670.58   81.38
   4   3 -13  751.89   86.09
   4   3 -14 3668.99  191.79
   4   3 -14 3955.00  202.21
  -4  -3  14 3589.20  176.11
   4   3 -15 5077.30  255.16
   4   3 -15 5149.91  244.97
  -4  -3  15 5759.68  243.79
   4   3 -16   82.53   67.03
   4   3 -16  101.97   59.19
  -4  -3  16   50.39  101.26
   4   3 -17 1193.02  105.87
   4   3 -17 1317.88  118.66
  -4  -3  17 1260.48  118.96
  -4  -3  18 1641.49  126.47
   4   3 -18 1426.73  134.34
   4   3 -18 1192.61  106.59
   4   3 -19   31.62   80.24
  -4  -3  19   -9.22   89.45
  -4  -2   112643.88  470.13
   4   2  -112375.76  450.84
  -4  -2   2 1105.15   67.59
   4   2  -2 1372.88   67.83
  -4  -2   2 1391.09   67.87
   4   2  -2 1119.19   69.19
   4   2  -2 1013.96   74.60
   4   2  -3 4091.66  152.44
  -4  -2   3 3701.29  153.37
   4   2  -418985.34  670.85
   4   2  -418796.37  691.96
  -4  -2   419242.23  721.67
   4   2  -5 4139.39  156.94
  -4  -2   5 4150.29  191.54
   4   2  -5 3678.23  149.25
   4   2  -6 7468.10  319.78
  -4  -2   6 7712.27  300.57
   4   2  -6 9076.05  315.86
   4   2  -6 8417.57  312.25
   4   2  -717501.97  578.32
   4   2  -717099.68  626.14
  -4  -2   717325.97  635.91
  -4  -2   8  406.56   48.62
   4   2  -8  594.99   55.35
   4   2  -8  403.98   45.73
   4   2  -8  486.33   53.59
  -4  -2   8  529.92   50.57
   4   2  -9 9815.65  390.03
  -4  -2   910249.62  375.22
   4   2  -9 9917.05  378.61
  -4  -2  10 6001.05  234.85
  -4  -2  10 5977.04  233.48
   4   2 -10 6006.37  254.90
   4   2 -10 5798.54  277.97
   4   2 -11  417.86   65.19
  -4  -2  11  262.20   59.06
  -4  -2  11  369.60   57.60
   4   2 -11  375.98   69.88
   4   2 -11  346.57   42.29
   4   2 -12 2431.96  154.15
  -4  -2  12 2466.86  127.20
  -4  -2  12 2444.38  117.89
   4   2 -12 2710.60  155.51
  -4  -2  13 6074.79  246.37
   4   2 -13 5584.17  247.16
   4   2 -13 5599.12  268.18
   4   2 -14  538.61   81.20
  -4  -2  14  590.26  110.85
   4   2 -14  537.08   83.45
   4   2 -15 6628.72  293.60
   4   2 -15 6617.13  319.41
  -4  -2  15 7572.69  329.06
  -4  -2  16 2137.03  149.51
   4   2 -16 2116.35  142.08
   4   2 -16 2029.46  132.16
   4   2 -17  176.95   82.86
   4   2 -17  378.85   84.61
  -4  -2  17  311.35   89.23
   4   2 -18 1777.54  144.55
  -4  -2  18 1518.04  145.53
   4   2 -18 1635.38  168.09
   4   2 -19  466.11  101.18
  -4  -2  19  520.29  102.45
   4   2 -19  413.63   75.00
   4   1  -1 7177.75  311.40
  -4  -1   1 6868.09  274.30
   4   1  -1 7460.03  276.03
  -4  -1   217280.42  623.33
   4   1  -218031.88  692.77
  -4  -1   218347.32  596.71
   4   1  -218978.91  649.60
   4   1  -3   71.61   19.60
   4   1  -3   21.50   36.58
   4   1  -3   77.74   33.39
  -4  -1   3   41.96   18.21
  -4  -1   3   83.32   45.85
   4   1  -412618.39  396.77
   4   1  -410823.84  441.76
  -4  -1   410576.70  394.74
  -4  -1   411497.14  398.26
   4   1  -410631.61  439.96
   4   1  -5 9434.48  372.41
   4   1  -5 8788.73  340.43
  -4  -1   5 9850.73  392.58
   4   1  -6   21.44   45.63
  -4  -1   6   -9.27   32.60
   4   1  -6   59.59   36.10
   4   1  -6   65.37   37.75
   4   1  -718431.44  668.26
  -4  -1   717956.84  685.13
   4   1  -716808.24  664.09
  -4  -1   720128.77  721.26
   4   1  -8 8375.78  331.15
   4   1  -8 8973.36  373.80
  -4  -1   8 8360.59  331.48
   4   1  -8 8582.59  321.82
  -4  -1   9  474.89   73.65
   4   1  -9  632.19   69.81
   4   1  -9  644.97   68.12
  -4  -1   9  508.67   64.70
   4   1  -9  352.05   41.90
  -4  -1   9  543.05   56.12
   4   1 -10 7546.81  324.85
  -4  -1  10 8096.91  373.85
  -4  -1  10 9655.97  473.83
  -4  -1  10 9022.35  395.01
   4   1 -10 8684.85  320.79
   4   1 -11 4767.85  207.98
   4   1 -11 4062.67  181.12
  -4  -1  11 4889.19  240.08
  -4  -1  11 4792.24  257.54
   4   1 -11 5147.89  216.28
   4   1 -12  363.25   33.35
   4   1 -12  397.18   61.29
   4   1 -12  531.56   66.61
  -4  -1  12  332.07   57.71
  -4  -1  12  530.23   74.52
   4   1 -13 5480.30  246.41
  -4  -1  13 6355.14  274.54
   4   1 -13 5585.74  242.59
  -4  -1  14 2667.46  143.00
   4   1 -14 2513.06  132.89
   4   1 -14 2634.91  143.05
   4   1 -15 1446.67  105.31
   4   1 -15 1530.86  121.95
  -4  -1  15 1567.70  111.79
   4   1 -16 3360.11  218.64
   4   1 -16 3589.67  190.40
  -4  -1  16 3971.07  222.21
   4   1 -17  254.07   76.22
   4   1 -17  178.22   65.76
  -4  -1  17   90.12  102.14
  -4  -1  18  895.56  110.49
   4   1 -18  282.37   99.90
   4   1 -18  601.37   89.27
  -4  -1  19 1335.98  112.54
   4   1 -19 1077.55  109.01
   4   1 -19 1173.45  131.67
   4   0  -1  499.47   51.33
  -4   0   1  643.06   57.74
   4   0  -1  588.02   53.62
  -4   0   1  451.91   54.99
   4   0  -211322.68  401.36
  -4   0   210499.33  400.23
  -4   0   211566.81  401.96
   4   0  -3 5970.42  225.35
  -4   0   3 5264.17  224.35
   4   0  -3 5341.71  220.87
   4   0  -4  105.36   21.14
  -4   0   4   61.42   20.32
   4   0  -4   48.70   37.82
  -4   0   4  147.51   42.66
   4   0  -4  133.31   23.56
  -4   0   4   63.78   37.93
   4   0  -4   79.69   41.21
   4   0  -4  100.72   46.76
  -4   0   4   44.27   46.15
  -4   0   512194.96  504.75
  -4   0   515302.44  507.65
   4   0  -512718.69  507.10
   4   0  -513355.43  537.25
   4   0  -513626.19  528.36
  -4   0   513137.00  487.73
  -4   0   6 7510.81  293.52
  -4   0   6 7212.08  288.25
  -4   0   6 6884.92  283.94
   4   0  -6 7289.46  304.93
   4   0  -6 6391.53  271.06
   4   0  -6 7315.61  303.70
   4   0  -6 7303.90  317.35
   4   0  -7 2056.38  114.35
  -4   0   7 2229.46  101.27
  -4   0   7 2178.82  106.50
   4   0  -7 2145.59  106.03
   4   0  -7 1945.75   96.25
  -4   0   7 1775.53  102.95
   4   0  -7 2323.96  126.02
  -4   0   825341.50  992.34
   4   0  -826196.32  966.72
  -4   0   827300.25 1003.76
   4   0  -827013.69  967.33
   4   0  -9 3382.61  145.02
   4   0  -9 3218.15  164.54
  -4   0   9 3517.22  159.27
   4   0  -9 3001.44  134.36
  -4   0   9 3697.55  168.71
  -4   0  10 4938.77  227.16
   4   0 -10 4802.47  198.08
   4   0 -10 4999.83  236.61
   4   0 -10 5021.52  210.54
  -4   0  10 5611.33  217.16
   4   0 -11 5010.29  239.83
  -4   0  11 5256.05  243.46
   4   0 -11 4874.18  232.63
  -4   0  11 5159.71  227.49
   4   0 -12 1009.50   86.90
   4   0 -12 1033.65   72.93
  -4   0  12 1119.67   83.84
   4   0 -13 2273.46  139.98
   4   0 -13 2495.15  152.08
  -4   0  13 2565.36  137.71
   4   0 -14 6233.00  293.59
  -4   0  14 6764.24  297.88
   4   0 -14 5859.88  287.07
   4   0 -15  584.42   95.55
  -4   0  15  564.02   90.36
   4   0 -15  579.06   84.45
  -4   0  16 1809.36  130.95
   4   0 -16 1509.91  124.15
   4   0 -16 1377.39  129.97
   4   0 -17 1544.23  169.99
   4   0 -17 1361.41  128.18
  -4   0  17 1846.85  134.07
   4   0 -18    5.46   61.91
  -4   0  18  126.16   88.27
   4   0 -18   12.54   67.99
   4   0 -19  571.59  101.36
   4  -1   027184.95  952.19
   4  -1   027228.86  942.64
  -4   1   022273.23  874.57
   4  -1  -113134.33  542.90
  -4   1   113475.87  471.04
  -4   1   112140.89  531.03
   4  -1  -114493.54  467.78
   4  -1  -2 6209.21  261.67
   4  -1  -2 6396.66  247.76
   4  -1  -2 5949.56  269.06
  -4   1   2 6257.67  253.57
  -4   1   2 5774.08  247.46
  -4   1   2 5076.84  288.45
   4  -1  -2 7047.07  241.97
   4  -1  -322753.25  901.58
  -4   1   322702.64  835.13
   4  -1  -325566.52  843.70
   4  -1  -4 2847.05  125.74
  -4   1   4 2409.63  126.19
   4  -1  -4 2541.15  112.35
   4  -1  -4 2229.04  129.69
  -4   1   4 2495.22  148.37
  -4   1   4 2105.09  122.69
   4  -1  -4 2539.15  107.36
   4  -1  -5 2130.68   89.50
   4  -1  -5 1876.23   94.52
  -4   1   5 1666.38  101.98
   4  -1  -5 1782.35  111.57
  -4   1   5 1682.07   96.81
  -4   1   5 1889.92  144.27
   4  -1  -617067.99  683.73
  -4   1   617035.13  852.10
  -4   1   616088.36  644.65
  -4   1   615204.75  595.12
   4  -1  -617466.23  641.40
  -4   1   618011.58  685.29
   4  -1  -617824.55  616.35
   4  -1  -7 2181.97  111.27
   4  -1  -7 2361.31  101.82
  -4   1   7 2447.95  104.48
  -4   1   7 1353.18  180.60
  -4   1   7 1889.45   91.64
   4  -1  -7 2055.12  102.20
  -4   1   7 2031.94  117.21
   4  -1  -810243.03  337.26
  -4   1   8 8899.61  383.92
  -4   1   810185.81  360.18
  -4   1   8 8352.36  350.92
   4  -1  -8 9331.41  365.24
  -4   1   8 7979.13  594.27
   4  -1  -911193.73  417.94
   4  -1  -910244.23  415.70
  -4   1   9 9540.61  352.08
  -4   1   910027.63  430.44
   4  -1 -10  698.06   68.61
   4  -1 -10  546.44   62.98
  -4   1  10  487.30   80.11
  -4   1  10  707.94   65.99
   4  -1 -11 4082.39  176.98
   4  -1 -11 3412.29  219.67
  -4   1  11 4269.69  173.71
   4  -1 -12 2551.39  139.03
  -4   1  12 2894.58  143.65
   4  -1 -12 2191.92  151.04
  -4   1  13   94.00   73.67
   4  -1 -13   62.47   79.61
   4  -1 -13   51.06   64.40
   4  -1 -14 1912.82  130.87
   4  -1 -14 1765.55  134.96
  -4   1  14 2359.24  139.98
   4  -1 -15 3200.08  195.22
   4  -1 -15 3707.73  211.56
  -4   1  15 3942.55  199.00
   4  -1 -16  135.59   88.86
   4  -1 -16 -126.48   90.50
  -4   1  16    0.79   81.87
   4  -1 -17 1648.80  112.06
   4  -1 -17 1693.37  143.06
   4  -1 -18  568.44  104.31
   4  -1 -18  471.19  105.34
  -4   1  18  702.08  113.71
   4  -2   0 6714.33  247.23
   4  -2   0 5712.14  287.19
  -4   2   0 6499.92  243.17
  -4   2   121437.40  879.88
   4  -2  -125200.24  881.82
  -4   2   125401.80  818.03
   4  -2  -2 1573.43   77.95
   4  -2  -2 1371.44   71.88
  -4   2   2 1698.21   88.37
  -4   2   2 1381.14   81.83
  -4   2   2 1056.79   78.22
  -4   2   2 1291.63   83.55
  -4   2   310515.22  441.62
   4  -2  -311024.98  409.87
  -4   2   311278.51  406.80
   4  -2  -311253.78  413.79
  -4   2   3 9826.52  497.01
  -4   2   412590.95  450.75
   4  -2  -410508.63  427.31
   4  -2  -411611.42  420.95
  -4   2   411030.98  422.94
  -4   2   4 9926.23  478.80
   4  -2  -5  639.32   51.33
   4  -2  -5  431.68   53.86
  -4   2   5  616.41   49.40
  -4   2   5  615.74   58.22
  -4   2   5  469.28   49.99
  -4   2   5  449.68   47.94
   4  -2  -5  549.57   50.29
  -4   2   6 5491.97  228.40
  -4   2   6 5272.45  249.48
   4  -2  -6 5408.13  254.90
   4  -2  -7 6636.76  312.43
  -4   2   7 6571.11  261.68
  -4   2   7 6631.03  286.80
  -4   2   8  -23.03   58.71
  -4   2   8   -4.70   47.30
  -4   2   8   27.54   35.14
   4  -2  -8   12.53   41.02
   4  -2  -8   -0.18   42.34
  -4   2   8   36.62   54.04
  -4   2   911238.70  571.29
   4  -2  -910418.18  515.89
  -4   2   911065.42  449.48
  -4   2   911009.52  416.59
  -4   2  10 5635.12  337.35
  -4   2  10 6029.50  294.17
   4  -2 -10 5787.68  264.23
  -4   2  10 6010.03  218.90
   4  -2 -11  -28.66   55.39
  -4   2  11   20.50   45.47
  -4   2  11  159.38   62.31
   4  -2 -11  -10.82   87.56
   4  -2 -12 1453.61   93.34
   4  -2 -12 1176.11   80.66
  -4   2  12 1515.65   89.46
   4  -2 -13  936.01   88.25
  -4   2  13 1044.21  100.65
   4  -2 -13 1001.48   93.63
   4  -2 -14   71.46   97.07
   4  -2 -14  263.14   80.00
  -4   2  14  150.55   81.12
   4  -2 -15 1792.06  134.97
   4  -2 -15 1904.12  134.00
  -4   2  15 2048.07  139.86
   4  -2 -16  693.54  114.41
   4  -2 -16  706.72  102.98
  -4   2  16  542.88   97.98
   4  -2 -17  625.97  111.01
   4  -2 -17  513.45  112.22
  -4   2  17  825.48  110.12
  -4   3   0 3100.91  143.06
  -4   3   0 2639.49  119.15
   4  -3   0 2402.88  148.79
   4  -3   0 2867.07  113.37
  -4   3   0 2446.10  113.88
  -4   3   116969.43  547.70
   4  -3  -113848.44  564.97
  -4   3   113824.97  596.84
   4  -3  -117784.88  635.87
   4  -3  -115687.00  543.19
  -4   3   115076.15  559.58
   4  -3  -213089.63  478.46
  -4   3   213076.51  475.27
   4  -3  -215000.97  522.49
  -4   3   212335.15  593.53
  -4   3   3  761.28   64.08
  -4   3   3  718.04   61.01
  -4   3   3  895.91   66.92
   4  -3  -3  992.60   56.55
   4  -3  -3 1063.01   62.13
  -4   3   3  836.38   80.60
  -4   3   3 1049.81   64.39
   4  -3  -414007.18  498.37
  -4   3   412947.72  489.54
  -4   3   412237.05  501.61
  -4   3   5 2661.90  126.34
   4  -3  -5 2687.02  142.73
  -4   3   5 2770.28  127.52
  -4   3   6  366.80   50.17
  -4   3   6  238.79   42.77
   4  -3  -6  394.91   49.70
  -4   3   6  350.67   54.66
   4  -3  -6  236.80   49.95
  -4   3   7 7314.75  367.28
  -4   3   7 8293.27  316.78
   4  -3  -7 8064.87  319.68
  -4   3   8 4088.19  216.66
  -4   3   8 4540.79  195.90
   4  -3  -8 4786.33  203.52
   4  -3  -9  148.16   53.76
  -4   3   9  162.17   64.49
  -4   3   9  135.57   30.37
   4  -3  -9  245.86   60.75
   4  -3 -10 5546.25  222.43
  -4   3  10 4521.47  221.59
  -4   3  10 4442.25  204.39
  -4   3  10 5666.98  253.13
   4  -3 -11  954.72  104.77
  -4   3  11 1479.38  115.09
   4  -3 -11 1272.55   94.10
  -4   3  11 1027.68  101.04
   4  -3 -12 1059.56  117.64
   4  -3 -12 1490.44  109.23
  -4   3  12 1563.65  124.45
  -4   3  12 1266.81  112.12
   4  -3 -13 1343.65  101.50
  -4   3  13 1296.56  101.15
   4  -3 -13 1174.02  106.93
  -4   3  14  696.05  193.84
  -4   3  14  315.58  104.78
   4  -3 -14  342.47   80.67
   4  -3 -14  242.57   75.91
  -4   3  15  545.76  106.22
   4  -3 -15  556.14   96.34
   4  -3 -15  634.56  102.17
   4  -3 -16 1173.24  130.33
   4  -3 -16 1065.85  111.94
  -4   3  16 1262.62  119.27
  -4   4   010384.77  362.18
   4  -4   010983.00  432.94
  -4   4   0 8872.55  354.82
   4  -4  -1  569.26   65.95
  -4   4   1  369.85   49.51
  -4   4   1  447.39   59.74
  -4   4   1  448.98   58.72
   4  -4  -1  231.96   49.87
  -4   4   1  226.68   66.07
  -4   4   1  215.29   49.33
   4  -4  -211165.79  434.15
   4  -4  -213044.22  481.09
  -4   4   211398.09  427.36
  -4   4   3 1844.03  110.82
   4  -4  -3 1889.98  106.06
  -4   4   3 1915.28  109.97
  -4   4   4 1734.19  107.85
  -4   4   4 1674.56  108.42
   4  -4  -5 6952.08  280.18
  -4   4   5 7288.00  274.38
  -4   4   6  759.10   88.81
   4  -4  -6 1022.20   73.55
  -4   4   6 1012.56   87.14
  -4   4   6  790.42   68.66
  -4   4   7 1627.93   96.98
   4  -4  -7 1388.59  111.61
  -4   4   7 1789.61   96.85
   4  -4  -8 4794.27  224.74
  -4   4   8 5327.24  223.21
  -4   4   8 4801.17  200.73
   4  -4  -9 1593.25  108.03
  -4   4   9 1218.51   91.15
  -4   4   9 1225.20   77.99
   4  -4  -9 1077.96  115.87
  -4   4   9 1459.92  110.05
  -4   4  10 2461.72  136.48
   4  -4 -10 1697.38  117.20
  -4   4  10 1816.14  106.68
  -4   4  10 2064.82  114.26
   4  -4 -11 1747.03  102.57
  -4   4  11 2283.10  140.58
   4  -4 -11 1766.10  127.93
  -4   4  11 1851.39  190.64
   4  -4 -12  -13.08   78.82
  -4   4  12   -1.64   82.58
  -4   4  12  -34.64   67.76
   4  -4 -12   76.37   94.86
   4  -4 -13  344.17   76.74
  -4   4  13  434.82   93.70
   4  -4 -13  611.70  105.66
   4  -4 -14  402.81  112.60
  -4   4  14  439.95  100.52
  -4   4  14  400.74   87.00
   4  -4 -14  616.61  117.18
   4  -4 -15  168.84  121.50
   4  -4 -15 -120.90   90.03
  -4   4  15   37.86   91.49
   4  -5   0 6814.75  273.83
  -4   5   0 6673.32  278.87
  -4   5   0 8424.65  292.71
   4  -5   0 8268.64  341.17
   4  -5  -1 1925.55   91.46
   4  -5  -1 1577.59   92.80
  -4   5   1 1608.07   97.25
  -4   5   1 1772.25   94.81
   4  -5  -2 5112.75  215.58
  -4   5   2 3947.21  187.49
  -4   5   2 5163.93  229.40
   4  -5  -310198.39  368.52
  -4   5   310699.80  418.21
  -4   5   3 8660.47  408.71
  -4   5   4  701.63   90.10
   4  -5  -4  493.94   79.93
   4  -5  -4  881.56   72.58
  -4   5   4  582.24   54.49
  -4   5   4  502.14   74.99
  -4   5   4  680.19   68.94
  -4   5   5 1544.86   92.24
   4  -5  -5 1285.16  113.02
  -4   5   5 1475.37  111.41
   4  -5  -6 2363.41  134.40
  -4   5   6 2495.99  149.66
   4  -5  -7   81.26   76.59
  -4   5   7   -3.22   74.30
   4  -5  -7   29.43   66.42
  -4   5   7   70.29   55.55
  -4   5   7   57.98   50.72
   4  -5  -8 1682.83  139.74
  -4   5   8 1651.62  109.24
  -4   5   8 1369.65   96.42
   4  -5  -9 1785.59  152.25
  -4   5   9 1701.02  107.88
   4  -5  -9 2145.56  125.97
  -4   5   9 2352.72  132.39
   4  -5 -10  -22.72   79.99
   4  -5 -10   -0.53   86.79
  -4   5  10   21.58   86.00
  -4   5  10    9.46   55.31
  -4   5  11 1984.18  142.42
  -4   5  11 1597.98  109.29
   4  -5 -11 1775.09  129.50
   4  -5 -11 1519.95  140.43
  -4   5  12  459.80   79.20
   4  -5 -12  557.51   66.92
  -4   5  12  524.09  106.98
   4  -5 -12  429.32   80.04
  -4   5  13   -4.66   67.25
   4  -5 -13 -104.25  120.74
   4  -5 -13  281.32  106.51
  -4   5  13  147.75  109.60
   4  -6  -1 6488.89  295.22
  -4   6   1 6092.39  262.86
   4  -6  -2  -25.43   65.34
  -4   6   2  -23.05   52.70
  -4   6   2 -102.84   69.22
  -4   6   3 5876.52  265.99
   4  -6  -3 5759.06  253.88
  -4   6   4 5011.79  243.22
   4  -6  -4 5000.31  205.30
   4  -6  -5  -44.00   82.44
  -4   6   5  261.33   78.50
  -4   6   5   62.11   53.60
  -4   6   6  965.39   75.62
   4  -6  -6 1529.02  106.37
   4  -6  -6 1113.22  110.15
   4  -6  -7  355.26  105.77
  -4   6   7  436.69  103.26
  -4   6   7  337.66   67.86
   4  -6  -8   62.81   76.01
   4  -6  -8   89.95   97.29
  -4   6   8   55.18   68.17
  -4   6   8  -90.02   85.35
   4  -6  -9 1130.00  133.96
   4  -6  -9 1356.73  117.04
  -4   6   9 1753.18  126.26
   4  -6 -10 1018.47  153.88
   4  -6 -10  828.84  122.48
  -4   6  10  736.06  120.34
  -4   6  11   50.29  102.04
   4  -6 -11  175.62   81.78
   4  -6 -12  580.94  107.63
  -4   7   0  250.53   86.23
   4  -7   0  121.34   64.03
   4  -7   0  256.36   69.38
  -4   7   1 3063.68  169.95
   4  -7  -1 2763.45  176.44
   4  -7  -2 1481.25  106.99
   4  -7  -2  982.74  102.40
  -4   7   2 1390.10  117.51
   4  -7  -3  547.82   84.64
   4  -7  -3  389.16   93.99
  -4   7   3  619.51   91.73
  -4   7   4 2506.07  153.24
   4  -7  -4 1730.92  148.00
   4  -7  -5  619.50   89.95
   4  -7  -5  493.35   89.49
  -4   7   5  712.72  101.53
   4  -7  -6  407.84  109.91
  -4   7   6  870.89  114.25
   4  -7  -7 1286.96  122.52
   4  -7  -7  786.22  110.43
  -4   7   7 1297.08  145.28
   4  -7  -8  252.53   96.68
   4  -7  -8  123.96   81.52
  -4   7   8  -64.66  100.21
   4  -7  -9  331.35   98.17
   4  -7  -9   26.28   86.84
  -4   7   9  202.26   95.74
   4  -8   0  355.01   85.95
   4  -8   0  156.79   81.29
  -4   8   0  396.93   94.12
   4  -8  -1  610.90  104.39
   4  -8  -1  357.24   85.78
  -4   8   1  570.01  108.20
   4  -8  -2 1308.77  115.96
   4  -8  -3  566.30   96.79
   4  -8  -3  326.83   80.36
  -4   8   3  742.15  121.55
  -4   8   4  733.81  135.63
   4  -8  -4  514.16  109.34
   4  -8  -5 1144.62  123.44
   4  -8  -5  610.91   95.13
  -4   8   5  980.72  131.50
   4  -8  -6  -17.11   90.52
   4  -8  -6  -22.80  105.86
  -4   8   6   21.11   97.56
  -4   9   0  550.29  109.76
   4  -9  -1   19.27   89.10
  -3  -9   3  504.05   98.57
  -3  -9   5  198.26   99.70
  -3  -9   6  863.60  112.81
  -3  -9   7 1459.72  153.37
  -3  -9   8  180.72  120.54
  -3  -9   9  981.76  128.92
   3   8  -1  610.65  100.04
  -3  -8   1  711.23  108.22
   3   8  -2 1922.18  138.05
  -3  -8   2 1870.94  150.47
   3   8  -3   33.75   93.45
  -3  -8   3  187.23   93.14
   3   8  -4 1607.07  125.44
  -3  -8   4 1870.59  141.27
   3   8  -5 1315.22  112.53
  -3  -8   5 1555.21  125.09
   3   8  -6  305.34   85.78
  -3  -8   6  194.66   88.03
   3   8  -7 2278.98  142.66
  -3  -8   7 2678.04  194.77
   3   8  -8 1537.93  165.48
  -3  -8   8 1669.80  149.38
   3   8  -9   92.00   83.27
  -3  -8   9  129.68   85.22
   3   8 -10 2830.97  198.36
  -3  -8  10 3571.29  200.89
   3   8 -11  865.45  107.25
   3   8 -11 1038.83  119.89
  -3  -8  11 1216.25  100.80
  -3  -8  12  897.63  123.68
   3   8 -12  843.05  102.16
   3   8 -13 1830.35  141.72
   3   8 -13 2111.00  197.16
  -3  -8  13 2158.62  156.44
   3   8 -14  397.34  109.17
   3   7  -1  374.76   76.22
  -3  -7   1  237.69   73.73
  -3  -7   2 4796.73  247.96
   3   7  -2 4223.57  201.06
   3   7  -3 3577.32  177.31
  -3  -7   3 3746.70  205.61
   3   7  -5 6590.82  294.41
  -3  -7   5 7294.07  324.07
   3   7  -6 1594.14  120.38
  -3  -7   6 1555.33  123.94
   3   7  -7  743.17   86.39
  -3  -7   7  651.35  100.86
  -3  -7   8 2342.38  180.01
  -3  -7   9  381.89   81.84
   3   7  -9  404.50   88.03
   3   7 -10 1370.31  114.64
  -3  -7  10 1722.93  116.61
  -3  -7  11 5613.82  264.72
   3   7 -11 5284.53  268.11
   3   7 -11 4746.23  259.73
   3   7 -12  551.14   91.70
  -3  -7  12  748.64  104.24
   3   7 -12  451.89   91.14
   3   7 -13 2515.59  175.90
  -3  -7  13 2590.68  158.56
   3   7 -13 2472.91  150.81
   3   7 -14 1749.59  120.12
   3   7 -14 1867.93  131.28
  -3  -7  14 1758.08  155.55
  -3  -7  14 1339.18  114.10
   3   7 -15   24.83   83.78
   3   7 -15   43.71   77.25
  -3  -7  15  -13.94   62.31
  -3  -7  16 1370.22  131.34
   3   7 -16 1367.98  133.90
   3   7 -16 1233.49  111.21
   3   6  -1  808.47   79.76
  -3  -6   1  755.30   79.40
   3   6  -3 7315.00  290.60
  -3  -6   3 7404.11  304.63
  -3  -6   4  782.14   50.57
   3   6  -4  901.34   85.95
   3   6  -5 4052.62  197.07
  -3  -6   5 4211.77  197.83
  -3  -6   610914.81  520.41
   3   6  -610731.54  431.52
  -3  -6   7  611.90   88.11
  -3  -6   8 3899.06  216.79
   3   6  -8 3914.14  178.88
  -3  -6   9 4583.90  214.11
   3   6  -9 4312.53  239.38
   3   6 -10   66.64   75.21
  -3  -6  10   67.70   46.72
   3   6 -10   27.01   68.84
   3   6 -11 5999.46  267.60
  -3  -6  11 7073.75  295.71
   3   6 -11 6466.18  344.08
   3   6 -12 3993.86  213.08
   3   6 -12 3469.66  183.77
  -3  -6  12 4121.12  197.93
   3   6 -13  386.67   95.06
   3   6 -13  430.61   75.35
  -3  -6  13  478.98   93.32
   3   6 -14 3604.68  207.28
  -3  -6  14 4119.61  198.16
   3   6 -14 3785.16  204.85
   3   6 -15 1490.28  127.23
   3   6 -15 1310.47  103.51
  -3  -6  15 1349.50  135.31
   3   6 -16  334.74   79.39
   3   6 -16  317.84  130.85
  -3  -6  16  176.90   92.95
   3   6 -17 1768.38  160.72
   3   6 -17 1718.11  120.94
  -3  -6  17 1906.64  161.91
   3   5  -1 6338.84  241.83
  -3  -5   1 6509.71  285.15
  -3  -5   1 6453.84  252.42
  -3  -5   2  284.00   53.71
  -3  -5   2  276.68   50.96
   3   5  -2  207.06   54.26
   3   5  -3 8678.89  390.74
  -3  -5   3 9228.44  346.90
  -3  -5   5  310.56   34.73
  -3  -5   5  533.40   58.72
   3   5  -614775.52  564.78
  -3  -5   614783.98  534.16
  -3  -5   615432.57  770.49
  -3  -5   7 7840.25  360.23
  -3  -5   7 7798.13  305.22
   3   5  -8  109.95   58.47
  -3  -5   8   46.45   55.71
  -3  -5   8   47.36   41.58
   3   5  -9 5614.16  250.11
   3   5  -9 4526.40  195.36
  -3  -5   9 4320.07  224.72
  -3  -5   9 5369.69  236.01
   3   5 -10 2422.58  134.17
   3   5 -10 2098.36  120.67
  -3  -5  10 1913.19  119.25
  -3  -5  10 2609.23  155.48
   3   5 -11 1796.86  118.01
   3   5 -11 1435.01   87.89
  -3  -5  11 1620.64  111.07
   3   5 -1212791.20  509.82
   3   5 -1213072.11  485.36
  -3  -5  1213799.14  601.85
   3   5 -13 2897.03  152.27
   3   5 -13 3013.91  150.81
  -3  -5  13 3255.59  203.77
   3   5 -14 3154.52  174.61
   3   5 -14 3332.22  167.92
  -3  -5  14 3269.18  182.64
   3   5 -15 3548.58  199.03
   3   5 -15 3474.89  168.98
  -3  -5  15 3770.27  191.70
  -3  -5  16  422.25   89.83
   3   5 -16  416.46   96.75
   3   5 -16  465.65   86.94
   3   5 -17  708.69   90.14
   3   5 -17  716.29  116.56
  -3  -5  17  516.89   95.72
   3   5 -18 1807.97  159.84
   3   5 -18 1981.57  140.76
  -3  -5  18 2115.73  159.67
  -3  -4   110286.11  376.12
  -3  -4   110480.34  429.69
   3   4  -110447.00  388.40
   3   4  -2 7939.26  325.31
  -3  -4   2 8228.67  322.24
  -3  -4   2 7895.90  303.01
  -3  -4   3  252.38   42.07
  -3  -4   3  214.61   55.74
  -3  -4   3  228.43   35.82
  -3  -4   510526.52  561.82
   3   4  -510541.44  382.67
  -3  -4   511694.82  419.26
  -3  -4   6 7408.83  290.68
  -3  -4   6 7442.99  326.60
   3   4  -6 7056.63  299.98
   3   4  -727001.62 1010.92
  -3  -4   727929.76  952.63
   3   4  -8 2608.34  142.93
   3   4  -8 2340.38  118.34
  -3  -4   8 2701.42  121.25
  -3  -4   8 2624.98  136.19
  -3  -4   9 5489.30  247.64
  -3  -4   9 5428.15  271.44
   3   4  -9 6150.82  257.16
   3   4  -9 5975.08  232.83
   3   4 -10 9259.70  349.92
  -3  -4  1010481.55  442.20
  -3  -4  10 9482.78  436.36
   3   4 -1010572.70  372.94
   3   4 -11 2795.49  137.17
  -3  -4  11 2838.09  161.05
   3   4 -11 2522.17  124.78
   3   4 -12 4229.43  189.05
  -3  -4  12 4394.47  198.54
   3   4 -12 4210.83  194.29
   3   4 -13 8741.36  376.75
   3   4 -13 8419.93  352.88
  -3  -4  13 8588.55  357.29
   3   4 -14  110.71   73.44
   3   4 -14  108.66   65.82
  -3  -4  14  195.39   71.67
   3   4 -15 4251.90  234.18
  -3  -4  15 4379.76  203.05
   3   4 -15 4588.25  230.19
   3   4 -16 2776.68  162.71
   3   4 -16 3060.89  200.84
  -3  -4  16 3087.22  185.10
   3   4 -17  163.90   92.30
   3   4 -17   62.24   74.62
  -3  -4  17  -16.00   89.39
   3   4 -18 1237.48  145.51
   3   4 -18 1470.58  111.06
  -3  -4  18 1888.18  149.14
  -3  -4  19 1844.28  130.09
   3   4 -19 1738.01  157.18
   3   4 -19 1865.98  133.33
   3   3  -1 7188.70  280.18
  -3  -3   1 7508.01  268.07
   3   3  -1 8251.72  328.15
   3   3  -224642.91  897.77
  -3  -3   225640.47  890.37
  -3  -3   228260.61  930.17
   3   3  -227292.98  948.96
   3   3  -3 8653.38  339.87
  -3  -3   3 8698.61  346.56
  -3  -3   3 9183.20  359.09
   3   3  -3 8657.51  347.36
   3   3  -4 4401.14  180.65
  -3  -3   4 4620.15  262.04
   3   3  -525423.65  937.95
  -3  -3   526162.33  922.46
  -3  -3   528047.82  931.06
   3   3  -6 1367.65   91.28
  -3  -3   6 1957.83   89.05
   3   3  -6 1761.19  102.83
   3   3  -716356.74  589.03
   3   3  -716043.11  580.18
   3   3  -714605.12  561.50
  -3  -3   718075.22  644.47
  -3  -3   717062.81  614.43
   3   3  -813443.83  474.48
  -3  -3   814196.89  522.94
  -3  -3   813792.23  523.68
   3   3  -812087.16  451.76
   3   3  -9   63.43   49.66
   3   3  -9  101.22   42.36
  -3  -3   9  139.54   44.06
  -3  -3   9   30.30   44.10
   3   3 -1012079.98  443.80
  -3  -3  1012226.36  467.52
   3   3 -1012086.79  456.68
   3   3 -1113624.92  505.62
   3   3 -1112129.78  456.11
  -3  -3  1113488.73  479.16
  -3  -3  1114261.16  500.96
   3   3 -12 1956.55  143.76
   3   3 -12 1868.07  109.64
  -3  -3  12 2095.40  114.32
   3   3 -13 9521.37  422.73
   3   3 -13 9649.41  422.58
  -3  -3  1310111.88  372.46
   3   3 -14 7788.03  367.10
  -3  -3  14 8506.19  324.80
   3   3 -14 7617.29  331.99
   3   3 -15 1154.75   92.96
  -3  -3  15 1300.88  109.61
   3   3 -15 1123.16  105.98
   3   3 -16 3330.87  178.19
   3   3 -16 3574.85  190.58
  -3  -3  16 3618.81  180.30
   3   3 -17  886.11  115.27
   3   3 -17 1026.45   99.52
  -3  -3  17  916.10  120.28
  -3  -3  18  327.42  103.59
   3   3 -18  111.92   93.94
   3   3 -18  210.94   80.75
   3   3 -19 1567.47  141.46
   3   3 -19 1181.93  132.51
  -3  -3  19 1472.77  145.41
   3   2  -1 1643.89   93.70
  -3  -2   1 1538.28   80.37
   3   2  -1 1524.33   79.67
   3   2  -211059.50  426.33
  -3  -2   210933.12  405.32
   3   2  -212201.88  447.28
   3   2  -331345.76 1091.56
  -3  -2   333155.93 1118.62
   3   2  -4  185.83   28.28
   3   2  -4  200.37   32.48
   3   2  -4  153.42   48.77
  -3  -2   4  181.11   38.12
  -3  -2   4  229.47   30.98
   3   2  -520133.20  686.04
   3   2  -518779.86  677.57
  -3  -2   520555.41  800.77
  -3  -2   518946.39  705.91
   3   2  -630324.30 1075.12
   3   2  -629144.17 1054.18
  -3  -2   635467.81 1099.68
  -3  -2   630861.77 1138.53
   3   2  -7  381.70   37.91
   3   2  -7  345.18   52.29
  -3  -2   7  335.70   51.83
  -3  -2   7  222.75   50.05
   3   2  -7  275.75   48.14
   3   2  -826586.96  935.61
  -3  -2   828822.16  951.12
  -3  -2   826901.03  942.85
   3   2  -826365.39  949.18
   3   2  -9 7622.74  297.98
  -3  -2   9 9025.45  348.24
  -3  -2   9 8599.50  323.78
   3   2  -9 8235.10  325.90
   3   2 -10 1452.29  100.16
   3   2 -10 1432.69   90.95
   3   2 -10 1559.97   92.96
  -3  -2  10 1465.70  128.15
  -3  -2  10 1506.72   85.74
   3   2 -1110422.37  437.61
  -3  -2  1110042.98  423.80
  -3  -2  1110518.97  378.64
   3   2 -11 9509.83  446.41
   3   2 -12 5516.92  264.73
  -3  -2  12 6380.75  244.66
   3   2 -12 5660.74  300.64
   3   2 -13 1579.90  109.06
   3   2 -13 1759.52  100.52
  -3  -2  13 1595.39  101.27
   3   2 -14 8544.85  386.13
   3   2 -14 8687.17  343.23
  -3  -2  14 9535.04  369.74
   3   2 -15 1785.41  102.88
   3   2 -15 1602.76  115.58
  -3  -2  15 1944.61  128.42
   3   2 -16 1319.29  114.67
  -3  -2  16 1609.50  120.84
   3   2 -16 1459.72  108.11
   3   2 -17 2610.22  155.78
  -3  -2  17 3169.57  184.26
   3   2 -17 2254.04  167.38
   3   2 -18  473.79   93.61
  -3  -2  18  373.68   94.48
   3   2 -18  616.40   95.00
  -3  -2  19  545.33  110.03
   3   2 -19  418.16  129.79
   3   2 -19  614.34  103.27
   3   1  -112020.87  412.56
  -3  -1   112028.82  425.74
   3   1  -2 3187.31  123.10
   3   1  -2 2864.08  124.28
   3   1  -2 3285.81  140.80
  -3  -1   2 2716.61  132.12
  -3  -1   2 3303.51  126.69
   3   1  -314536.94  481.74
   3   1  -314422.10  542.90
   3   1  -313437.15  509.91
  -3  -1   314324.66  544.94
   3   1  -417070.38  609.85
   3   1  -417789.71  603.61
  -3  -1   417151.54  609.97
   3   1  -5 2241.88  102.02
  -3  -1   5 2277.24  107.36
   3   1  -5 2560.87  116.91
   3   1  -636819.66 1155.90
  -3  -1   635825.69 1144.97
  -3  -1   631829.60 1250.18
   3   1  -629925.22 1175.06
   3   1  -722959.51  979.64
   3   1  -724400.78  872.88
   3   1  -724329.98  876.97
  -3  -1   723692.13  872.82
  -3  -1   725151.27  868.90
  -3  -1   723091.04  925.55
   3   1  -8 3091.22  142.97
   3   1  -8 3457.12  168.40
  -3  -1   8 3429.60  188.39
  -3  -1   8 3071.97  148.17
  -3  -1   8 3639.72  144.98
   3   1  -8 2624.52  134.29
   3   1  -8 2809.99  169.68
   3   1  -915839.29  658.22
  -3  -1   919544.60  806.72
  -3  -1   918469.14  668.94
   3   1  -917828.25  708.36
  -3  -1   919738.17  686.50
   3   1  -918630.40  728.41
   3   1 -10  855.77   64.93
   3   1 -10  661.57   70.93
  -3  -1  10  800.07   93.71
  -3  -1  10  755.78   68.38
   3   1 -10  558.60   42.17
  -3  -1  11 2522.30  181.45
  -3  -1  11 2680.06  137.45
   3   1 -11 2729.08  130.11
   3   1 -11 2453.27  137.34
   3   1 -11 2228.41   94.90
   3   1 -12 7860.45  332.67
   3   1 -12 6873.86  262.13
  -3  -1  12 8340.99  342.10
   3   1 -12 8183.79  321.15
   3   1 -13 2456.67  146.72
  -3  -1  13 2667.35  153.15
   3   1 -13 2568.05  138.63
   3   1 -14 3895.91  216.05
  -3  -1  14 4588.37  218.74
   3   1 -14 4468.04  189.60
   3   1 -15 5253.94  239.69
   3   1 -15 4861.19  268.89
  -3  -1  15 5758.53  251.50
  -3  -1  16 -115.38   86.58
   3   1 -16 -100.42   73.69
   3   1 -16   83.97   76.63
   3   1 -17 1776.71  139.88
   3   1 -17 1638.10  131.84
  -3  -1  17 1912.78  135.73
   3   1 -18 1325.21  119.41
   3   1 -18 1129.66  119.79
  -3  -1  18 1559.47  137.94
   3   1 -19   20.20   89.33
   3   1 -19   17.81   58.58
  -3  -1  19  123.82   99.58
   3   0  -122088.71  701.78
   3   0  -120939.58  790.03
  -3   0   121255.50  716.37
  -3   0   118453.93  697.95
   3   0  -221246.52  715.13
   3   0  -220540.03  726.46
  -3   0   221482.40  714.02
   3   0  -223093.91  716.23
  -3   0   220174.96  729.70
  -3   0   314888.27  515.13
   3   0  -312982.60  542.54
   3   0  -313713.73  483.14
   3   0  -313585.31  483.25
  -3   0   312684.51  492.46
   3   0  -433329.44 1209.82
  -3   0   430284.45 1239.27
  -3   0   433615.90 1176.29
  -3   0   437535.15 1136.53
   3   0  -434374.71 1173.89
   3   0  -435345.14 1180.94
  -3   0   5 4855.89  193.70
   3   0  -5 5079.30  207.65
   3   0  -5 4694.32  205.51
   3   0  -5 4174.26  184.58
  -3   0   5 4697.11  221.77
  -3   0   5 5334.87  189.44
   3   0  -5 4901.93  223.98
  -3   0   6 8242.65  355.31
   3   0  -6 7700.88  306.93
   3   0  -6 8794.13  330.44
   3   0  -6 6867.23  280.33
   3   0  -6 8468.54  328.93
  -3   0   6 7325.68  293.06
  -3   0   6 7080.05  308.73
   3   0  -723636.38  872.48
   3   0  -726151.03  934.53
   3   0  -726181.06  975.92
   3   0  -729293.79  987.31
  -3   0   727030.91 1047.23
  -3   0   726446.52  924.91
   3   0  -8  233.29   42.91
   3   0  -8  211.55   40.05
   3   0  -8  279.67   27.44
   3   0  -8  306.56   83.39
  -3   0   8  327.58   52.11
  -3   0   8  285.04   49.21
  -3   0   8  301.24   46.28
   3   0  -910908.09  412.02
   3   0  -910800.34  412.02
  -3   0   911739.73  510.03
  -3   0   911484.64  421.06
   3   0  -911757.45  449.81
   3   0 -10 7087.30  286.36
   3   0 -10 6475.64  269.19
  -3   0  10 7482.83  308.69
  -3   0  10 7423.25  326.38
   3   0 -11  419.47   72.84
  -3   0  11  367.33   62.10
  -3   0  11  340.20   60.74
   3   0 -11  403.39   55.86
   3   0 -12 2471.94  149.07
   3   0 -12 2357.23  131.55
  -3   0  12 2605.94  138.02
   3   0 -13 5320.46  240.18
   3   0 -13 4596.85  239.52
  -3   0  13 5698.88  258.91
  -3   0  14   78.00   65.32
   3   0 -14   83.94   70.94
   3   0 -14   45.43   69.21
   3   0 -15 5297.73  262.74
   3   0 -15 5045.29  269.12
  -3   0  15 5928.44  272.16
   3   0 -16 2618.66  158.27
  -3   0  16 2493.60  167.48
   3   0 -16 2305.69  140.26
   3   0 -17  400.73   91.69
   3   0 -17  151.88   91.35
  -3   0  17  364.76   95.28
   3   0 -18 1314.28  125.74
   3   0 -18 1101.60  132.67
  -3   0  18 1653.77  123.09
   3   0 -19  304.22   95.78
  -3   0  19  450.79  109.19
   3   0 -19  258.82  102.64
   3  -1   0 3632.72  164.05
   3  -1   0 3261.78  163.74
  -3   1   0 3974.35  143.26
  -3   1   0 4111.34  163.51
  -3   1   0 3185.79  152.13
   3  -1  -141591.80 1375.82
  -3   1   141858.98 1365.11
  -3   1   139734.08 1412.77
   3  -1  -226506.45  922.39
   3  -1  -227637.70  974.96
  -3   1   228980.79  960.63
  -3   1   228220.50  989.62
   3  -1  -3 1279.78   62.33
   3  -1  -3 1298.43   68.31
   3  -1  -3 1221.61   69.57
  -3   1   3 1407.15   65.62
  -3   1   3 1305.74   80.75
   3  -1  -3 1015.09   77.75
  -3   1   3 1024.72   68.36
  -3   1   3 1344.05   76.90
   3  -1  -415201.04  541.50
   3  -1  -415634.52  553.63
   3  -1  -413949.97  544.69
  -3   1   414985.66  614.75
  -3   1   416707.35  620.74
  -3   1   415807.60  542.57
   3  -1  -511766.12  399.36
   3  -1  -511399.12  423.52
  -3   1   510988.37  467.21
  -3   1   512150.04  425.50
  -3   1   511882.83  512.88
   3  -1  -510819.68  451.37
  -3   1   6  866.05   54.43
   3  -1  -6 1121.10   66.81
  -3   1   6  965.27   85.61
  -3   1   6  943.04   69.88
  -3   1   6 1108.41   88.22
  -3   1   6 1258.65   69.36
   3  -1  -6  953.40   66.22
   3  -1  -714316.33  463.50
   3  -1  -713317.58  534.43
  -3   1   713877.30  678.80
  -3   1   713634.85  480.46
  -3   1   711223.29  451.90
  -3   1   714429.48  637.39
   3  -1  -713689.17  481.48
   3  -1  -818576.15  724.33
  -3   1   819081.64  951.89
  -3   1   817079.52  594.83
  -3   1   9  477.37   55.87
   3  -1  -9  461.07   63.11
   3  -1  -9  396.86   66.94
  -3   1   9  457.46   77.87
   3  -1 -1010285.97  462.64
   3  -1 -10 8814.72  444.04
  -3   1  1010858.25  388.07
   3  -1 -11 1764.08  135.51
   3  -1 -11 1728.59  130.11
  -3   1  11 2176.59  110.93
   3  -1 -12  271.46   68.99
  -3   1  12  301.47   69.74
   3  -1 -12  484.94   83.90
   3  -1 -13 4196.49  210.52
   3  -1 -13 3536.36  186.64
  -3   1  13 4276.42  196.78
   3  -1 -14 1551.46  119.61
   3  -1 -14 1382.51  112.86
  -3   1  14 1734.04  103.41
   3  -1 -15  764.40  110.17
  -3   1  15  899.44   99.09
   3  -1 -15  976.00  113.97
   3  -1 -16 3050.07  189.37
  -3   1  16 3675.80  182.04
   3  -1 -16 3138.06  182.97
   3  -1 -17  297.96  102.49
  -3   1  17  290.49   98.30
   3  -1 -17  543.78   96.77
   3  -1 -18  709.64  106.10
  -3   1  18  781.72  130.13
   3  -2   046588.35 1605.23
  -3   2   043502.32 1533.51
   3  -2  -1   22.77   23.10
   3  -2  -1    4.79   34.10
  -3   2   1   69.87   40.85
  -3   2   1    7.06   33.77
   3  -2  -1   51.71   35.54
  -3   2   1   55.20   30.63
  -3   2   1   64.37   35.89
   3  -2  -233282.73 1134.10
   3  -2  -237834.48 1230.20
  -3   2   235280.40 1170.43
  -3   2   233266.38 1202.13
   3  -2  -231632.87 1193.20
   3  -2  -319394.11  671.75
   3  -2  -320072.50  664.19
   3  -2  -317756.69  681.01
  -3   2   317745.50  635.67
  -3   2   316556.73  755.08
  -3   2   317816.76  678.02
   3  -2  -4 3950.86  168.08
  -3   2   4 3707.01  161.65
  -3   2   4 3555.13  200.34
  -3   2   4 3210.49  192.97
   3  -2  -4 3634.96  156.08
   3  -2  -510544.19  389.18
  -3   2   510861.49  412.95
  -3   2   510254.42  501.58
   3  -2  -511485.66  404.48
   3  -2  -6 4581.49  190.13
  -3   2   6 4278.61  206.48
  -3   2   6 4634.62  208.12
   3  -2  -6 4112.04  202.95
   3  -2  -7 1268.25   69.37
   3  -2  -7  917.34   77.99
  -3   2   7 1207.59   80.03
  -3   2   7 1231.11   82.21
  -3   2   7  932.82   59.13
   3  -2  -820330.26  742.89
  -3   2   820208.23  695.61
  -3   2   819487.09  725.20
   3  -2  -9 3128.80  147.70
   3  -2  -9 2469.99  140.75
  -3   2   9 2954.94  129.31
  -3   2   9 2448.91  118.66
  -3   2   9 2956.89  150.79
   3  -2 -10 4154.12  177.13
  -3   2  10 3290.17  135.36
  -3   2  10 3634.34  155.76
   3  -2 -11 8864.35  349.00
  -3   2  11 8738.58  349.08
   3  -2 -12  933.95   84.80
   3  -2 -12  700.10   67.65
  -3   2  12  930.55   88.04
   3  -2 -13 1183.01  100.15
  -3   2  13 1183.66   99.19
   3  -2 -13 1014.77   90.94
   3  -2 -14 2080.42  155.80
  -3   2  14 2739.32  155.40
   3  -2 -14 2649.28  143.04
   3  -2 -15  314.18   84.47
   3  -2 -15  171.23   72.60
  -3   2  15  315.61   98.52
   3  -2 -16 1212.15  109.69
   3  -2 -16  912.15  107.30
  -3   2  16 1042.47  114.06
   3  -2 -17  894.91  108.41
   3  -2 -17  931.63  117.23
  -3   2  17 1023.32  116.45
   3  -2 -18  -37.57   90.73
   3  -2 -18  -93.07   99.10
  -3   2  18  216.53  107.42
   3  -3   021681.11  733.29
   3  -3   022337.66  841.72
  -3   3   019776.58  777.24
  -3   3   021565.02  722.04
   3  -3  -111608.48  388.29
   3  -3  -110732.33  410.20
  -3   3   110311.53  391.88
  -3   3   111299.12  432.61
   3  -3  -214115.82  467.94
   3  -3  -211357.74  445.90
  -3   3   212304.17  468.84
  -3   3   212524.62  452.59
  -3   3   322369.00 1069.45
  -3   3   328172.55  966.86
  -3   3   326660.66  860.89
   3  -3  -324375.43  910.99
   3  -3  -4 6887.55  266.98
   3  -3  -4 7008.86  278.96
  -3   3   4 7024.54  257.08
  -3   3   4 6833.49  282.13
   3  -3  -5 1152.42   78.64
  -3   3   5  900.78   92.99
  -3   3   5 1119.47   66.11
  -3   3   613196.05  466.76
  -3   3   612153.76  607.86
   3  -3  -613251.96  510.11
   3  -3  -7 1741.84  106.66
  -3   3   7 1732.86   87.04
  -3   3   7 1699.51  114.85
   3  -3  -8 3777.06  173.13
  -3   3   8 3821.07  188.21
  -3   3   8 3658.84  204.41
  -3   3   9 9178.35  375.46
   3  -3  -9 9461.57  356.41
   3  -3 -10  168.45   52.80
   3  -3 -10  104.14   75.00
  -3   3  10  137.75   65.47
  -3   3  10  149.09   28.88
  -3   3  11 6363.62  303.69
  -3   3  11 5219.52  230.93
   3  -3 -11 6158.32  248.32
  -3   3  12 2639.02  133.72
   3  -3 -12 2574.31  124.95
   3  -3 -12 2165.73  121.71
  -3   3  13   -1.46   81.26
   3  -3 -13  205.22   89.98
   3  -3 -13  135.27   85.31
   3  -3 -14 1086.93  112.95
  -3   3  14 1335.14  136.85
   3  -3 -14 1615.22  115.03
   3  -3 -15 1247.26  123.56
   3  -3 -15 1466.78  140.32
  -3   3  15 1756.61  125.04
   3  -3 -16  -43.24   89.99
   3  -3 -16    7.92  109.33
  -3   3  16   96.37  105.78
   3  -3 -17  925.84   91.35
   3  -3 -17  827.07  128.48
  -3   3  17  954.35  149.10
   3  -4   0 7342.20  307.56
  -3   4   0 6495.18  301.11
  -3   4   0 7431.82  304.33
   3  -4  -126371.44  934.41
  -3   4   127852.14  928.69
  -3   4   124811.50  875.06
   3  -4  -2 1850.18   94.66
  -3   4   2 1931.90  107.12
  -3   4   2 1877.65   98.65
   3  -4  -314047.08  489.02
  -3   4   312685.35  458.55
  -3   4   313203.91  485.37
   3  -4  -417794.09  615.97
  -3   4   415083.51  601.05
  -3   4   417924.04  599.91
   3  -4  -5   -8.91   54.11
  -3   4   5   41.38   37.88
  -3   4   5   41.17   44.07
   3  -4  -5  -30.53   59.60
   3  -4  -6 4993.96  219.34
  -3   4   6 4229.34  280.92
   3  -4  -7 6038.47  281.24
  -3   4   7 5954.97  247.63
   3  -4  -8   38.85   49.69
   3  -4  -8   -0.32   78.72
  -3   4   8  -25.65   67.17
  -3   4   8  -86.22   48.78
   3  -4  -9 3291.12  196.71
  -3   4   9 3945.28  210.45
   3  -4 -10 3130.10  187.84
  -3   4  10 3791.75  192.20
  -3   4  10 2786.91  181.57
   3  -4 -10 3672.29  208.37
  -3   4  10 3352.36  162.82
   3  -4 -11   47.66   77.16
   3  -4 -11  134.83   87.42
  -3   4  11  -27.23   74.56
   3  -4 -12 2787.83  145.05
  -3   4  12 2443.29  141.48
   3  -4 -12 2087.69  155.40
   3  -4 -13  606.31   99.97
  -3   4  13  364.30   99.94
   3  -4 -13  444.73  101.82
   3  -4 -14  139.65   92.56
   3  -4 -14  -28.11  134.63
  -3   4  14   62.79   94.66
   3  -4 -15 1097.35  113.94
   3  -4 -15  976.61  132.62
  -3   4  15 1107.49  123.92
   3  -5   0  834.75   54.01
   3  -5   0  848.48   61.08
  -3   5   0  969.55   71.10
  -3   5   0 1119.16   77.13
  -3   5   1 8818.68  352.50
  -3   5   1 8634.40  359.15
   3  -5  -212401.11  476.15
  -3   5   210861.72  436.92
   3  -5  -3  273.97   61.97
   3  -5  -3  231.84   49.77
  -3   5   3  331.43   68.40
  -3   5   3  267.07   46.16
  -3   5   3  209.37   58.45
  -3   5   410204.90  389.47
   3  -5  -410144.30  402.53
   3  -5  -5 3067.93  173.78
  -3   5   5 2980.52  160.74
   3  -5  -6  779.37   76.66
   3  -5  -6  486.99   62.03
  -3   5   6  760.12   82.54
  -3   5   6  459.58   48.13
   3  -5  -7 3646.14  182.50
  -3   5   7 3511.08  196.51
   3  -5  -8 2190.82  160.73
  -3   5   8 2211.71  117.84
   3  -5  -8 2772.25  131.03
   3  -5  -9   37.06   91.76
  -3   5   9  -46.48   69.72
  -3   5   9   66.93   51.90
   3  -5 -10 3525.15  196.82
   3  -5 -10 2866.98  183.13
  -3   5  10 3370.09  173.86
   3  -5 -11  499.06   93.79
   3  -5 -11  420.77   75.87
  -3   5  11  278.32   65.74
  -3   5  11  486.15   97.66
   3  -5 -12  694.60  110.01
   3  -5 -12  763.06  123.84
  -3   5  12  948.28  117.18
   3  -5 -13 1030.60  111.88
  -3   5  13 1179.07  126.84
  -3   5  13  919.84  101.31
   3  -5 -13 1201.24  118.45
   3  -5 -14  162.25   96.65
   3  -5 -14  218.98  120.19
  -3   5  14  118.13   73.70
   3  -6   0 2726.17  170.34
  -3   6   0 2534.98  135.70
   3  -6   0 2082.80  127.31
   3  -6  -1  457.90   76.90
  -3   6   1  559.30   70.15
   3  -6  -2 8872.06  338.46
  -3   6   2 7984.96  325.24
  -3   6   3 2209.00  126.58
  -3   6   3 1686.34   89.06
   3  -6  -3 1909.78  113.89
   3  -6  -4  543.97   88.13
  -3   6   4  852.81   83.15
  -3   6   4  711.46   62.88
   3  -6  -4 1076.58   89.76
   3  -6  -5 5117.81  249.77
  -3   6   5 5161.65  235.41
   3  -6  -6  612.53   89.93
   3  -6  -6  487.43   78.28
  -3   6   6  461.32   54.01
  -3   6   6  568.63   85.16
   3  -6  -7 1158.72   97.75
   3  -6  -7  629.06  100.07
  -3   6   7 1073.29  101.85
  -3   6   7  749.57   73.00
  -3   6   8 1952.98  137.50
   3  -6  -8 1949.29  139.88
   3  -6  -9  573.50  100.06
   3  -6  -9  351.60   89.96
  -3   6   9  436.12   91.73
   3  -6 -10  675.35   97.50
   3  -6 -10  503.54   93.09
  -3   6  10  736.72  104.07
   3  -6 -11 1442.48  128.49
   3  -6 -11 1031.17  137.72
  -3   6  11 1390.26  140.34
   3  -6 -12    6.92   91.95
   3  -6 -12   66.11  122.00
  -3   6  12  -43.48   92.92
   3  -7   0 1897.64  120.40
  -3   7   0 2579.03  145.74
   3  -7  -1  184.25   74.44
   3  -7  -1  301.99   77.09
  -3   7   1  310.23   77.82
   3  -7  -2  843.72  115.63
  -3   7   2 1202.53  101.58
   3  -7  -3 5040.20  228.37
   3  -7  -4  352.75   78.98
  -3   7   4  161.09   81.03
   3  -7  -4  181.26   88.61
   3  -7  -5 1381.80  129.02
  -3   7   5 2021.41  157.84
   3  -7  -6 1539.14  132.47
  -3   7   6 1513.26  143.40
   3  -7  -7  143.47   93.11
   3  -7  -7 -143.15   99.02
  -3   7   7  -90.41   80.72
  -3   7   8  681.79  108.40
   3  -7  -8  810.79  104.61
   3  -7  -8  657.03  117.77
   3  -7  -9  692.37  101.60
  -3   7   9  622.25  116.72
   3  -7  -9  358.20  119.19
   3  -7 -10  209.31   94.28
  -3   7  10   63.59  132.62
   3  -8   0 1631.61  138.65
   3  -8  -1 1917.71  144.24
   3  -8  -1 1462.23  101.92
  -3   8   1 2050.62  136.74
   3  -8  -2  -88.14   78.95
   3  -8  -2   34.60  113.22
  -3   8   2 -177.72   88.47
   3  -8  -3 1501.61  123.20
   3  -8  -3 1323.48  142.33
   3  -8  -4 1400.86  123.40
  -3   8   4 1329.11  133.33
   3  -8  -4 1143.53  141.32
   3  -8  -5   26.51   69.88
   3  -8  -5  -93.90   90.10
  -3   8   5 -106.57   96.12
   3  -8  -6  856.13  113.82
   3  -8  -6  381.81  124.72
   3  -8  -7  286.68   90.66
   3  -8  -7  218.15  123.35
   3  -9   0  123.72  106.14
  -3   9   0  255.45   96.89
  -3   9   1  971.26  125.95
   3  -9  -2  218.53   89.87
  -3   9   2  131.34  117.83
   3  -9  -3  244.42   93.69
   2   9  -1  150.17   92.36
  -2  -9   1    7.17   93.49
   2   9  -2 1352.42  127.41
  -2  -9   2 1378.45  147.22
   2   9  -3 1063.63  129.62
   2   9  -4  -51.20   94.13
  -2  -9   4   12.80   87.00
   2   9  -5 1767.89  143.22
  -2  -9   5 2091.84  178.07
   2   9  -6 1217.74  118.70
  -2  -9   6 1313.05  148.88
   2   9  -7  -17.27   97.48
  -2  -9   8 1186.77  160.30
  -2  -9   9  655.61  125.25
   2   9  -9  603.09  120.89
   2   9 -10  489.02  109.62
  -2  -9  10  596.83   96.29
   2   9 -11 2484.77  208.16
  -2  -9  11 2563.30  217.48
   2   8  -1 1271.50  131.54
  -2  -8   1 1948.57  158.77
   2   8  -2  170.71   89.78
  -2  -8   2  318.48   83.75
   2   8  -3 4342.62  228.35
   2   8  -6 3449.60  188.49
   2   8  -7  501.46   89.29
  -2  -8   8  826.72  125.87
   2   8  -8  892.06  105.76
   2   8  -9 3367.45  187.71
  -2  -8   9 3801.33  262.48
   2   8 -10  765.32  111.94
  -2  -8  10  721.55  103.51
   2   8 -11 2043.74  147.63
  -2  -8  11 2494.20  170.73
  -2  -8  12 3494.63  192.31
   2   8 -12 3282.69  203.13
   2   8 -12 3129.73  228.52
   2   8 -13  -24.69   74.39
   2   8 -13  120.98   87.08
  -2  -8  13  108.44   86.60
   2   8 -14 1976.96  158.76
   2   8 -14 1767.60  128.48
  -2  -8  14 2188.61  192.89
   2   7  -1 4164.26  187.30
   2   7  -2  902.19   98.07
  -2  -7   2  966.96   88.40
   2   7  -3 2595.95  160.36
  -2  -7   3 2729.98  158.17
   2   7  -4 5717.45  284.51
  -2  -7   4 6561.61  281.97
  -2  -7   5  840.41   98.17
  -2  -7   6 6272.39  299.12
   2   7  -6 5688.13  279.23
   2   7  -7 8146.86  329.00
  -2  -7   7 8006.69  392.77
  -2  -7   8  289.61   93.28
   2   7  -8  265.55   83.62
   2   7  -9 3307.90  173.00
  -2  -7   9 3421.05  197.92
   2   7 -10 6317.27  309.67
  -2  -7  10 6517.73  295.77
   2   7 -11  116.98  158.30
   2   7 -11   96.33   71.19
  -2  -7  11  112.77   74.86
   2   7 -12 6377.95  300.25
   2   7 -12 5717.85  268.47
  -2  -7  12 6760.55  293.68
  -2  -7  13 2463.26  151.77
   2   7 -13 2194.79  159.94
   2   7 -13 2009.89  129.99
   2   7 -14  310.03   72.59
   2   7 -14  384.36   97.12
  -2  -7  14  392.21   90.23
   2   7 -15 2504.91  161.38
   2   7 -15 2211.59  159.40
  -2  -7  15 2563.17  181.65
   2   7 -16  936.79  124.15
  -2  -7  16 1077.62  111.57
  -2  -6   1 2348.00  135.79
   2   6  -1 2244.92  123.82
   2   6  -2 5928.26  258.87
  -2  -6   2 6384.88  296.83
   2   6  -410564.07  456.54
  -2  -6   411269.16  416.10
   2   6  -5 9166.72  435.24
  -2  -6   5 9944.87  377.26
  -2  -6   6 1298.23   67.97
  -2  -6   712345.98  623.39
   2   6  -712401.96  472.32
   2   6  -8 4548.81  220.56
  -2  -6   8 5227.66  272.84
   2   6  -9  393.80   83.46
  -2  -6   9  433.31   81.51
   2   6 -10 7458.10  335.57
  -2  -6  10 8353.71  313.72
   2   6 -11 5451.20  286.50
   2   6 -11 4668.63  214.10
  -2  -6  11 5664.32  250.93
   2   6 -12 1263.01  113.90
   2   6 -12 1026.47   80.68
  -2  -6  12 1092.68  100.06
   2   6 -13 8079.58  353.53
   2   6 -13 7287.90  322.43
  -2  -6  13 8255.00  359.54
   2   6 -14  929.24  100.36
   2   6 -14  873.08   90.35
  -2  -6  14 1037.13  128.65
   2   6 -15  991.27  117.20
   2   6 -15  888.29   88.69
  -2  -6  15 1019.10  115.29
   2   6 -16 2649.92  178.19
   2   6 -16 2561.07  157.98
  -2  -6  16 3198.93  184.24
   2   6 -17  174.87   72.75
  -2  -6  17  466.97  103.29
   2   6 -18  969.31  148.99
  -2  -6  18 1266.13  139.90
   2   5  -1  125.03   47.75
  -2  -5   1  158.01   44.80
  -2  -5   1   95.15   49.58
  -2  -5   212928.84  486.07
   2   5  -3 8919.14  380.37
  -2  -5   3 8785.42  374.93
   2   5  -4 1396.74   95.10
  -2  -5   4 1323.74  114.83
  -2  -5   4 1391.11   88.16
   2   5  -523050.70  817.70
  -2  -5   522652.14  815.05
  -2  -5   523474.13  834.92
   2   5  -6 6519.12  266.21
  -2  -5   6 6443.49  246.75
  -2  -5   6 6680.59  316.74
   2   5  -7 4263.13  205.71
  -2  -5   7 4073.24  179.43
  -2  -5   7 4550.34  247.53
   2   5  -810951.64  416.31
  -2  -5   811364.46  465.26
  -2  -5   9 1918.91   92.58
   2   5  -9 1849.61  122.20
   2   5  -9 1833.89  105.36
   2   5 -10 3286.19  178.10
   2   5 -10 3461.71  150.82
  -2  -5  10 3561.79  171.55
   2   5 -1114393.10  588.41
   2   5 -1113896.20  529.79
  -2  -5  1114768.40  583.77
   2   5 -12  680.33   90.23
   2   5 -12  564.47   63.30
  -2  -5  12  691.50   91.98
   2   5 -13 5730.64  285.43
   2   5 -13 5949.52  238.80
  -2  -5  13 6349.63  305.95
   2   5 -14 5429.77  247.34
   2   5 -14 5103.42  243.85
  -2  -5  14 5616.46  254.44
   2   5 -15   -4.49   81.58
   2   5 -15   48.17   60.41
  -2  -5  15  -32.21   59.30
   2   5 -16 2014.21  164.71
   2   5 -16 1967.50  126.70
  -2  -5  16 1997.81  160.37
   2   5 -17 2416.49  170.64
   2   5 -17 1999.34  138.69
  -2  -5  17 2304.11  160.94
   2   5 -18  184.14  116.14
  -2  -5  18  -15.83  101.76
   2   5 -19 1513.92  174.71
  -2  -5  19 2087.40  216.50
   2   4  -1 5536.29  242.56
   2   4  -1 4872.83  244.12
  -2  -4   1 5691.72  217.54
  -2  -4   1 5559.12  253.88
   2   4  -2 2992.85  150.15
   2   4  -2 2465.01  136.71
  -2  -4   2 3059.84  125.40
  -2  -4   2 2964.29  151.47
   2   4  -317776.34  720.44
   2   4  -315861.32  587.23
  -2  -4   317973.72  695.95
  -2  -4   319275.96  644.02
   2   4  -4 1584.16   83.46
   2   4  -4 1376.39   85.90
  -2  -4   4 1615.76   87.87
   2   4  -517295.55  772.04
  -2  -4   520086.98  671.86
   2   4  -640961.59 1381.28
  -2  -4   640776.48 1576.11
   2   4  -7  171.02   49.22
  -2  -4   7   78.14   42.76
  -2  -4   7  140.49   50.19
   2   4  -8 8432.44  360.35
   2   4  -8 7657.53  304.29
  -2  -4   8 8679.02  347.93
  -2  -4   8 8425.80  303.60
   2   4  -910704.90  410.47
   2   4  -9 8984.43  365.18
  -2  -4   910993.23  393.34
  -2  -4   911513.70  419.30
  -2  -4  10 2398.12  140.03
   2   4 -10 2067.33  112.24
   2   4 -10 2336.51  131.75
   2   4 -11 4102.37  169.07
   2   4 -11 4401.42  188.68
  -2  -4  11 4160.00  214.96
   2   4 -12 7620.89  306.24
   2   4 -12 7761.42  329.67
  -2  -4  12 8424.56  329.62
   2   4 -13  697.87   90.19
   2   4 -13  680.49   67.84
  -2  -4  13  614.00   84.57
   2   4 -1414860.01  616.87
   2   4 -1414157.54  596.14
  -2  -4  1416007.25  601.08
   2   4 -15 2423.10  167.77
   2   4 -15 2329.50  137.27
  -2  -4  15 2699.43  154.87
   2   4 -16  561.40   77.37
   2   4 -16  528.57   74.67
  -2  -4  16  736.24   76.12
   2   4 -17 2531.57  191.87
   2   4 -17 2507.47  152.14
  -2  -4  17 2760.38  189.22
   2   4 -18  991.95  120.53
   2   4 -18 1094.60  114.39
  -2  -4  18 1033.38  100.33
   2   4 -19  174.24  112.40
  -2  -4  19  -37.46   98.83
   2   3  -123415.38  854.20
   2   3  -122648.92  854.62
  -2  -3   123883.80  813.10
  -2  -3   123787.14  885.28
   2   3  -2  233.21   39.59
   2   3  -2  208.61   34.16
  -2  -3   2  260.05   40.99
  -2  -3   2  193.81   38.41
  -2  -3   2  139.81   26.15
   2   3  -3 6522.27  287.70
   2   3  -3 6798.18  284.91
  -2  -3   3 6729.76  242.13
   2   3  -426556.49  961.22
   2   3  -427456.64 1096.86
  -2  -3   427699.69  949.18
  -2  -3   426447.83 1022.33
   2   3  -5   -7.00   38.74
  -2  -3   5   60.07   38.26
  -2  -3   5   11.57   27.41
   2   3  -640875.19 1480.21
   2   3  -640449.81 1379.93
  -2  -3   639997.33 1554.33
  -2  -3   641621.23 1391.20
   2   3  -734360.42 1243.45
   2   3  -731531.87 1144.52
  -2  -3   736388.52 1240.57
  -2  -3   734745.67 1189.94
   2   3  -8 1681.84   90.49
   2   3  -8 1638.16  109.41
   2   3  -8 1621.05   86.76
  -2  -3   8 1828.54   96.87
  -2  -3   8 1545.10  108.14
  -2  -3   920228.56  681.21
  -2  -3   919742.05  745.40
   2   3  -919910.87  680.60
   2   3  -918618.08  673.02
  -2  -3  10 3621.49  160.71
   2   3 -10 3219.18  144.29
   2   3 -10 3239.88  152.42
  -2  -3  10 3239.74  140.82
  -2  -3  11 1145.17   74.66
   2   3 -11 1136.68   78.33
   2   3 -11 1226.99   84.47
   2   3 -1211836.35  460.27
   2   3 -1211938.42  481.30
  -2  -3  1212161.12  425.69
   2   3 -13 1594.33  115.17
   2   3 -13 1669.18  108.95
  -2  -3  13 1951.83  114.17
   2   3 -14 3312.90  179.52
   2   3 -14 3230.54  164.95
  -2  -3  14 3229.58  264.02
   2   3 -15 7818.60  409.03
   2   3 -15 7930.13  341.23
  -2  -3  15 7797.17  308.05
   2   3 -16  830.37  101.29
   2   3 -16  827.68   88.04
  -2  -3  16  647.91   99.31
   2   3 -17 1054.70  102.09
   2   3 -17 1075.63   93.15
  -2  -3  17 1050.49   91.10
   2   3 -18 2178.90  148.73
   2   3 -18 1867.50  164.16
  -2  -3  18 2430.20  152.85
   2   3 -19  347.51   98.32
  -2  -3  19  509.79  107.96
   2   3 -20  905.10  105.43
  -2  -3  20 1161.65  113.45
   2   2  -142496.45 1497.28
   2   2  -146139.30 1516.26
  -2  -2   143468.11 1432.82
   2   2  -215717.57  573.96
   2   2  -215154.02  638.19
  -2  -2   3 9838.70  461.32
   2   2  -443267.47 1461.42
  -2  -2   441306.94 1503.49
  -2  -2   442403.26 1426.90
   2   2  -520615.56  740.97
   2   2  -524655.41  883.28
   2   2  -519967.19  749.26
  -2  -2   523563.78  811.67
  -2  -2   521390.76  754.51
   2   2  -6 6859.73  277.15
   2   2  -6 7753.93  284.05
   2   2  -6 6971.94  269.56
  -2  -2   6 7290.10  265.44
  -2  -2   6 6901.85  289.72
   2   2  -743217.59 1504.43
   2   2  -744538.08 1514.26
  -2  -2   749530.42 1567.60
  -2  -2   743321.07 1616.02
   2   2  -8 3146.61  143.57
   2   2  -8 3028.94  146.39
   2   2  -8 3070.05  144.27
  -2  -2   8 3261.58  160.67
  -2  -2   8 3183.57  147.56
   2   2  -9 8469.76  337.41
   2   2  -9 8073.11  338.02
   2   2  -9 8020.61  320.51
  -2  -2   9 9379.59  349.47
  -2  -2   9 8353.38  335.27
   2   2 -1014445.72  568.91
   2   2 -1013393.77  573.64
  -2  -2  1015444.63  580.78
  -2  -2  1014688.19  531.13
  -2  -2  1014707.90  577.46
   2   2 -11 2302.83  139.85
   2   2 -11 2154.88  118.04
  -2  -2  11 2443.44  119.17
  -2  -2  11 2120.00  114.36
   2   2 -12 2521.16  163.40
   2   2 -12 2686.59  132.81
  -2  -2  12 2747.19  119.52
   2   2 -1310302.63  431.28
   2   2 -13 9951.82  417.63
  -2  -2  1310759.04  392.07
   2   2 -14  -29.74   72.00
   2   2 -14   68.79   21.72
   2   2 -14  162.90   60.85
  -2  -2  14   10.40   68.58
   2   2 -15 9683.61  400.19
   2   2 -15 8734.45  419.52
  -2  -2  1510481.81  403.71
   2   2 -16 4352.83  217.75
   2   2 -16 3982.35  235.10
  -2  -2  16 4784.57  238.17
   2   2 -17 -109.49   88.81
  -2  -2  17   24.53   99.71
   2   2 -17  -16.05   72.67
   2   2 -18 1724.41  144.57
   2   2 -18 1383.98  121.58
  -2  -2  18 1871.09  151.77
   2   2 -19  939.85  124.40
   2   2 -19 1073.43  106.78
  -2  -2  19 1321.12  113.12
   2   2 -20  -51.64  102.18
  -2  -2  20 -120.70   92.61
   2   1  -1 1995.43   92.95
  -2  -1   1 2155.32   90.45
   2   1  -243036.84 1656.42
   2   1  -249181.00 1591.54
  -2  -1   246712.92 1613.66
   2   1  -3 6070.68  238.17
   2   1  -3 7500.51  287.98
   2   1  -3 5985.21  243.70
  -2  -1   3 6394.37  246.03
   2   1  -425647.15  940.34
   2   1  -429042.72  918.98
   2   1  -425078.97  907.69
  -2  -1   427917.82  957.11
  -2  -1   425326.15  949.05
   2   1  -545318.16 1592.41
   2   1  -550178.48 1562.25
   2   1  -546616.34 1607.21
  -2  -1   547711.49 1694.27
  -2  -1   545912.95 1618.81
  -2  -1   548838.20 1692.16
   2   1  -6  612.44   52.59
   2   1  -6  789.88   47.47
   2   1  -6  729.86   54.87
  -2  -1   6  699.21   57.89
  -2  -1   6  671.01   50.48
  -2  -1   6  597.36   49.71
   2   1  -730807.88 1213.95
   2   1  -733403.28 1159.42
   2   1  -734810.13 1237.98
  -2  -1   732720.64 1300.33
  -2  -1   731786.86 1128.19
  -2  -1   736754.41 1200.21
   2   1  -827003.64 1061.22
   2   1  -828176.14 1013.31
   2   1  -828867.12 1095.96
  -2  -1   828884.70 1097.31
  -2  -1   827458.01 1004.12
  -2  -1   830746.40 1014.38
   2   1  -9   26.77   42.30
   2   1  -9   45.19   28.04
   2   1  -9   59.61   18.67
   2   1  -9   20.09   34.38
  -2  -1   9   42.06   47.17
  -2  -1   9  -38.83   44.94
  -2  -1   9   27.21   35.73
   2   1 -1013152.18  534.15
   2   1 -1013281.81  495.12
  -2  -1  1012605.51  603.63
  -2  -1  1012286.59  460.66
  -2  -1  1013238.91  446.75
   2   1 -11 9505.27  385.54
   2   1 -11 7360.39  281.08
   2   1 -11 8959.20  350.34
  -2  -1  11 8550.10  420.26
  -2  -1  11 9996.55  363.60
  -2  -1  11 8789.90  345.81
   2   1 -12  805.02   69.05
   2   1 -12  619.54   61.34
  -2  -1  12  619.21   69.34
   2   1 -13 9201.49  364.19
   2   1 -13 8201.46  416.69
  -2  -1  13 9569.02  392.63
   2   1 -14 6166.38  286.34
  -2  -1  14 6492.11  306.25
   2   1 -15  717.39   96.39
   2   1 -15  683.04   83.89
  -2  -1  15  779.90  107.13
   2   1 -16 4804.96  220.42
   2   1 -16 4316.98  231.43
  -2  -1  16 5560.05  259.42
   2   1 -17  862.49  102.26
   2   1 -17  891.20   97.16
  -2  -1  17 1192.35  121.43
   2   1 -18  280.21   94.83
   2   1 -18  308.22   87.15
  -2  -1  18  337.73  100.32
   2   1 -19 1369.64  127.14
   2   1 -19 1402.25  124.13
  -2  -1  19 1453.63  142.54
   2   0  -1 4569.65  161.85
   2   0  -1 5071.14  165.62
   2   0  -1 4887.03  192.72
  -2   0   1 4062.07  168.28
  -2   0   1 4843.72  162.01
   2   0  -217860.36  634.06
   2   0  -218770.03  594.97
   2   0  -217013.46  654.96
   2   0  -219106.60  620.80
  -2   0   217644.30  627.40
   2   0  -318391.35  673.48
   2   0  -320080.87  663.42
   2   0  -320064.09  659.06
  -2   0   319063.69  714.78
  -2   0   318918.29  677.14
  -2   0   316959.00  683.42
  -2   0   4   66.56   33.62
   2   0  -4   86.09   27.22
   2   0  -4   55.30   29.02
   2   0  -4  113.33   17.13
   2   0  -4  126.76   34.44
  -2   0   4  112.62   32.18
  -2   0   4   50.53   24.93
  -2   0   4   95.44   32.15
   2   0  -5 7175.67  316.92
   2   0  -5 8037.16  291.65
   2   0  -5 7689.75  320.09
  -2   0   5 7484.25  371.89
  -2   0   5 7241.08  326.94
  -2   0   5 8616.89  362.21
   2   0  -617060.59  679.35
   2   0  -620321.29  666.66
   2   0  -619248.41  684.83
  -2   0   618402.98  820.10
  -2   0   617302.47  698.01
  -2   0   620650.30  769.15
   2   0  -7  255.30   41.84
   2   0  -7  401.89   41.65
   2   0  -7  231.07   17.74
   2   0  -7  277.55   34.11
  -2   0   7  280.28   50.25
  -2   0   7  215.17   46.38
  -2   0   7  245.23   38.21
   2   0  -852719.61 1778.86
   2   0  -851015.89 1774.25
  -2   0   854692.46 1826.50
   2   0  -912510.26  460.97
   2   0  -912257.62  508.48
   2   0  -911534.11  488.66
  -2   0   913228.01  585.45
  -2   0   913338.99  487.03
  -2   0   913488.73  556.09
   2   0 -10 2042.07  105.41
   2   0 -10 1977.67  133.87
  -2   0  10 2077.91  131.47
  -2   0  10 2177.14  112.87
  -2   0  10 1905.60  120.34
   2   0 -1110978.08  413.61
   2   0 -11 9873.49  469.25
  -2   0  1111398.15  408.48
   2   0 -12 3969.16  176.56
   2   0 -12 3228.24  217.12
  -2   0  12 3937.02  164.10
   2   0 -13 1213.43   86.39
   2   0 -13  944.36   85.24
  -2   0  13 1259.68   93.96
   2   0 -14 9574.82  402.27
  -2   0  1410436.91  391.51
   2   0 -15 2631.60  159.00
   2   0 -15 2447.51  152.40
  -2   0  15 2845.38  169.36
   2   0 -16 1165.80  105.40
  -2   0  16 1448.28  116.08
   2   0 -16 1192.69   97.64
   2   0 -17 2031.57  142.15
   2   0 -17 1767.90  130.93
  -2   0  17 2388.23  160.96
   2   0 -18  345.79  140.40
   2   0 -18  100.15   90.65
  -2   0  18  202.30  104.17
   2   0 -19  706.65  121.32
   2   0 -19  482.37   99.99
  -2   0  19  719.56  153.58
   2  -1   041393.95 1372.68
   2  -1   040010.55 1382.27
   2  -1   036943.05 1528.69
  -2   1   038417.62 1331.52
  -2   1   147785.91 1700.68
  -2   1   146673.68 1547.05
   2  -1  -2 1244.80   60.07
   2  -1  -2 1227.89   62.08
   2  -1  -2 1086.92   66.48
   2  -1  -2 1041.82   55.18
  -2   1   2 1247.80   63.50
  -2   1   2 1023.50   77.40
  -2   1   2 1221.56   66.17
   2  -1  -419705.30  664.97
   2  -1  -420640.22  672.99
   2  -1  -418188.55  769.35
  -2   1   418621.68  706.16
  -2   1   420400.27  701.83
  -2   1   418569.70  769.47
   2  -1  -5  442.11   44.03
   2  -1  -5  492.79   41.79
   2  -1  -5  638.43   81.23
  -2   1   5  483.77   48.18
  -2   1   5  583.01   47.80
  -2   1   5  379.22   29.66
  -2   1   5  475.45   45.07
   2  -1  -631677.42 1215.61
   2  -1  -633534.45 1081.81
   2  -1  -629445.38 1237.59
  -2   1   631182.74 1154.07
  -2   1   631313.93 1027.44
  -2   1   630157.66 1174.29
   2  -1  -711718.86  532.08
   2  -1  -713035.21  459.60
   2  -1  -711318.63  554.95
  -2   1   713095.29  565.60
  -2   1   712155.35  421.85
  -2   1   712285.58  486.96
   2  -1  -8 6582.39  311.30
   2  -1  -8 6158.42  253.76
  -2   1   8 5849.69  366.29
  -2   1   8 7029.35  263.37
  -2   1   8 6259.70  286.76
   2  -1  -923308.76  927.95
  -2   1   921761.69 1072.05
  -2   1   924302.06  876.67
   2  -1 -10 1495.11  108.24
   2  -1 -10 1325.46   94.14
  -2   1  10 1483.68   82.15
   2  -1 -11 2623.72  162.99
  -2   1  11 2793.45  130.17
   2  -1 -12 4502.70  244.26
  -2   1  12 4995.15  203.49
   2  -1 -13  904.50   97.10
   2  -1 -13  815.54   85.94
  -2   1  13 1136.68   98.11
   2  -1 -14 2881.10  182.07
  -2   1  14 3023.53  171.34
   2  -1 -15 4130.20  244.74
   2  -1 -15 4085.36  208.29
  -2   1  15 4640.12  225.00
   2  -1 -16  139.71   94.76
   2  -1 -16  237.67   59.94
  -2   1  16  347.70   96.81
   2  -1 -17 1816.49  147.62
   2  -1 -17 1574.97  126.71
  -2   1  17 2183.75  146.04
   2  -1 -18 1232.72  123.72
   2  -1 -18 1422.84  139.57
  -2   1  18 1322.19  122.05
   2  -2   0 5536.06  217.11
   2  -2   0 5362.57  222.03
  -2   2   0 5211.46  203.29
  -2   2   0 4838.10  204.92
   2  -2  -153444.66 1697.59
   2  -2  -147964.37 1665.31
  -2   2   150231.99 1684.65
  -2   2   147514.16 1709.40
   2  -2  -231847.56 1138.29
   2  -2  -236027.71 1170.11
  -2   2   233605.20 1131.22
  -2   2   231955.14 1170.34
   2  -2  -318285.42  668.78
   2  -2  -321579.55  716.82
  -2   2   319239.47  699.99
  -2   2   319015.93  708.80
   2  -2  -421152.15  750.27
   2  -2  -423421.29  835.75
  -2   2   421993.63  776.62
  -2   2   422460.95  949.15
   2  -2  -5 1958.74   99.52
   2  -2  -5 2124.35  116.88
  -2   2   5 1962.19  130.46
  -2   2   5 2087.93  119.57
   2  -2  -6 3206.51  140.33
   2  -2  -6 3164.52  164.91
  -2   2   6 3036.08  166.60
  -2   2   6 3271.66  153.97
   2  -2  -721290.27  771.67
   2  -2  -724448.14  872.82
  -2   2   724231.64  882.93
  -2   2   722231.80  751.93
   2  -2  -8  931.65   60.03
   2  -2  -8  768.66   59.31
  -2   2   8 1012.01   70.68
  -2   2   8  979.26   75.66
  -2   2   8  846.24   46.17
   2  -2  -915472.00  581.06
  -2   2   916073.42  581.90
   2  -2 -1012894.98  462.99
  -2   2  1012310.73  451.39
   2  -2 -11  582.90   79.36
   2  -2 -11  599.61   83.54
  -2   2  11  498.40   73.20
   2  -2 -12 1464.57  105.75
   2  -2 -12 1361.63  103.17
  -2   2  12 1618.18  104.84
   2  -2 -13 1773.43  121.86
   2  -2 -13 1808.33  130.88
  -2   2  13 2101.98  123.74
   2  -2 -14 -130.41   70.08
   2  -2 -14   55.08   83.95
  -2   2  14   28.41   88.43
   2  -2 -15 2360.27  139.69
   2  -2 -15 2077.16  147.34
  -2   2  15 2368.98  137.01
   2  -2 -16 1688.45  128.38
   2  -2 -16 1655.86  135.58
  -2   2  16 1901.68  154.99
   2  -2 -17  183.51   99.80
   2  -2 -17  225.24  107.48
  -2   2  17  223.80  112.30
   2  -2 -18 1299.09  121.99
   2  -2 -18 1520.59  153.51
  -2   2  18 1324.66  110.39
   2  -3   016760.88  544.61
   2  -3   014442.49  564.65
  -2   3   015283.99  566.88
  -2   3   014338.68  584.30
   2  -3  -119233.27  615.72
   2  -3  -116474.40  623.76
  -2   3   117344.41  634.05
  -2   3   117229.73  642.97
   2  -3  -240166.82 1267.83
   2  -3  -235768.00 1267.03
  -2   3   238548.19 1295.99
  -2   3   235430.81 1261.08
   2  -3  -3  586.76   48.90
   2  -3  -3  540.98   44.50
   2  -3  -3  408.05   55.89
  -2   3   3  460.38   50.44
  -2   3   3  564.47   51.25
  -2   3   3  401.60   35.38
  -2   3   3  405.98   49.81
   2  -3  -425111.85  921.21
   2  -3  -426478.69  878.78
  -2   3   425461.71  909.70
  -2   3   424046.56  855.55
   2  -3  -5 8981.10  338.00
   2  -3  -5 9020.62  362.31
  -2   3   5 8097.60  306.74
  -2   3   5 8743.93  349.79
   2  -3  -6  156.15   48.53
   2  -3  -6  105.15   53.78
  -2   3   6  111.26   34.93
  -2   3   6   13.73   44.54
   2  -3  -7 8756.79  354.37
  -2   3   7 9007.95  333.60
  -2   3   7 8804.69  435.22
   2  -3  -811589.45  423.85
  -2   3   811142.40  468.76
   2  -3  -9  130.25   63.44
   2  -3  -9   75.72   71.53
  -2   3   9   50.27   63.28
   2  -3 -10 5016.31  189.43
   2  -3 -10 4279.00  197.31
  -2   3  10 4794.34  219.58
   2  -3 -11 3008.92  146.68
   2  -3 -11 2735.59  161.23
  -2   3  11 3032.01  158.43
  -2   3  11 2662.79  115.20
   2  -3 -12  424.59   83.33
   2  -3 -12  335.64   92.19
  -2   3  12  403.12   80.10
   2  -3 -13 2310.90  114.30
   2  -3 -13 2227.38  169.64
  -2   3  13 2324.42  124.57
   2  -3 -14 1026.72   95.45
   2  -3 -14  745.25   95.44
  -2   3  14  930.12   79.72
   2  -3 -15  215.45   84.75
   2  -3 -15  414.23  117.56
  -2   3  15  329.23   75.34
   2  -3 -16 1580.49  129.63
   2  -3 -16 1249.32  139.04
  -2   3  16 1588.72  141.66
   2  -3 -17  153.47   99.95
   2  -3 -17  115.73  120.80
  -2   3  17   82.48  102.15
   2  -4   020487.92  685.74
   2  -4   020373.71  697.44
  -2   4   017780.65  761.17
   2  -4  -1 1129.67   64.79
   2  -4  -1 1187.19   66.42
   2  -4  -1  973.54   66.84
  -2   4   1 1116.38   85.44
  -2   4   1 1062.85   56.11
  -2   4   1  825.66   68.34
   2  -4  -221990.02  760.08
   2  -4  -222734.72  761.29
  -2   4   220064.21  714.87
  -2   4   221279.40  792.52
   2  -4  -3 5791.17  229.76
  -2   4   3 5863.47  227.45
  -2   4   3 5265.08  223.93
   2  -4  -4 2397.30  117.25
  -2   4   4 2552.30  111.21
  -2   4   4 2299.61  123.49
   2  -4  -5 8531.38  331.04
  -2   4   5 8543.18  343.24
  -2   4   5 7666.58  321.86
   2  -4  -6 3774.66  179.28
  -2   4   6 3836.27  172.58
   2  -4  -7  769.67   76.44
   2  -4  -7  422.74   83.31
  -2   4   7  673.90   73.10
   2  -4  -811387.65  444.69
  -2   4   810216.78  376.55
   2  -4  -9 5030.25  210.41
   2  -4  -9 4126.45  222.08
  -2   4   9 4545.94  188.89
   2  -4 -10 1904.44  121.74
  -2   4  10 2011.04  120.34
   2  -4 -11 3156.09  166.94
  -2   4  11 3268.53  226.95
   2  -4 -12   81.24   81.72
   2  -4 -12  186.14   64.04
  -2   4  12   16.92   86.39
   2  -4 -13  739.49   95.33
   2  -4 -13  621.95  110.39
  -2   4  13  557.84   75.81
   2  -4 -14  692.84   78.10
   2  -4 -14  634.02  106.00
  -2   4  14  561.73   99.45
   2  -4 -15   23.40   69.87
   2  -4 -15  -76.25  107.67
  -2   4  15  -31.25   95.68
   2  -4 -16  243.89   73.34
  -2   4  16  355.64  119.09
   2  -5   014173.48  495.69
  -2   5   012705.97  551.09
   2  -5  -1 8125.16  309.69
  -2   5   1 8267.19  344.51
  -2   5   1 7180.15  316.16
   2  -5  -2 1844.93  102.85
  -2   5   2 1828.02   84.36
   2  -5  -322308.53  743.54
  -2   5   319629.08  687.43
   2  -5  -4 3029.51  150.32
  -2   5   4 3042.02  127.65
   2  -5  -5 1712.37  103.32
  -2   5   5 1705.11   90.27
   2  -5  -6 3822.44  186.14
  -2   5   6 4113.17  196.62
   2  -5  -7  138.72   64.32
   2  -5  -7  131.78   85.66
  -2   5   7  276.96   52.83
  -2   5   7  183.29   38.90
   2  -5  -8 2967.99  142.82
  -2   5   8 2970.04  143.29
   2  -5  -9 3993.47  213.79
  -2   5   9 3931.86  219.29
   2  -5 -10   68.89   88.35
   2  -5 -10  169.60  111.92
  -2   5  10  176.53   89.15
   2  -5 -11 1949.66  135.22
  -2   5  11 1928.04  139.53
   2  -5 -12 1169.00  111.15
   2  -5 -12 1075.57  145.45
  -2   5  12 1141.37  126.37
   2  -5 -13  -15.28   99.07
   2  -5 -13  341.65  169.42
  -2   5  13   16.89  100.19
   2  -5 -14  589.15  160.94
   2  -5 -14  413.32  128.84
  -2   5  14  350.27  114.47
   2  -6   0 6805.21  285.27
  -2   6   0 7066.12  283.38
   2  -6  -2 1943.91  118.32
   2  -6  -2 1502.12  107.90
  -2   6   2 1957.65  121.51
   2  -6  -3 4328.68  211.35
  -2   6   3 4077.32  167.94
   2  -6  -4 7798.03  319.73
  -2   6   4 7188.54  286.98
   2  -6  -5   12.16   66.77
   2  -6  -5  106.97   81.27
  -2   6   5  -55.25   74.98
   2  -6  -6 1805.68  108.71
   2  -6  -6 1342.72  104.12
  -2   6   6 1744.56  117.80
  -2   6   6 1329.41   74.72
   2  -6  -7 1154.69  100.16
   2  -6  -7  829.09  115.48
  -2   6   7 1331.38  110.90
   2  -6  -8   85.81   75.24
   2  -6  -8  -42.20   90.94
  -2   6   8  205.54   93.23
   2  -6  -9 1945.24  128.10
  -2   6   9 1964.07  146.72
   2  -6 -10 1319.47  112.68
   2  -6 -10 1007.83  127.77
  -2   6  10 1122.98  119.60
   2  -6 -11 -116.72   85.31
   2  -6 -11  114.30   86.54
  -2   6  11   25.99  101.73
   2  -6 -12 1145.11  149.38
   2  -6 -12  680.22  150.22
  -2   6  12  960.01  121.37
   2  -7   0  131.55   72.73
  -2   7   0  -12.95   75.93
   2  -7  -1 3891.12  191.50
  -2   7   1 3976.76  197.89
   2  -7  -2 3878.02  162.30
   2  -7  -2 3057.36  171.77
  -2   7   2 3486.88  186.36
   2  -7  -3  160.13   73.17
   2  -7  -3   90.34   81.99
  -2   7   3  205.05   65.56
   2  -7  -4 4125.10  203.56
  -2   7   4 3416.06  221.30
   2  -7  -5 1918.18  121.55
   2  -7  -5 1497.17  147.53
  -2   7   5 1843.88  111.30
   2  -7  -6  298.69   91.65
   2  -7  -6  133.24  101.63
  -2   7   6  306.56   89.92
   2  -7  -7 1328.63  112.09
  -2   7   7 1595.39  148.46
   2  -7  -8  539.15   99.77
   2  -7  -8  245.04  118.22
  -2   7   8  539.15   99.29
   2  -7  -9    4.74   93.18
   2  -7  -9   64.94  101.46
  -2   7   9  -93.02   96.50
   2  -7 -10  638.86  140.90
   2  -7 -10  610.97  117.98
  -2   7  10 1188.82  103.79
   2  -8   0 1295.95  124.91
   2  -8  -1   24.38   99.57
  -2   8   1  145.64   92.45
   2  -8  -2 2203.89  151.42
  -2   8   2 2543.04  159.48
   2  -8  -3 1622.41  142.39
  -2   8   3 1667.23  131.55
   2  -8  -4  252.60   76.51
  -2   8   4  194.10  101.15
   2  -8  -5 1836.17  180.21
   2  -8  -5 1292.77  147.80
  -2   8   5 1537.03  150.28
   2  -8  -6   89.08   98.35
   2  -8  -6  104.10   82.83
  -2   8   6   41.16   86.41
   2  -8  -7  537.50  121.64
   2  -8  -7  126.58  124.29
  -2   8   7  242.12  106.06
   2  -9   0 1334.36  126.05
  -2   9   0 1460.76  158.19
   2  -9  -1  253.28   94.11
   2  -9  -2  268.21  101.28
  -2   9   2  237.64   98.76
   2  -9  -3 1058.67  122.49
  -2   9   3 1017.94  124.20
   1   9  -1 1179.40  125.67
   1   9  -2 1076.18  122.43
  -1  -9   2  989.96  116.09
   1   9  -3  252.61  101.48
  -1  -9   3  450.20  102.48
   1   9  -5  379.33  100.99
  -1  -9   5  481.10  101.98
   1   9  -6  962.80  108.58
  -1  -9   6 1116.03  146.28
   1   9  -7 2349.83  183.22
  -1  -9   7 3008.24  194.42
   1   9  -8  701.38  112.56
  -1  -9   8  884.37  122.72
   1   9  -9  973.33  114.94
  -1  -9   9 1089.62  134.08
   1   9 -10 2679.74  176.74
  -1  -9  10 2822.86  197.78
  -1  -9  11  102.12   63.33
   1   9 -12 1366.02  138.99
  -1  -9  12 1558.06  176.09
   1   8  -1  984.17  112.76
  -1  -8   1  944.26  106.05
   1   8  -2 3774.58  206.87
  -1  -8   2 4048.36  238.39
   1   8  -3  747.21  117.06
  -1  -8   3  799.19  110.73
   1   8  -4 2234.58  148.39
  -1  -8   4 2405.61  151.73
   1   8  -5 3450.19  211.78
  -1  -8   5 3761.23  197.60
   1   8  -6  300.79   95.25
  -1  -8   6  135.96   90.86
   1   8  -7 2635.64  192.38
  -1  -8   7 2987.72  186.03
   1   8  -8 3395.41  190.05
  -1  -8   8 3375.15  251.68
   1   8  -9  194.51   98.07
  -1  -8   9  292.41   96.62
   1   8 -10 4124.51  237.07
  -1  -8  10 4615.52  232.19
   1   8 -11 3218.35  280.41
  -1  -8  11 3174.00  195.48
  -1  -8  12  327.79  102.85
   1   8 -12  417.23   79.54
   1   8 -12  457.78  106.40
   1   8 -13 2949.02  195.51
  -1  -8  13 3377.16  210.72
   1   8 -14  987.36  134.56
  -1  -8  14  988.32  113.22
   1   8 -15  108.96   95.60
  -1  -8  15  208.86  109.92
  -1  -7   1  222.25   76.46
   1   7  -1  201.98   77.28
   1   7  -2 6384.69  276.27
  -1  -7   2 7002.16  333.94
   1   7  -310748.63  435.14
  -1  -7   311388.01  463.41
   1   7  -4  678.32  124.66
  -1  -7   4  669.82  124.17
   1   7  -512491.81  537.59
  -1  -7   513569.72  637.90
   1   7  -6 4579.01  225.07
  -1  -7   6 4361.54  229.70
   1   7  -7  506.27  100.69
  -1  -7   7  292.36   80.90
   1   7  -8 3295.30  189.81
  -1  -7   8 4019.30  285.81
   1   7  -9 1161.13  111.43
  -1  -7   9 1237.20  119.58
   1   7 -10 1599.93  131.40
  -1  -7  10 1523.02  128.79
   1   7 -11 6555.07  330.95
  -1  -7  11 7146.73  305.65
   1   7 -12 1736.97  118.00
  -1  -7  12 2168.89  134.82
   1   7 -13 1212.97  105.57
   1   7 -13 1495.85  105.39
  -1  -7  13 1481.90  110.94
   1   7 -14 2926.56  168.88
  -1  -7  14 3235.21  189.82
   1   7 -15  318.23  131.06
  -1  -7  15  267.66  106.73
   1   7 -16 1389.33  143.78
  -1  -7  16 1256.73  138.03
   1   7 -17 2329.98  207.14
  -1  -7  17 2580.69  212.47
  -1  -6   1 3900.72  213.15
   1   6  -2 2560.44  140.78
  -1  -6   2 2747.50  153.22
   1   6  -314757.72  598.88
  -1  -6   315897.64  600.31
  -1  -6   4 4653.30  209.20
   1   6  -4 5104.93  248.86
   1   6  -5 4000.82  181.56
  -1  -6   5 4111.22  180.47
   1   6  -617074.98  677.07
  -1  -6   617509.60  639.67
  -1  -6   7 2602.98  178.42
   1   6  -8 2285.22  133.70
  -1  -6   8 2117.20  145.86
  -1  -6   9 9072.68  406.87
   1   6 -10 1419.24  108.60
  -1  -6  10 1404.53  107.63
   1   6 -11 8341.95  433.25
   1   6 -11 8112.48  317.76
  -1  -6  11 8621.10  338.60
   1   6 -12 7543.03  352.99
   1   6 -12 7134.49  319.75
  -1  -6  12 8114.11  337.16
   1   6 -13  126.44   93.00
   1   6 -13   86.66   50.00
  -1  -6  13 -109.72   81.22
   1   6 -14 4644.50  230.80
   1   6 -14 4025.20  222.63
  -1  -6  14 4351.97  229.37
   1   6 -15 2513.18  151.10
  -1  -6  15 2539.45  153.17
   1   6 -16   25.98   97.53
  -1  -6  16   77.29   91.48
   1   6 -17 1794.69  173.15
  -1  -6  17 1591.78  143.26
   1   6 -18 1917.96  152.21
  -1  -6  18 1561.84  154.82
  -1  -5   114522.07  503.53
  -1  -5   113250.32  583.22
   1   5  -113525.04  469.99
  -1  -5   2 3871.39  169.36
   1   5  -3 9562.81  369.61
   1   5  -3 7932.40  395.81
  -1  -5   3 8542.47  397.19
  -1  -5   310054.97  367.47
   1   5  -432018.11 1224.75
  -1  -5   433607.61 1138.72
   1   5  -5 1588.15  167.19
  -1  -5   5 1054.38   80.60
  -1  -5   5 1383.35  102.49
   1   5  -623742.03  841.64
  -1  -5   623643.03  829.01
  -1  -5   623375.95  926.01
   1   5  -715124.66  532.52
  -1  -5   715076.05  714.19
   1   5  -8  140.91   65.25
  -1  -5   8  337.62   75.84
   1   5  -9 4622.88  202.27
  -1  -5   9 4751.40  212.77
   1   5 -10 6613.89  272.12
  -1  -5  10 7161.94  271.36
   1   5 -11  319.11   81.03
   1   5 -11  318.32   51.80
  -1  -5  11  353.55   74.49
   1   5 -1215500.25  614.30
   1   5 -1215824.50  610.01
  -1  -5  1216322.00  657.42
   1   5 -13 8288.67  358.68
   1   5 -13 8069.56  326.10
  -1  -5  13 8793.97  385.83
   1   5 -14 1155.41   99.29
   1   5 -14 1178.28   88.50
  -1  -5  14 1122.91  110.58
   1   5 -15 5537.16  296.47
   1   5 -15 5452.13  275.44
  -1  -5  15 5833.73  292.80
  -1  -5  16 1469.73  129.05
   1   5 -16 1814.34  194.19
  -1  -5  17  369.37  107.37
   1   5 -17  169.96  100.75
   1   5 -18 2010.63  175.30
  -1  -5  18 2353.21  147.58
   1   5 -19  763.56  121.27
  -1  -5  19  697.06  131.91
   1   4  -121463.55  751.65
   1   4  -119400.36  783.74
   1   4  -119950.62  777.28
  -1  -4   121591.42  695.08
  -1  -4   118932.74  701.07
   1   4  -2 8420.70  311.44
   1   4  -2 8540.51  317.49
   1   4  -2 8502.94  399.31
  -1  -4   2 9304.73  350.71
   1   4  -3 1663.16  101.80
   1   4  -3 1597.31   77.48
  -1  -4   3 1497.80   94.63
   1   4  -427013.85 1030.97
   1   4  -423867.83 1009.36
  -1  -4   426794.15  952.32
  -1  -4   427761.49  965.73
   1   4  -6 3176.22  162.70
   1   4  -6 3094.88  170.98
  -1  -4   6 3455.49  143.93
  -1  -4   6 3242.47  212.40
   1   4  -739541.73 1351.75
  -1  -4   739410.76 1442.78
   1   4  -814570.53  577.72
   1   4  -812269.22  473.41
  -1  -4   814682.12  499.41
  -1  -4   814459.73  577.76
   1   4  -9 2709.80  183.47
   1   4  -9 2591.89  130.15
  -1  -4   9 2722.42  143.99
   1   4 -1015205.35  596.93
   1   4 -1014644.54  561.57
  -1  -4  1015767.08  595.19
   1   4 -11 8096.61  325.84
   1   4 -11 7733.01  304.80
  -1  -4  11 8139.73  345.47
   1   4 -12 3445.08  171.17
   1   4 -12 3442.31  159.35
  -1  -4  12 3695.86  206.84
   1   4 -1310627.99  399.68
   1   4 -13 9692.09  428.15
  -1  -4  1311246.78  437.05
   1   4 -14 1660.12  135.44
   1   4 -14 1373.94  102.99
  -1  -4  14 1806.90  113.82
   1   4 -15 3042.65  161.52
  -1  -4  15 3123.85  162.77
   1   4 -15 2996.48  177.36
   1   4 -16 4726.79  311.26
   1   4 -16 4540.02  211.90
  -1  -4  16 5174.98  240.50
   1   4 -17  186.81   93.25
  -1  -4  17  421.79   90.67
   1   4 -18  687.23  108.03
  -1  -4  18  951.65  115.36
   1   4 -19 2858.98  200.62
  -1  -4  19 2928.86  192.41
   1   3  -1 4532.15  192.12
   1   3  -1 4222.53  188.24
  -1  -3   1 4533.05  175.43
  -1  -3   1 4525.18  201.77
   1   3  -255900.10 1897.53
   1   3  -252210.35 1751.66
  -1  -3   253117.31 1871.09
  -1  -3   255455.33 1849.83
   1   3  -329008.61 1092.74
   1   3  -327152.11 1061.83
  -1  -3   329297.99  996.77
   1   3  -4  602.57  116.83
   1   3  -4  627.32   57.64
  -1  -3   4  509.36   44.35
  -1  -3   4  677.57  115.70
  -1  -3   540982.04 1519.59
  -1  -3   542286.66 1592.54
   1   3  -542255.53 1437.07
   1   3  -540491.29 1417.13
   1   3  -613674.66  491.01
   1   3  -612818.46  533.91
  -1  -3   613555.64  567.23
  -1  -3   613412.22  500.26
   1   3  -723471.79  960.37
   1   3  -722060.63  789.57
  -1  -3   724116.97  808.80
   1   3  -818569.56  731.66
   1   3  -819855.58  830.82
   1   3  -818570.62  651.20
  -1  -3   821127.82  723.81
  -1  -3   818402.10  727.61
   1   3  -9 1953.83  122.36
   1   3  -9 1798.57  100.40
  -1  -3   9 2112.76  128.92
   1   3 -10 9945.31  374.24
   1   3 -10 9269.66  362.33
  -1  -3  10 9872.71  408.29
   1   3 -1124254.86  803.28
   1   3 -1122905.20  932.10
  -1  -3  1124490.22  857.17
  -1  -3  12 6465.91  275.11
   1   3 -12 6446.10  271.09
   1   3 -12 5423.30  249.80
   1   3 -13 4902.50  233.52
   1   3 -13 4561.91  202.31
  -1  -3  13 5074.77  211.52
   1   3 -1412793.29  564.23
   1   3 -1411986.87  495.95
  -1  -3  1413545.42  464.10
   1   3 -15  159.30   98.93
   1   3 -15  -32.63   35.62
   1   3 -15  -14.98   51.44
  -1  -3  15  276.77   93.57
   1   3 -16 4522.80  251.59
  -1  -3  16 5027.88  236.91
   1   3 -17 1891.62  153.85
   1   3 -17 1485.36  103.28
  -1  -3  17 1770.67  138.58
   1   3 -18   69.55   95.43
  -1  -3  18  240.52   98.83
   1   3 -19 1358.13  145.94
  -1  -3  19 1465.61  148.37
   1   2  -133338.25 1173.39
   1   2  -134614.18 1144.48
  -1  -2   134684.13 1212.56
  -1  -2   222748.54  782.33
   1   2  -333729.64 1216.81
   1   2  -336096.88 1257.01
  -1  -2   335552.61 1235.77
  -1  -2   334509.61 1294.39
   1   2  -417108.91  613.40
   1   2  -416896.76  654.50
  -1  -2   416556.61  670.93
  -1  -2   416954.23  635.59
   1   2  -521901.34  825.81
   1   2  -519477.41  753.22
  -1  -2   523597.84  784.05
  -1  -2   522376.88  797.18
   1   2  -666120.46 2128.24
   1   2  -658154.77 2078.70
  -1  -2   666207.52 2184.81
   1   2  -7 1899.86  175.42
   1   2  -7 1867.31  133.19
   1   2  -7 1852.51  186.98
  -1  -2   7 1893.00   99.98
  -1  -2   7 1898.74  155.89
   1   2  -816352.59  554.83
   1   2  -815324.47  557.55
   1   2  -814779.30  587.21
  -1  -2   815287.70  589.77
  -1  -2   816161.19  576.57
   1   2  -920103.82  723.26
   1   2  -922263.41  778.34
   1   2  -919413.97  776.60
  -1  -2   920834.39  750.65
  -1  -2   920930.64  785.32
   1   2 -10  188.73   66.37
   1   2 -10  100.49   53.36
  -1  -2  10  194.95   45.54
  -1  -2  10  233.73   68.80
  -1  -2  10  146.19   36.23
   1   2 -1113519.50  561.75
   1   2 -1113705.32  516.00
  -1  -2  1114170.56  467.02
  -1  -2  1113713.09  497.81
   1   2 -1211373.10  463.97
   1   2 -12 9838.87  422.03
  -1  -2  1211531.80  423.04
  -1  -2  1210868.88  403.85
   1   2 -13  430.44  116.59
   1   2 -13  188.78   30.05
   1   2 -13  389.80  111.23
  -1  -2  13  275.22   67.67
  -1  -2  13  273.51   48.17
   1   2 -14 9467.21  410.05
   1   2 -14 7871.03  285.29
   1   2 -14 7885.43  388.25
   1   2 -15 3932.67  218.57
   1   2 -15 3920.54  214.56
  -1  -2  15 4103.94  189.04
   1   2 -16  809.84   98.84
   1   2 -16  499.17   68.38
  -1  -2  16  744.21   96.24
   1   2 -17 2307.33  152.80
   1   2 -17 2046.20  123.10
  -1  -2  17 2508.45  162.33
   1   2 -18  893.02  111.75
   1   2 -18  715.91   84.05
  -1  -2  18 1212.05  122.83
   1   2 -19   92.01   66.63
  -1  -2  19   38.07   71.55
  -1  -2  20 1908.99  156.49
   1   2 -20 1925.06  150.37
   1   1  -123120.21  812.44
   1   1  -123406.97  837.00
  -1  -1   124093.60  826.02
   1   1  -2 9039.04  338.11
   1   1  -2 9022.49  352.97
  -1  -1   2 8781.51  325.85
  -1  -1   2 8341.15  329.83
   1   1  -312292.54  426.31
   1   1  -312199.55  459.46
   1   1  -311281.17  433.70
  -1  -1   312345.93  449.12
   1   1  -447767.55 1701.17
   1   1  -451504.96 1647.76
   1   1  -447191.99 1685.11
  -1  -1   451755.45 1711.33
  -1  -1   448215.22 1678.66
  -1  -1   448356.53 1671.57
   1   1  -5  145.68   32.54
   1   1  -5  291.57  107.35
   1   1  -5  159.82   35.83
  -1  -1   5  134.62   35.43
  -1  -1   5   85.94   34.06
  -1  -1   5  116.80   24.53
   1   1  -642271.39 1435.98
   1   1  -640111.07 1382.12
   1   1  -641484.16 1485.02
  -1  -1   639821.87 1607.56
  -1  -1   641893.15 1465.09
  -1  -1   642510.66 1432.29
   1   1  -761939.94 2086.59
   1   1  -764049.22 2217.70
  -1  -1   762516.36 2101.72
   1   1  -8 2274.20  339.08
   1   1  -8 1653.81  214.34
  -1  -1   8 1331.26  149.98
  -1  -1   8 1305.67  199.93
  -1  -1   8 1035.85  148.72
   1   1  -8 1188.15  194.88
   1   1  -916244.46  740.93
   1   1  -917636.19  616.24
   1   1  -916263.51  619.43
  -1  -1   918593.69  712.61
  -1  -1   917094.16  604.35
  -1  -1   918704.60  634.43
   1   1 -10 4334.19  258.98
   1   1 -10 4009.85  211.76
  -1  -1  10 4328.34  212.99
  -1  -1  10 4388.74  219.67
  -1  -1  10 4581.89  198.99
   1   1 -11 1161.05  120.19
   1   1 -11  855.38   43.50
   1   1 -11  981.71   89.13
  -1  -1  11 1208.24   97.44
  -1  -1  11 1157.10   80.13
   1   1 -1210082.02  403.24
   1   1 -12 8797.03  453.21
  -1  -1  1210585.28  379.92
  -1  -1  12 9956.89  469.36
   1   1 -13 3570.77  182.09
  -1  -1  13 3197.18  201.42
   1   1 -14 1784.40  142.22
   1   1 -14 1275.23   91.89
  -1  -1  14 1639.01  126.88
   1   1 -15 8316.44  355.23
  -1  -1  15 9108.36  402.65
   1   1 -16  521.68  116.56
   1   1 -16  339.52   72.21
  -1  -1  16  457.84   98.57
   1   1 -17 1624.79  146.74
  -1  -1  17 1665.10  123.25
   1   1 -18 1630.17  129.09
   1   1 -18 1368.19  116.38
  -1  -1  18 1775.78  141.67
   1   1 -19  172.77  105.79
  -1  -1  19  266.09   95.04
   1   0  -232271.72 1095.90
  -1   0   232564.29 1098.89
   1   0  -3 8505.94  355.43
   1   0  -310250.86  352.74
   1   0  -3 9460.94  383.16
  -1   0   310130.95  434.51
  -1   0   3 8848.64  356.03
  -1   0   310670.44  409.23
   1   0  -415579.60  588.73
   1   0  -416019.63  569.65
   1   0  -417073.65  601.73
  -1   0   415796.97  655.37
  -1   0   415752.22  583.63
  -1   0   415468.55  625.43
   1   0  -549421.43 1785.71
   1   0  -553638.80 1763.97
   1   0  -555727.20 1861.05
  -1   0   551260.78 1972.20
  -1   0   552776.16 1764.18
  -1   0   551141.02 1855.28
   1   0  -613736.23  511.96
   1   0  -612690.89  483.64
   1   0  -612424.79  512.90
  -1   0   611928.99  607.62
  -1   0   614294.74  528.22
  -1   0   613355.80  511.13
   1   0  -734887.78 1290.72
   1   0  -742530.06 1319.76
   1   0  -735123.44 1461.06
  -1   0   740350.74 1584.79
  -1   0   737459.50 1352.97
  -1   0   739576.92 1369.46
   1   0  -8 2972.93  143.41
   1   0  -8 3600.30  164.38
   1   0  -8 2792.60  169.11
  -1   0   8 2891.53  198.45
  -1   0   8 2994.14  149.90
  -1   0   8 2907.23  140.44
   1   0  -9 8871.86  352.05
   1   0  -9 8381.19  375.69
  -1   0   9 8400.76  432.02
  -1   0   9 8729.00  376.24
  -1   0   9 8387.61  370.24
   1   0 -1017073.52  595.38
  -1   0  1015867.92  598.96
  -1   0  1017146.59  660.53
   1   0 -11  312.71   78.55
   1   0 -11  408.93   97.12
  -1   0  11  404.48   92.44
  -1   0  11  365.69   66.15
   1   0 -12 1184.79   89.24
   1   0 -12  850.26   83.02
  -1   0  12 1040.76   87.75
   1   0 -13 6619.75  292.49
  -1   0  13 7373.70  291.88
   1   0 -14  704.20  112.60
   1   0 -14  403.31   66.92
  -1   0  14  585.27  102.71
   1   0 -15 4168.78  198.26
   1   0 -15 4170.19  194.12
   1   0 -16 3805.40  194.61
   1   0 -16 3605.30  183.24
  -1   0  16 4252.86  194.53
   1   0 -17  148.76   95.18
   1   0 -17 -131.90   75.84
  -1   0  17  -17.45   99.70
   1   0 -18 1198.41  111.69
   1   0 -18  953.21  110.55
  -1   0  18 1183.71  122.35
   1   0 -19  412.70  111.72
   1   0 -19  338.48   93.48
  -1   0  19  721.68  156.92
   1  -1   029736.81 1092.81
  -1   1   029393.25  947.89
   1  -1  -175394.91 2547.84
  -1   1   180845.07 2595.12
   1  -1  -248674.76 1649.78
  -1   1   248386.57 1702.34
  -1   1   250903.26 1689.05
   1  -1  -3 2224.63   94.16
   1  -1  -3 2267.06  126.11
  -1   1   3 2566.09  133.23
  -1   1   3 2449.36   98.27
  -1   1   3 2109.13  125.05
   1  -1  -438896.96 1475.93
   1  -1  -449865.60 1552.12
  -1   1   447218.46 1571.64
  -1   1   440641.07 1476.46
   1  -1  -513480.17  608.33
   1  -1  -514795.28  533.96
  -1   1   514159.11  542.42
  -1   1   514009.26  522.34
   1  -1  -6 4352.01  208.05
   1  -1  -6 3696.97  189.98
  -1   1   6 3488.47  184.67
  -1   1   6 4610.51  186.47
   1  -1  -7 6950.04  329.70
   1  -1  -7 7356.95  287.59
  -1   1   7 7002.15  348.60
  -1   1   7 6944.32  264.98
  -1   1   7 6673.72  270.54
   1  -1  -835242.76 1319.60
  -1   1   836941.86 1241.67
   1  -1  -9  279.26   49.45
   1  -1  -9  279.38  119.23
  -1   1   9  237.52   61.07
  -1   1   9  152.14   59.94
   1  -1 -10 7823.22  345.52
  -1   1  10 8364.75  295.63
  -1   1  10 6956.45  300.89
   1  -1 -11 6614.16  345.14
  -1   1  11 6819.87  286.92
   1  -1 -12  590.14   90.53
   1  -1 -12  294.73   73.22
  -1   1  12  168.91   49.44
   1  -1 -13 4125.80  226.75
  -1   1  13 4634.62  207.68
   1  -1 -14 2821.25  178.16
   1  -1 -14 2736.27  151.15
  -1   1  14 3201.39  158.06
   1  -1 -15  534.00   87.73
   1  -1 -15  149.83   77.26
  -1   1  15  278.81   93.68
   1  -1 -16 3003.04  197.57
   1  -1 -16 3484.44  189.39
  -1   1  16 3699.83  157.93
   1  -1 -17 1047.84  125.88
   1  -1 -17  569.66  101.07
  -1   1  17  758.78  114.66
   1  -1 -18  310.43  110.73
   1  -1 -18  222.20   94.83
  -1   1  18  353.55  103.65
   1  -2   074796.80 2534.42
  -1   2   078632.15 2595.13
  -1   2   075759.30 2520.18
   1  -2  -114574.79  556.19
   1  -2  -115025.30  532.15
  -1   2   115763.72  564.04
  -1   2   116141.98  584.56
   1  -2  -242027.05 1531.91
   1  -2  -249464.54 1562.75
  -1   2   244719.24 1483.85
  -1   2   244109.33 1540.06
   1  -2  -331814.44 1139.36
   1  -2  -335537.44 1139.67
  -1   2   333741.58 1177.22
  -1   2   332305.41 1157.42
   1  -2  -4  558.65   70.24
   1  -2  -4  555.03  121.49
  -1   2   4  434.18   55.94
  -1   2   4  314.46   36.93
   1  -2  -513183.82  500.34
   1  -2  -515239.85  526.33
  -1   2   513189.43  578.60
  -1   2   514016.85  503.65
   1  -2  -615670.20  518.88
   1  -2  -615280.22  590.44
  -1   2   613764.94  573.13
  -1   2   613739.78  505.56
   1  -2  -7 1031.12   51.67
  -1   2   7  961.63   67.09
   1  -2  -819803.89  701.88
   1  -2  -819131.58  744.37
  -1   2   819283.13  717.44
  -1   2   818218.43  641.65
   1  -2  -910179.29  431.73
  -1   2   910475.82  404.09
   1  -2 -10 2539.84  132.32
  -1   2  10 2419.57  130.67
   1  -2 -11 9381.98  374.57
  -1   2  11 9653.02  361.06
   1  -2 -12 2866.39  162.39
  -1   2  12 2885.85  155.66
   1  -2 -13  482.14   81.24
   1  -2 -13  387.64   93.02
  -1   2  13  601.96   91.34
   1  -2 -14 3260.96  175.19
   1  -2 -14 2999.65  180.68
  -1   2  14 3331.00  174.26
   1  -2 -15 1023.00  109.40
   1  -2 -15  791.68  104.10
  -1   2  15  987.25  115.08
   1  -2 -16  869.74  105.92
   1  -2 -16  612.78  103.98
  -1   2  16  871.31  107.49
   1  -2 -17 1139.30  120.46
   1  -2 -17 1356.02  133.72
  -1   2  17 1519.41  138.45
   1  -2 -18   85.24   94.21
  -1   2  18  133.81   74.57
   1  -3   044294.32 1441.67
   1  -3   042542.01 1402.88
  -1   3   044145.21 1483.33
  -1   3   038460.00 1460.61
   1  -3  -131717.63 1032.27
   1  -3  -128035.76 1004.39
  -1   3   130162.66  977.41
  -1   3   128352.13 1013.97
   1  -3  -2 9848.26  374.80
   1  -3  -2 9894.21  365.77
  -1   3   210584.11  420.11
  -1   3   2 9255.72  355.38
   1  -3  -344969.28 1596.12
   1  -3  -354180.25 1708.84
  -1   3   347524.52 1583.20
  -1   3   348064.67 1646.05
   1  -3  -420520.13  769.28
   1  -3  -419889.94  663.22
  -1   3   420900.29  721.64
  -1   3   417821.54  701.53
   1  -3  -5  100.69   31.48
   1  -3  -5  157.23   67.70
   1  -3  -5  122.70   41.28
  -1   3   5  108.36   44.79
  -1   3   5   93.93   51.05
  -1   3   5   83.65   48.57
   1  -3  -611406.13  419.67
   1  -3  -611272.10  458.57
  -1   3   610868.02  403.13
  -1   3   6 9759.84  479.08
   1  -3  -7 6475.52  233.38
  -1   3   7 6495.21  263.81
   1  -3  -8 2040.07  113.78
  -1   3   8 2002.51  123.76
   1  -3  -913426.76  453.71
  -1   3   913776.01  487.55
   1  -3 -10  903.48  100.88
  -1   3  10  847.53   96.85
   1  -3 -11 5053.24  215.18
  -1   3  11 4834.20  207.70
   1  -3 -12 4423.30  188.52
   1  -3 -12 4088.08  213.28
  -1   3  12 4442.12  200.07
   1  -3 -13  638.73   91.25
   1  -3 -13  514.61   77.25
  -1   3  13  750.67  102.52
   1  -3 -14 1033.22  112.60
   1  -3 -14  670.82  109.81
  -1   3  14  870.09  109.36
   1  -3 -15 1399.61  103.99
   1  -3 -15 1727.91  149.89
  -1   3  15 1510.69  139.34
   1  -3 -16  352.52  107.54
   1  -3 -16  249.63  116.52
  -1   3  16  273.49   86.00
   1  -3 -17  674.28  120.00
  -1   3  17  798.47  115.62
   1  -4   0 3042.29  142.85
  -1   4   0 3053.53  145.78
  -1   4   0 2897.09  164.42
   1  -4  -138859.03 1195.90
   1  -4  -135763.20 1194.96
  -1   4   132240.67 1241.37
  -1   4   135451.09 1233.20
   1  -4  -217318.27  593.87
   1  -4  -214601.34  532.88
  -1   4   215219.53  532.50
  -1   4   215342.86  540.20
   1  -4  -314847.38  530.72
   1  -4  -313947.16  466.90
  -1   4   313465.30  479.32
  -1   4   312476.75  478.44
   1  -4  -424422.42  824.18
  -1   4   425032.44  834.72
  -1   4   423501.88  842.33
   1  -4  -5 1174.34  127.20
   1  -4  -5 1046.83  116.68
  -1   4   5 1705.56  177.94
   1  -4  -6 2810.89  154.72
  -1   4   6 2874.83  121.81
   1  -4  -711580.47  471.88
  -1   4   711529.72  419.09
   1  -4  -8  419.61   82.76
   1  -4  -8  407.72  100.41
  -1   4   8  569.45   95.05
   1  -4  -9 3306.26  186.91
  -1   4   9 3490.88  168.62
   1  -4 -10 4585.64  208.13
  -1   4  10 4306.96  205.76
   1  -4 -11  382.01   87.89
  -1   4  11  256.38   85.79
   1  -4 -11   77.18  100.95
   1  -4 -12 1937.87  125.16
   1  -4 -12 1765.47  157.68
  -1   4  12 1994.05  135.94
   1  -4 -13  821.36   82.91
  -1   4  13 1048.51  109.51
   1  -4 -14  164.06   99.40
   1  -4 -14   65.34  109.15
  -1   4  14  110.82   93.45
   1  -4 -15  764.42  109.04
   1  -4 -15  564.88  139.40
  -1   4  15  908.80  132.93
   1  -5   0 5500.73  210.77
   1  -5   0 5040.41  212.27
  -1   5   0 5532.19  200.30
  -1   5   0 4683.03  241.87
  -1   5   0 4595.41  234.74
   1  -5  -1 6821.80  283.20
  -1   5   1 6645.70  296.44
   1  -5  -220836.47  737.86
  -1   5   221336.22  737.05
   1  -5  -3  505.75  109.81
   1  -5  -3  261.53   49.39
  -1   5   3  343.06  114.89
  -1   5   3  232.84   25.09
   1  -5  -410417.68  402.17
  -1   5   410295.73  385.29
   1  -5  -5 4555.86  200.95
  -1   5   5 4098.76  180.58
   1  -5  -6  156.26   81.34
  -1   5   6  239.20   75.03
   1  -5  -7 2882.25  152.49
  -1   5   7 3063.45  154.91
   1  -5  -8 4678.31  214.62
  -1   5   8 4745.84  215.75
   1  -5  -9    2.95   64.88
  -1   5   9  154.69   96.74
   1  -5  -9   18.84   80.75
   1  -5 -10 2958.52  143.17
  -1   5  10 2693.74  164.10
   1  -5 -11  920.44  102.67
   1  -5 -11 1072.08  117.75
  -1   5  11 1235.93  144.46
   1  -5 -12  204.60   74.36
   1  -5 -12  422.52  125.63
  -1   5  12  104.22   65.52
   1  -5 -13 1372.87  125.38
   1  -5 -13  966.57  109.20
  -1   5  13 1231.89  124.22
   1  -5 -14  336.59  126.15
  -1   5  14  249.54  112.79
   1  -5 -14  233.01  124.45
   1  -6   0 5339.69  214.01
  -1   6   0 5279.08  239.67
   1  -6  -1   87.41   75.48
   1  -6  -2 9645.49  358.71
  -1   6   2 9637.62  387.99
   1  -6  -3 4592.88  186.36
  -1   6   3 4968.00  222.55
  -1   6   4  368.64   35.01
   1  -6  -4  587.69   93.57
   1  -6  -4  386.69   89.45
  -1   6   4  659.02  103.25
   1  -6  -5 4067.23  186.51
  -1   6   5 4184.69  186.24
   1  -6  -6 2102.39  128.78
   1  -6  -6 1535.34  124.73
  -1   6   6 1936.98  131.40
   1  -6  -7  326.94   82.65
   1  -6  -7  272.93   76.30
  -1   6   7  484.36   98.06
   1  -6  -8 2412.44  153.28
  -1   6   8 2529.34  162.11
   1  -6  -9  980.00  100.27
   1  -6  -9  944.21   93.59
  -1   6   9 1090.24  170.06
   1  -6 -10  337.56  102.22
   1  -6 -10  216.28   72.05
  -1   6  10  345.33  105.87
   1  -6 -11 1180.65  116.58
  -1   6  11 1084.64   88.53
   1  -6 -12  379.61  142.51
   1  -6 -12   25.87  111.98
  -1   6  12  128.88  107.27
  -1   7   0 2307.77  121.53
   1  -7  -1  858.71   77.01
  -1   7   1  656.33   76.31
   1  -7  -2  738.50   92.54
  -1   7   2  773.36  100.86
   1  -7  -3 6766.29  292.09
  -1   7   3 6733.21  308.35
   1  -7  -4 1036.79   90.65
   1  -7  -4 1089.10   94.63
  -1   7   4 1041.21   90.97
   1  -7  -5 1219.69  108.58
   1  -7  -5  827.41  103.40
  -1   7   5 1145.34  107.14
   1  -7  -6 1946.83  128.10
  -1   7   6 1894.09  176.94
   1  -7  -7   89.14   88.67
   1  -7  -7   53.16   71.95
  -1   7   7   23.90   87.25
   1  -7  -8  551.52  100.45
   1  -7  -8  542.31  128.97
  -1   7   8  722.60  109.44
   1  -7  -9  638.82  103.75
   1  -7  -9  701.26  136.82
  -1   7   9  806.60  124.45
   1  -7 -10   29.52  136.42
  -1   7  10   22.35  100.63
   1  -8   0 1400.42  110.04
  -1   8   0 1294.31  121.14
  -1   8   1 2830.14  163.97
   1  -8  -2  327.38   93.67
  -1   8   2  275.06  107.81
   1  -8  -3 1416.58  113.78
  -1   8   3 1463.15  126.61
   1  -8  -4 2005.89  160.42
  -1   8   4 1668.92  147.68
   1  -8  -5  -25.99   98.44
  -1   8   5  244.44  116.71
   1  -8  -6  634.95  101.92
  -1   8   6  638.40  116.38
   1  -8  -7  360.66   97.61
  -1   8   7  560.40  128.26
   1  -9   0  -79.97   86.14
  -1   9   0   -9.64   95.93
   1  -9  -1  670.02  108.24
  -1   9   1  660.37  112.02
   1  -9  -2  646.73  112.16
  -1   9   2  757.39  112.34
   1  -9  -3  135.15   79.62
  -1   9   3   63.88   67.97
   1  -9  -4 1221.34  122.82
  -1   9   4 1118.17  122.63
   0   9  -1  199.03   97.76
   0  -9   1   85.58   92.31
   0   9  -2 1751.51  140.52
   0  -9   2 2062.72  173.09
   0   9  -3 3366.20  212.78
   0   9  -4  320.08  136.48
   0  -9   4  133.11  102.12
   0   9  -5 2221.71  162.90
   0  -9   5 2349.02  166.62
   0   9  -6 2715.44  193.10
   0  -9   6 2694.71  173.20
   0   9  -7  374.89  142.65
   0  -9   7   88.33  105.43
   0   9  -8 1537.58  134.56
   0  -9   8 1535.83  151.00
   0  -9   9 2051.78  179.51
   0   9 -10  280.43   72.63
   0  -9  10  211.32   70.71
   0   9 -11 3155.70  199.79
   0  -9  11 2983.98  198.29
   0   9 -12 1012.06  127.69
   0  -9  12 1174.92  140.27
   0   8  -1 3441.57  193.23
   0  -8   1 3890.24  223.89
   0   8  -2  182.27   94.94
   0  -8   2  -35.84   79.43
   0   8  -3 5120.32  249.67
   0   8  -4 5058.52  258.65
   0  -8   4 5929.27  262.09
   0  -8   5 1445.28  114.53
   0   8  -6 5649.43  280.65
   0  -8   6 5599.40  278.71
   0   8  -7 2212.21  143.78
   0  -8   7 2157.76  146.02
   0   8  -8  528.31  108.04
   0  -8   8  565.39  102.08
   0   8  -9 5495.94  269.58
   0  -8   9 5657.70  314.88
   0   8 -10 1682.02  143.19
   0  -8  10 1809.02  141.94
   0   8 -11 1236.28  126.91
   0  -8  11 1189.50  121.62
   0   8 -12 5057.40  325.27
   0  -8  12 5217.62  285.48
   0   8 -13  156.33  104.86
   0  -8  13  176.35   97.40
   0   8 -14 1815.14  179.61
   0  -8  14 1887.80  154.67
   0   8 -15 2125.00  175.12
   0  -8  15 2294.08  168.73
   0   7  -1 6766.52  268.44
   0  -7   1 7252.86  358.77
   0   7  -2 4686.30  221.28
   0   7  -3 3004.03  168.29
   0  -7   3 3138.37  174.01
   0   7  -4 9757.53  456.24
   0  -7   4 9767.26  401.91
   0   7  -5 2160.99  128.89
   0   7  -6 3609.08  210.86
   0  -7   6 4110.09  193.88
   0   7  -711327.24  441.62
   0  -7   710882.11  508.29
   0   7  -8 2548.14  144.28
   0  -7   8 2196.37  182.52
   0   7  -9 2149.44  150.57
   0  -7   9 1930.99  154.20
   0   7 -1010334.64  466.71
   0  -7  1010856.54  438.42
   0   7 -11  206.57   99.05
   0   7 -11  145.89   60.70
   0  -7  11  247.60   60.27
   0   7 -12 5156.37  237.99
   0  -7  12 5647.96  260.10
   0   7 -13 4431.48  262.65
   0  -7  13 4936.61  259.91
   0   7 -14  -76.37   87.92
   0  -7  14   83.01   87.92
   0   7 -15 2010.65  146.76
   0  -7  15 2160.34  150.13
   0   7 -16 1712.81  135.34
   0  -7  16 1790.20  160.58
   0   6  -1  834.76   75.47
   0  -6   1  819.06   83.48
   0   6  -2 7579.18  323.59
   0  -6   2 8034.89  358.66
   0   6  -3 3912.28  179.83
   0  -6   3 3511.66  185.85
   0   6  -412085.87  517.37
   0  -6   412584.03  462.54
   0   6  -518682.73  810.63
   0  -6   519504.24  666.63
   0   6  -6  289.04   81.22
   0   6  -6  132.21   50.13
   0  -6   6  242.80   63.73
   0   6  -712545.08  467.67
   0  -6   712555.43  581.75
   0   6  -812481.95  466.27
   0  -6   812834.68  545.65
   0   6  -9   36.68   38.53
   0  -6   9   82.87   55.41
   0   6 -10 8002.84  316.34
   0   6 -10 6616.65  312.82
   0  -6  10 7896.16  315.16
   0   6 -11 8019.07  405.88
   0   6 -11 7834.98  314.24
   0  -6  11 8712.04  344.92
   0   6 -12   81.72   58.56
   0   6 -12   63.84   46.62
   0  -6  12   52.21   52.53
   0   6 -13 7669.42  372.33
   0   6 -13 7426.11  328.03
   0  -6  13 8175.27  332.41
   0   6 -14 2238.05  154.92
   0  -6  14 2315.85  157.79
   0   6 -15  408.57   91.37
   0  -6  15  564.97  115.92
   0   6 -16 2347.53  173.15
   0  -6  16 2453.09  150.73
   0   6 -17  863.80  132.26
   0  -6  17  845.65  111.09
   0   6 -18  513.66  117.62
   0  -6  18  360.60  114.25
   0   5  -1 1157.00   83.02
   0  -5   1 1098.22   73.20
   0  -5   1 1100.37   88.76
   0   5  -212903.18  464.11
   0   5  -211361.60  476.56
   0  -5   212930.30  495.09
   0  -5   212426.91  495.40
   0   5  -319982.87  710.48
   0   5  -318398.17  739.03
   0  -5   320012.87  804.78
   0   5  -4  247.05   73.86
   0   5  -4  105.19   49.04
   0  -5   4  202.01   51.82
   0  -5   4  242.12   65.64
   0  -5   527789.36  940.17
   0   5  -523644.12  983.40
   0   5  -527844.88  987.66
   0   5  -610451.57  506.24
   0   5  -612695.96  482.24
   0  -5   613232.60  548.30
   0   5  -7 1599.84  107.45
   0  -5   7 1717.11  123.06
   0   5  -812254.40  471.25
   0  -5   812771.13  472.35
   0   5  -9 5248.33  233.91
   0   5  -9 4482.78  211.43
   0  -5   9 5334.12  216.42
   0   5 -10 1066.99   70.63
   0  -5  10 1045.57   72.34
   0   5 -1118527.62  751.72
   0   5 -1117180.31  683.32
   0  -5  1118524.33  678.82
   0   5 -12 3665.73  200.27
   0   5 -12 3441.50  174.25
   0  -5  12 4090.98  186.29
   0   5 -13 3846.29  196.50
   0   5 -13 3914.13  184.72
   0  -5  13 4341.93  214.27
   0   5 -14 7358.39  309.94
   0   5 -14 6832.51  320.56
   0  -5  14 7680.37  332.72
   0   5 -15  301.59   98.57
   0  -5  15  318.68   88.99
   0   5 -16 1629.33  138.55
   0   5 -16 1225.78   94.05
   0  -5  16 1385.31  133.83
   0   5 -17 2334.39  179.63
   0  -5  17 2430.19  184.97
   0   5 -18  403.56  108.82
   0  -5  18  620.02  109.17
   0   4  -113569.46  480.83
   0   4  -113016.34  501.12
   0   4  -112101.75  522.60
   0  -4   113179.12  492.73
   0  -4   114573.95  503.70
   0  -4   2  351.98   53.03
   0  -4   2  406.91   58.24
   0   4  -2  483.18   63.06
   0   4  -2  394.74   50.07
   0   4  -324185.23  844.56
   0   4  -322927.67  926.19
   0  -4   326105.54  895.41
   0   4  -4 8823.35  389.00
   0   4  -4 8806.32  404.11
   0   4  -4 7534.92  357.43
   0  -4   4 9570.67  328.19
   0   4  -515739.79  626.13
   0   4  -516366.25  730.47
   0  -4   516091.34  629.15
   0  -4   660963.02 2275.27
   0   4  -663171.75 2071.31
   0  -4   7 2956.31  133.27
   0   4  -7 2947.34  131.18
   0   4  -7 2922.47  133.42
   0  -4   7 3050.82  130.76
   0   4  -8 6137.65  233.18
   0  -4   8 6832.77  264.89
   0   4  -914184.60  639.92
   0   4  -913721.00  508.44
   0  -4   914097.49  508.57
   0   4 -10 2769.27  127.58
   0   4 -10 3139.59  170.78
   0  -4  10 3192.18  166.53
   0   4 -11 1892.02  109.30
   0   4 -11 1868.74   99.68
   0  -4  11 1737.89  114.00
   0   4 -12 9528.15  368.10
   0   4 -12 8457.57  351.58
   0  -4  12 9476.08  402.32
   0   4 -13  145.30   78.10
   0   4 -13   97.21   43.92
   0  -4  13  313.36   90.46
   0   4 -1414672.99  574.11
   0  -4  1414545.73  563.64
   0   4 -15 5886.45  323.19
   0  -4  15 5860.51  262.91
   0   4 -16   10.88   65.14
   0  -4  16  281.69   90.98
   0   4 -17 2356.98  220.30
   0  -4  17 2883.98  170.33
   0   4 -18 1613.37  160.42
   0  -4  18 1552.36  144.00
   0   4 -19  166.83  106.14
   0  -4  19  120.25  104.03
   0   3  -151685.82 1745.21
   0   3  -149807.24 1710.97
   0  -3   154587.63 1776.62
   0  -3   149966.96 1730.38
   0   3  -2  353.27   40.52
   0   3  -2  332.73   42.22
   0   3  -2  238.32   46.95
   0  -3   2  442.51   42.05
   0   3  -3 7350.85  331.38
   0   3  -3 6902.52  362.00
   0  -3   3 7682.87  290.96
   0  -3   3 7282.95  285.97
   0   3  -435146.23 1201.26
   0   3  -432056.78 1273.22
   0  -3   434771.15 1218.05
   0  -3   434647.77 1255.86
   0   3  -5 2206.71  115.51
   0  -3   5 2481.75  118.59
   0  -3   5 2390.62  148.95
   0   3  -635176.68 1257.23
   0   3  -632829.67 1200.55
   0  -3   633739.72 1296.65
   0  -3   635005.16 1205.66
   0   3  -751539.54 1909.87
   0   3  -756013.39 1831.38
   0   3  -746358.34 1694.11
   0  -3   752135.75 1751.25
   0   3  -8  342.76   47.83
   0   3  -8  356.69   51.46
   0   3  -8  372.36   38.03
   0  -3   8  333.29   41.91
   0  -3   8  347.38   38.44
   0   3  -917054.31  614.42
   0   3  -915271.97  578.11
   0   3  -915633.38  599.04
   0  -3   916718.47  640.20
   0   3 -1013715.63  500.68
   0   3 -1011886.51  519.82
   0  -3  1013587.63  537.36
   0   3 -11  219.07   64.39
   0   3 -11  211.59   34.45
   0  -3  11  267.68   65.04
   0   3 -1215701.53  627.97
   0  -3  1216184.90  586.71
   0   3 -13 4008.55  202.11
   0   3 -13 3169.86  145.36
   0   3 -13 3268.65  172.41
   0  -3  13 3883.46  181.49
   0   3 -14 1287.48  117.13
   0   3 -14 1034.33   74.25
   0   3 -14 1174.30   73.30
   0  -3  14 1399.23   98.10
   0   3 -15 8150.65  434.85
   0   3 -15 7399.10  281.10
   0   3 -15 7106.62  320.38
   0   3 -16 1334.42  135.06
   0  -3  16 1620.24  132.85
   0   3 -17  412.63   98.94
   0  -3  17  210.22   67.31
   0   3 -18 1674.10  150.70
   0  -3  18 2051.33  160.37
   0   3 -19 1151.21  143.01
   0  -3  19  939.04  120.22
   0   2  -179098.84 2535.83
   0  -2   179375.63 2618.77
   0  -2   175551.35 2644.13
   0   2  -174486.22 2744.64
   0   2  -217332.53  679.85
   0   2  -216924.51  702.23
   0  -2   218036.07  619.82
   0  -2   217277.93  631.45
   0   2  -3  314.13   35.68
   0  -2   3  272.50   31.28
   0   2  -3  307.33   35.35
   0  -2   3  307.17   39.25
   0   2  -471019.80 2388.37
   0  -2   468702.50 2393.76
   0  -2   471935.09 2454.84
   0   2  -565093.79 2345.45
   0  -2   565490.37 2158.70
   0  -2   565073.63 2224.92
   0  -2   6 6338.04  274.55
   0   2  -6 6795.09  270.45
   0   2  -6 6155.03  262.67
   0   2  -6 5684.08  233.86
   0  -2   6 6552.21  244.04
   0   2  -748355.56 1676.42
   0   2  -750198.24 1719.94
   0  -2   751258.00 1717.43
   0  -2   748128.23 1711.65
   0   2  -811388.61  451.03
   0   2  -812953.54  442.24
   0   2  -811651.91  427.36
   0  -2   812360.11  464.49
   0   2  -9 4115.15  183.31
   0   2  -9 4005.13  194.93
   0   2  -9 3917.17  171.60
   0  -2   9 4388.64  176.20
   0  -2   9 4240.46  173.93
   0   2 -1016760.58  628.35
   0   2 -1015434.59  694.32
   0  -2  1017440.09  575.46
   0  -2  1016833.03  610.95
   0   2 -11 4617.75  235.73
   0   2 -11 3826.12  165.87
   0   2 -11 4223.58  211.46
   0  -2  11 4581.52  161.37
   0  -2  11 4639.61  176.80
   0   2 -12  750.40   93.87
   0   2 -12  618.68   42.31
   0   2 -12  759.14  118.25
   0  -2  12  884.75   75.44
   0  -2  12  854.49   57.11
   0   2 -1312229.52  546.71
   0  -2  1312508.41  466.48
   0  -2  1310305.32  421.49
   0   2 -14 1358.60   70.52
   0   2 -14 1481.45   81.06
   0  -2  14 1627.85  100.33
   0  -2  14 1381.32   96.27
   0   2 -14 1755.37  128.22
   0   2 -15 6893.66  332.81
   0  -2  15 7259.98  305.12
   0   2 -16 6455.87  301.89
   0  -2  16 6873.05  301.61
   0   2 -17  261.99   92.82
   0  -2  17  198.51  110.37
   0   2 -18  964.91  120.17
   0  -2  18  845.48   86.07
   0   2 -19 1500.01  133.60
   0  -2  19 1564.71  144.88
   0  -1   1  163.17   20.70
   0   1  -1  179.53   21.21
   0   1  -311146.75  432.94
   0   1  -311117.11  415.33
   0   1  -3 9864.01  383.37
   0  -1   311255.03  414.09
   0  -1   311253.01  412.50
   0  -1   4 1558.71   85.52
   0  -1   4 1361.42   65.92
   0   1  -4 1411.17   75.61
   0   1  -4 1606.17   78.41
   0   1  -4 1375.51   72.96
   0  -1   4 1515.01   89.41
   0  -1   599746.20 3487.15
   0  -1   599999.00 3400.90
   0   1  -617941.41  678.64
   0   1  -618869.58  654.94
   0   1  -619034.24  726.38
   0  -1   619335.73  781.31
   0  -1   618229.84  660.37
   0  -1   619360.85  686.76
   0   1  -745560.78 1551.12
   0   1  -743195.47 1451.62
   0  -1   744184.27 1642.75
   0  -1   745129.85 1513.62
   0  -1   740466.62 1534.98
   0   1  -832084.11 1220.38
   0   1  -832801.54 1093.62
   0  -1   832837.29 1272.60
   0  -1   832306.88 1112.95
   0  -1   830150.97 1153.30
   0   1  -9 3271.64  197.54
   0   1  -9 3675.66  166.04
   0   1  -9 3183.25  168.96
   0  -1   9 3474.16  186.44
   0  -1   9 3624.88  140.34
   0  -1   9 3641.89  153.66
   0   1 -1010487.12  448.88
   0   1 -1010068.45  447.95
   0  -1  1010954.57  404.77
   0  -1  1010522.41  396.73
   0   1 -1112499.17  490.91
   0   1 -1110212.23  407.55
   0   1 -1111703.86  485.22
   0  -1  1113449.38  447.19
   0  -1  1112690.21  496.75
   0   1 -12 1966.70  119.55
   0   1 -12 1452.15   75.40
   0  -1  12 1895.06   97.07
   0  -1  12 1685.28  105.31
   0   1 -13 3334.84  136.05
   0   1 -13 3539.67  169.52
   0  -1  13 3431.34  193.94
   0   1 -14 9693.45  375.15
   0  -1  14 9708.14  407.87
   0   1 -15  124.72   83.04
   0   1 -15  159.60   56.91
   0  -1  15  -57.07   77.59
   0   1 -16 4816.88  219.88
   0  -1  16 5145.64  242.06
   0   1 -17 1188.00  123.77
   0   1 -17 1239.52  111.53
   0  -1  17 1581.79  118.05
   0   1 -18  115.85   87.44
   0  -1  18   30.30   92.46
   0   1 -19  938.32   89.93
   0  -1  19 1122.74  114.88
   0   0   210214.34  358.85
   0   0  -2 9643.82  399.03
   0   0   312613.76  451.65
   0   0  -311965.67  474.66
   0   0  -311929.18  447.50
   0   0   311802.33  494.76
   0   0   4 5442.85  234.42
   0   0  -4 5797.11  252.41
   0   0  -4 6026.38  222.24
   0   0  -4 5229.73  242.36
   0   0   4 5923.55  228.34
   0   0   4 6016.84  263.25
   0   0  -523159.87  819.60
   0   0  -522986.69  850.44
   0   0   521821.65  883.14
   0   0   522868.83  813.90
   0   0   612322.18  509.98
   0   0   612073.64  457.02
   0   0   612079.37  454.75
   0   0  -611637.93  456.12
   0   0  -613558.81  442.72
   0   0  -611099.90  486.34
   0   0   7 4806.89  261.42
   0   0   7 4597.00  201.92
   0   0   7 4945.87  195.88
   0   0  -7 4714.94  207.98
   0   0  -7 4865.85  207.77
   0   0  -7 4445.25  200.75
   0   0  -837782.36 1260.13
   0   0  -836966.30 1320.88
   0   0   835105.88 1429.88
   0   0   838171.27 1322.05
   0   0   836177.51 1303.87
   0   0   926671.13 1038.92
   0   0   928423.98 1026.97
   0   0   928378.11  991.42
   0   0  -928438.73  989.96
   0   0  -929895.88 1102.21
   0   0  10   -2.79   34.19
   0   0  10   -6.16   33.78
   0   0 -10   63.45   54.57
   0   0 -10   16.98   44.84
   0   0 -10  -19.17   40.57
   0   0  1110654.69  391.77
   0   0  11 9551.71  359.82
   0   0 -11 9927.51  361.77
   0   0 -11 8982.75  368.33
   0   0  12 6396.16  243.92
   0   0  12 5298.57  227.96
   0   0 -12 5817.13  238.48
   0   0 -12 5430.30  233.87
   0   0  13   88.78   70.32
   0   0 -13   46.40   65.66
   0   0 -13  -82.36   49.50
   0   0  14 7558.96  314.53
   0   0 -14 7911.55  344.78
   0   0  15 4975.40  228.81
   0   0 -15 4669.64  225.97
   0   0 -15 4182.31  208.67
   0   0  16  533.77   80.65
   0   0 -16  629.42  101.67
   0   0 -16  497.91   74.59
   0   0 -17 1663.31  122.22
   0   0 -17 1320.15  104.85
   0   0  17 1942.58  258.00
   0   0  18  459.34  101.30
   0   0 -18  321.27   93.40
   0   0 -19  259.18  120.30
   0   0  19  109.23   98.17
   0   1   052493.20 1678.19
   0  -1   050872.83 1623.23
   0  -1   047737.17 1774.71
   0   1   1 7313.00  358.87
   0   1   2 1521.11   71.61
   0   1   2 1483.15   65.58
   0   1   2 1568.86   79.38
   0  -1  -2 1292.24   59.38
   0  -1  -2 1445.76   68.15
   0  -1  -2 1551.46   76.52
   0   1   345083.11 1552.52
   0   1   343717.71 1486.19
   0  -1  -340674.75 1495.25
   0  -1  -348013.04 1566.48
   0   1   435463.17 1233.74
   0   1   436998.24 1253.23
   0  -1  -435368.26 1416.55
   0  -1  -437667.94 1278.97
   0   1   5 6498.08  276.56
   0   1   5 5992.18  234.23
   0   1   5 6094.74  256.54
   0  -1  -5 5724.61  323.22
   0  -1  -5 6724.29  276.24
   0   1   642195.72 1571.87
   0   1   638656.07 1355.45
   0  -1  -637166.54 1603.51
   0  -1  -643935.39 1509.50
   0   1   718181.57  784.58
   0   1   717735.51  630.25
   0   1   715076.64  587.23
   0   1   716728.48  689.57
   0  -1  -717188.45  685.76
   0  -1  -719515.45  662.79
   0   1   8  905.10   89.57
   0   1   8 1163.50   74.59
   0   1   8  943.57   51.28
   0   1   8  971.62   59.68
   0  -1  -8 1122.75   88.69
   0  -1  -8 1282.52   74.04
   0  -1  -8  894.79   70.38
   0   1   925794.22  848.06
   0   1   923692.89  897.56
   0  -1  -924972.38  939.17
   0  -1  -923494.57  821.37
   0   1  10 6745.51  264.94
   0   1  10 6201.84  258.19
   0   1  10 6554.03  269.78
   0  -1 -10 6632.47  287.95
   0  -1 -10 6069.82  288.73
   0   1  11 1802.37  109.59
   0  -1 -11 1738.79  137.26
   0   1  12 4518.78  195.50
   0  -1 -12 4065.79  241.37
   0   1  13 2040.23  130.52
   0  -1 -13 2081.49  152.07
   0  -1 -13 1898.32  112.22
   0   1  14  965.19  100.71
   0  -1 -14 1172.74  126.12
   0  -1 -14  872.95   90.49
   0   1  15 5227.51  225.38
   0  -1 -15 4621.89  275.94
   0   1  16  613.32  106.91
   0  -1 -16  641.29  111.60
   0  -1 -16  698.52   94.44
   0   1  17 1069.17  117.07
   0  -1 -17  911.47   91.93
   0  -1 -17  791.05  104.57
   0   1  18  896.18  114.05
   0  -1 -18  810.72  113.42
   0  -1 -18  701.13   95.26
   0   2   0  114.57   33.35
   0   2   0  120.40   28.30
   0   2   0   30.03   25.72
   0  -2   0  118.76   26.49
   0  -2   0   32.53   18.59
   0  -2  -178620.75 2454.99
   0  -2  -172942.76 2698.34
   0   2   219648.93  640.82
   0   2   217440.68  640.37
   0   2   217775.23  727.76
   0  -2  -218700.56  618.73
   0  -2  -219208.43  634.68
   0  -2  -217464.17  725.91
   0   2   3  501.24   45.46
   0   2   3  466.04   41.84
   0   2   3  371.46   42.22
   0  -2  -3  516.48   40.61
   0  -2  -3  510.43   42.48
   0  -2  -3  311.98   44.41
   0   2   435142.55 1236.60
   0  -2  -433005.25 1135.99
   0  -2  -437349.96 1158.52
   0   2   432445.06 1293.51
   0  -2  -5 8981.42  343.05
   0   2   5 9228.02  382.40
   0   2   5 8947.65  353.93
   0  -2  -5 8902.14  334.74
   0   2   6 3526.60  162.85
   0   2   6 3430.04  150.77
   0  -2  -6 3235.78  137.58
   0  -2  -6 3910.31  170.94
   0   2   716038.66  539.81
   0   2   717421.81  559.49
   0   2   715196.13  588.74
   0   2   715314.53  628.86
   0  -2  -716607.25  599.95
   0  -2  -717482.84  690.25
   0   2   8 5958.97  219.87
   0   2   8 5616.04  209.35
   0   2   8 5767.35  237.47
   0  -2  -8 6610.60  256.88
   0  -2  -8 6696.38  281.76
   0   2   9 8564.57  336.17
   0   2   9 7897.69  294.74
   0  -2  -9 8495.83  341.61
   0   2  1016189.26  588.51
   0  -2 -1015149.75  559.18
   0   2  11 1504.76  101.91
   0   2  11 1115.40   61.02
   0  -2 -11 1284.54   95.23
   0  -2 -11 1336.39  102.67
   0   2  12  722.75   89.15
   0  -2 -12  655.29   79.63
   0  -2 -12  507.90   78.62
   0   2  13 2090.15  125.99
   0  -2 -13 2037.82  131.26
   0  -2 -13 1599.30  122.79
   0   2  14  180.35   82.52
   0  -2 -14  146.67   85.87
   0  -2 -14  117.64   78.62
   0   2  15 1795.97  110.86
   0  -2 -15 1626.11  125.81
   0  -2 -15 1460.36  127.41
   0   2  16 1912.49  135.03
   0  -2 -16 1748.16  123.05
   0  -2 -16 1574.42  115.45
   0   2  17  107.21   92.23
   0  -2 -17   62.27   71.32
   0  -2 -17  145.36   94.24
   0   3   028945.22 1042.02
   0   3   028836.53 1065.59
   0  -3   031216.54 1001.34
   0  -3   028030.61  989.77
   0   3   1 8598.78  326.78
   0   3   1 7753.00  300.49
   0   3   1 7373.25  341.03
   0  -3  -1 8534.45  326.09
   0  -3  -1 8320.75  304.65
   0   3   245066.99 1549.61
   0   3   247108.89 1569.68
   0  -3  -249978.66 1653.13
   0  -3  -242617.84 1544.90
   0   3   3 6291.18  256.77
   0   3   3 6024.04  226.32
   0   3   3 6145.16  272.38
   0  -3  -3 6155.54  247.86
   0  -3  -3 6627.15  225.46
   0  -3  -3 5646.27  260.68
   0   3   418702.90  657.08
   0   3   419068.24  676.71
   0  -3  -417766.74  707.36
   0   3   513187.19  467.00
   0   3   512153.01  605.50
   0  -3  -512889.30  515.54
   0  -3  -514669.64  485.29
   0   3   6 2088.86   98.20
   0   3   6 1787.12  106.71
   0  -3  -6 1979.08   93.92
   0  -3  -6 2129.42  112.61
   0   3   7 7875.59  341.85
   0  -3  -7 7824.23  296.00
   0  -3  -7 7919.01  343.31
   0   3   811776.64  439.81
   0  -3  -811171.37  415.08
   0   3   9  171.35   56.59
   0   3   9  174.89   36.62
   0  -3  -9  186.78   45.98
   0  -3  -9  179.15   70.02
   0   3  10 4119.08  181.51
   0   3  10 3384.13  149.87
   0  -3 -10 4119.80  184.41
   0   3  11 4041.81  183.26
   0  -3 -11 3685.50  175.20
   0  -3 -11 3645.78  177.30
   0   3  12   31.42   55.06
   0  -3 -12   59.59   73.84
   0   3  13 1364.10   99.12
   0  -3 -13 1460.27  102.86
   0  -3 -13 1040.58  108.67
   0   3  14 1275.12  100.14
   0  -3 -14 1469.06  122.69
   0   3  15    2.40   96.80
   0  -3 -15   -4.00   91.20
   0  -3 -15   30.11   97.90
   0   3  16 1383.88  128.12
   0  -3 -16 1528.97  136.41
   0  -3 -16 1283.63  138.16
   0   4   041022.78 1459.47
   0   4   042461.40 1540.98
   0   4   041282.32 1529.66
   0  -4   046625.38 1395.51
   0  -4   040162.15 1379.29
   0   4   1 5611.96  224.54
   0   4   1 5029.52  222.07
   0   4   1 5706.19  231.48
   0  -4  -1 6058.13  236.37
   0  -4  -1 5668.99  210.63
   0   4   225531.71  896.02
   0   4   222359.12  821.79
   0  -4  -225750.58  891.90
   0  -4  -224641.28  829.90
   0   4   3 7628.47  275.89
   0   4   3 6804.46  304.48
   0   4   3 6620.70  286.07
   0  -4  -3 7065.56  261.23
   0   4   4  235.66   52.54
   0  -4  -4  307.24   52.71
   0  -4  -4  226.11   32.75
   0   4   512497.93  474.32
   0  -4  -512361.30  493.20
   0   4   6 4331.41  172.31
   0  -4  -6 4231.13  186.82
   0   4   7  -63.54   62.43
   0  -4  -7   32.88   61.80
   0  -4  -7  -65.84   64.56
   0  -4  -8 6737.08  306.94
   0   4   8 6624.26  274.35
   0   4   9 8012.12  335.36
   0  -4  -9 8372.65  334.32
   0   4  10  377.93   66.96
   0  -4 -10  550.43   81.78
   0  -4 -10  388.47   83.92
   0   4  11 3035.12  160.25
   0  -4 -11 2833.63  174.98
   0  -4 -12  387.95   89.96
   0  -4 -12  478.71   92.59
   0   4  12  419.38   93.04
   0   4  13  393.72   93.39
   0  -4 -13  424.52   99.06
   0  -4 -13  312.34  108.77
   0   4  14  636.21   73.84
   0  -4 -14  873.22   96.03
   0  -4 -14  976.12  116.69
   0   4  15  250.18  100.05
   0  -4 -15  144.67  106.49
   0  -4 -15  198.01  117.25
   0   5   016974.39  591.87
   0  -5   016315.29  595.75
   0  -5   016549.45  599.42
   0   5   112716.26  464.77
   0  -5  -112003.47  448.92
   0   5   2   62.37   60.26
   0  -5  -2   70.82   50.84
   0   5   320551.22  738.06
   0  -5  -323019.36  762.82
   0   5   4 5504.16  220.82
   0  -5  -4 5976.28  232.50
   0   5   5  315.21   70.57
   0  -5  -5  418.76   66.94
   0  -5  -5   86.33   49.82
   0   5   7 1182.46   95.20
   0  -5  -7 1031.83   92.31
   0  -5  -7  908.07  105.99
   0   5   8 2033.10  129.55
   0  -5  -8 1958.12  125.41
   0   5   9 3864.72  178.98
   0  -5  -9 3683.40  207.73
   0   5  10  717.01  102.69
   0  -5 -10  771.54  107.83
   0  -5 -10  540.94   77.87
   0   5  11 1083.22  105.57
   0  -5 -11 1162.55  117.83
   0  -5 -11  658.16  101.09
   0   5  12 1098.67  115.83
   0  -5 -12 1122.97  128.76
   0  -5 -12  983.78  130.88
   0   5  13   36.95   68.24
   0  -5 -13  330.81   85.27
   0  -5 -13  211.27  171.16
   0   5  14  303.77  104.67
   0  -5 -14 -102.72   95.10
   0   6   0 4433.67  206.07
   0  -6   0 4523.84  195.88
   0   6   115784.46  590.04
   0   6   2 4918.41  213.51
   0  -6  -2 4800.76  197.96
   0   6   3 2317.36  139.72
   0   6   411082.09  429.37
   0  -6  -411270.39  428.71
   0   6   5  990.36   97.04
   0  -6  -5  632.30   80.59
   0   6   6 1108.89  102.55
   0  -6  -6 1299.47  110.52
   0   6   7 1589.21  112.72
   0  -6  -7 1659.25  121.28
   0  -6  -7 1291.20  153.08
   0   6   8   44.26   73.61
   0  -6  -8   42.36   73.61
   0  -6  -8  -46.07   97.93
   0   6   9 1201.53  121.84
   0  -6  -9 1264.46  117.41
   0  -6  -9 1070.15  130.12
   0   6  10 1309.36  114.81
   0  -6 -10 1357.08  126.17
   0  -6 -10 1341.36  130.26
   0   6  11   53.23  127.53
   0  -6 -11   59.99  116.76
   0  -6 -11   27.65  109.35
   0   6  12  500.73  113.39
   0  -6 -12  920.59  127.83
   0  -6 -12  281.61  125.54
   0   7   0  736.88   97.47
   0  -7   0  863.27   94.74
   0   7   1 3009.70  157.46
   0  -7  -1 2704.46  156.00
   0  -7  -2 6660.98  279.70
   0   7   3  -97.96   90.07
   0  -7  -3  151.62   90.72
   0   7   4 3353.05  170.66
   0  -7  -4 3350.73  154.43
   0   7   5 2519.69  160.11
   0  -7  -5 2563.58  151.56
   0   7   6   59.57   88.00
   0  -7  -6  -10.32   92.29
   0   7   7 1045.08  163.19
   0  -7  -7  999.89  109.12
   0   7   8  635.20  111.87
   0  -7  -8  774.04  112.85
   0   7   9 -104.99   97.19
   0  -7  -9  123.79  114.87
   0   7  10  581.70  132.98
   0   8   0 2145.34  148.14
   0  -8   0 2179.18  157.18
   0   8   1  -60.39   95.59
   0  -8  -1   45.38   81.87
   0   8   2 1820.71  136.67
   0  -8  -2 2230.09  157.41
   0   8   3 1992.37  136.08
   0  -8  -3 2087.86  148.59
   0   8   4  124.11   97.76
   0  -8  -4  181.46   98.57
   0   8   5  965.32  117.91
   0  -8  -5 1256.46  121.18
   0   8   6  357.15  100.23
   0  -8  -6  516.29  106.44
   0   8   7  108.09   99.68
   0  -8  -7  260.48  112.23
   0   9   0 1233.05  129.34
   0  -9   0 1174.12  129.97
   0   9   1  427.08  109.80
   0  -9  -1  366.28   96.04
   0   9   2  329.22  110.66
   0  -9  -2  208.52   97.88
   0   9   3  986.35  123.54
   0  -9  -3 1173.30  140.94
   1  -9   1 1369.16  124.02
  -1   9  -1 1472.50  135.57
   1  -9   2 2044.91  165.09
  -1   9  -2 1563.23  135.42
   1  -9   3  304.41  100.33
  -1   9  -3  117.84  100.79
  -1   9  -4 2380.09  180.03
   1  -9   5  981.23  117.61
  -1   9  -5 1064.07  124.26
   1  -9   6  617.92  110.88
  -1   9  -6  432.84  101.51
   1  -9   7 2885.88  207.96
  -1   9  -7 2687.35  198.08
   1  -9   8 1357.45  146.08
  -1   9  -8 1812.47  154.13
   1  -9   9  203.80  112.94
  -1   9  -9   65.44  108.81
   1  -9  10 3150.25  222.59
  -1   9 -10 2735.45  183.48
   1  -9  11  706.81  122.88
  -1   9 -11  659.27  106.09
   1  -8   1  298.97   96.69
  -1   8  -1  275.51   90.95
   1  -8   2 5014.66  268.20
  -1   8  -2 4562.45  251.43
   1  -8   3 1702.77  146.07
  -1   8  -3 1777.21  140.53
   1  -8   4 1681.27  139.59
  -1   8  -4 1848.76  132.02
   1  -8   5 3817.79  203.25
  -1   8  -5 3667.77  215.10
   1  -8   6  427.72   89.47
  -1   8  -6  531.08  111.24
   1  -8   7 1916.65  161.52
  -1   8  -7 2216.18  152.03
   1  -8   8 3936.24  290.69
  -1   8  -8 3932.55  210.30
   1  -8   9  595.88   80.04
  -1   8  -9  551.17  114.15
   1  -8  10 2461.82  168.47
   1  -8  11 3766.53  209.53
   1  -8  12  180.90  101.40
   1  -8  13 2186.37  147.19
  -1   8 -13 1987.57  141.74
   1  -8  14 1232.35  115.83
  -1   8 -14 1000.18  135.26
   1  -7   1  -28.31   69.17
   1  -7   2 5525.03  271.77
  -1   7  -2 5153.77  228.06
   1  -7   314748.50  581.44
  -1   7  -314680.20  559.06
  -1   7  -4 1618.86  108.41
   1  -7   5 8809.79  344.44
  -1   7  -5 8506.10  406.14
   1  -7   6 6443.75  274.82
  -1   7  -6 6491.88  290.26
   1  -7   7   83.23   73.70
  -1   7  -7  104.56   80.00
   1  -7   8 4512.16  247.59
  -1   7  -8 4374.48  205.94
   1  -7   9 2202.29  141.45
  -1   7  -9 2112.35  155.69
   1  -7  10  556.56   92.78
  -1   7 -10  479.20   95.81
   1  -7  11 6393.34  291.48
  -1   7 -11 6328.51  298.87
   1  -7  12 3410.60  206.62
  -1   7 -12 3524.10  201.32
   1  -7  13  732.24  106.18
  -1   7 -13  727.50  121.64
   1  -7  14 2425.69  163.18
  -1   7 -14 2575.04  188.37
   1  -7  15  618.64  114.08
  -1   7 -15  717.86  116.46
   1  -7  16  398.42  120.69
  -1   7 -16  301.58  115.79
  -1   6  -1 7914.94  287.47
   1  -6   2  477.63   91.57
  -1   6  -2  339.03   93.82
   1  -6   322313.92  839.17
  -1   6  -321644.06  803.14
   1  -6   5 1227.69   63.84
  -1   6  -5 1701.42  123.07
  -1   6  -5 1073.05   78.68
   1  -6   615937.43  628.97
  -1   6  -614970.55  566.94
   1  -6   7 5182.48  263.00
  -1   6  -7 5336.37  237.76
   1  -6   8  548.78   68.03
  -1   6  -8  493.49   51.38
   1  -6   9 6458.14  267.30
  -1   6  -9 6488.33  264.14
   1  -6  10 4112.96  172.71
  -1   6 -10 3260.65  160.98
   1  -6  11 3484.04  183.45
  -1   6 -11 3338.69  208.34
  -1   6 -11 3367.37  159.86
   1  -6  1211268.11  466.17
  -1   6 -1210908.13  480.66
   1  -6  13  335.69   86.55
  -1   6 -13  246.32   95.22
   1  -6  14 3132.28  189.10
  -1   6 -14 3058.17  181.19
   1  -6  15 2475.26  203.22
  -1   6 -15 2365.60  174.09
   1  -6  16  169.78   95.48
  -1   6 -16  126.02   93.72
  -1   6 -16  234.27   83.71
   1  -6  17 1103.60  121.46
  -1   6 -17 1156.34  134.56
  -1   5  -115972.89  527.75
  -1   5  -114545.08  603.69
   1  -5   210304.67  418.28
  -1   5  -210410.62  377.59
  -1   5  -2 9210.41  369.87
   1  -5   3 3493.05  164.07
  -1   5  -3 2660.48  144.69
  -1   5  -3 2918.29  151.22
  -1   5  -3 3457.30  142.07
  -1   5  -431705.60 1272.90
  -1   5  -431312.22 1136.23
   1  -5   5 7641.90  310.66
  -1   5  -5 8182.58  345.33
  -1   5  -5 6270.83  354.80
   1  -5   614161.45  575.19
  -1   5  -614416.75  556.17
   1  -5   720684.57  810.99
  -1   5  -721120.13  761.48
   1  -5   8 1769.65  108.91
  -1   5  -8 1768.21  110.67
   1  -5   9 3865.19  175.20
  -1   5  -9 3447.71  155.94
   1  -5  10 6512.99  270.08
  -1   5 -10 6111.40  312.01
  -1   5 -10 5749.61  244.28
   1  -5  11  409.31  105.12
  -1   5 -11  461.30   74.39
  -1   5 -11  278.72   37.32
  -1   5 -11  149.25   27.81
   1  -5  12 9510.09  373.10
  -1   5 -12 8761.86  424.38
   1  -5  1312121.88  509.87
  -1   5 -1312880.41  505.40
   1  -5  14  290.17  102.60
  -1   5 -14  154.67   85.33
  -1   5 -14   43.96   63.99
   1  -5  15 3338.42  175.59
  -1   5 -15 3137.36  208.74
  -1   5 -15 2621.42  160.19
   1  -5  16 2015.27  147.49
  -1   5 -16 2069.05  170.37
   1  -5  17   48.62  101.77
  -1   5 -17   38.73   96.75
   1  -5  18 1510.01  146.46
  -1   5 -18 1410.61  161.35
   1  -4   112515.27  421.19
   1  -4   111097.47  476.90
  -1   4  -111592.42  443.12
  -1   4  -110997.03  460.45
   1  -4   219372.08  672.82
   1  -4   216869.93  660.28
  -1   4  -217591.94  606.53
  -1   4  -217277.70  642.56
   1  -4   3 3980.94  171.42
  -1   4  -3 3921.82  210.12
  -1   4  -3 3897.52  182.29
   1  -4   421481.71  742.22
   1  -4   420044.51  753.67
  -1   4  -419773.27  785.03
  -1   4  -419697.38  809.86
   1  -4   530709.71 1076.09
   1  -4   530984.78 1172.50
  -1   4  -530828.84 1077.24
   1  -4   6 1641.24  105.82
   1  -4   6 2031.32  135.43
  -1   4  -6 2082.19  112.14
   1  -4   730204.99 1019.72
  -1   4  -729664.22 1099.50
  -1   4  -729333.73 1038.64
  -1   4  -820294.27  741.17
   1  -4   822873.50  738.46
  -1   4  -821948.01  872.04
  -1   4  -821432.12  791.08
   1  -4   9  159.15   85.08
  -1   4  -9  233.24   61.67
  -1   4  -9  256.73   30.11
   1  -4  10 8216.12  330.34
  -1   4 -10 8475.78  371.64
  -1   4 -10 7146.19  300.17
   1  -4  1112929.89  535.35
  -1   4 -1112681.51  514.74
   1  -4  12  874.30   80.10
  -1   4 -12  688.49   70.43
  -1   4 -12  637.53   65.23
  -1   4 -12  518.58   44.27
   1  -4  13 9962.54  392.47
  -1   4 -1310378.26  538.75
   1  -4  14 2500.22  144.34
  -1   4 -14 2382.50  152.70
   1  -4  15  964.90  100.31
  -1   4 -15  923.48  118.56
  -1   4 -15  868.90   74.10
   1  -4  16 3337.53  181.25
  -1   4 -16 3343.14  263.44
   1  -4  17  635.48  103.43
  -1   4 -17  794.56  126.88
   1  -4  18  215.24  108.85
  -1   4 -18  193.14   99.20
   1  -3   1 2726.50  127.39
   1  -3   1 2639.22  154.89
  -1   3  -1 2747.82  130.91
  -1   3  -1 2706.83  126.38
   1  -3   251936.62 1719.31
   1  -3   249220.02 1708.51
  -1   3  -246822.92 1657.74
   1  -3   345283.32 1405.60
   1  -3   339757.96 1425.55
  -1   3  -340683.50 1517.23
  -1   3  -338818.04 1608.76
   1  -3   4 2014.40  109.81
   1  -3   4 1906.35  144.61
  -1   3  -4 1849.22  104.18
  -1   3  -4 1856.85  111.81
   1  -3   538123.43 1329.69
   1  -3   537235.55 1353.26
  -1   3  -535531.73 1283.29
   1  -3   620994.24  834.01
   1  -3   621308.16  741.92
  -1   3  -619359.54  743.44
   1  -3   710449.95  421.49
   1  -3   711260.33  410.32
  -1   3  -711136.04  457.35
  -1   3  -7 9689.52  380.26
   1  -3   820459.56  690.77
  -1   3  -819902.13  751.73
  -1   3  -818682.95  700.38
   1  -3   9 6125.15  255.06
  -1   3  -9 6137.58  242.96
  -1   3  -9 5251.12  274.01
   1  -3  10 4931.84  258.06
  -1   3 -10 4499.09  194.64
   1  -3  1113224.86  486.25
  -1   3 -1113146.21  501.33
   1  -3  1210078.86  380.66
  -1   3 -1210265.69  410.07
   1  -3  13 1354.62  109.76
  -1   3 -13 1224.76  111.86
  -1   3 -13  891.37   72.59
  -1   3 -14 7027.04  277.79
  -1   3 -14 7210.91  317.88
   1  -3  15  324.24   83.17
  -1   3 -15  283.16   91.39
  -1   3 -15  370.06  130.82
   1  -3  16 1803.54  124.93
  -1   3 -16 1442.75  135.96
   1  -3  17 2462.62  170.53
  -1   3 -17 2381.45  185.03
   1  -3  18  -19.23   85.22
  -1   3 -18   18.90   92.88
   1  -3  19  627.56  104.38
  -1   3 -19  497.32  112.94
   1  -2   153079.30 1694.18
   1  -2   145914.02 1712.39
  -1   2  -148996.52 1660.66
  -1   2  -147902.59 1652.40
   1  -2   2  164.58   32.87
   1  -2   2  168.18   72.72
   1  -2   2  135.17   16.59
  -1   2  -2  146.39   41.77
  -1   2  -2   77.12   20.29
   1  -2   358412.79 1935.44
   1  -2   349832.40 2002.63
  -1   2  -352892.27 1791.11
  -1   2  -353122.30 1799.43
   1  -2   417680.83  629.67
   1  -2   416025.97  582.45
  -1   2  -416487.43  616.02
  -1   2  -416473.41  634.70
   1  -2   5 6197.37  299.78
  -1   2  -5 5811.38  283.09
   1  -2   647545.15 1589.13
   1  -2   647926.14 1692.04
  -1   2  -648849.74 1618.90
  -1   2  -644230.20 1633.54
   1  -2   712698.92  469.59
   1  -2   713083.85  506.68
  -1   2  -713314.30  457.66
  -1   2  -712024.98  457.68
   1  -2   813485.15  512.66
   1  -2   814187.41  549.53
  -1   2  -813526.13  507.33
  -1   2  -813371.62  493.33
   1  -2   913527.05  463.90
   1  -2   913061.54  479.35
  -1   2  -912796.48  502.22
  -1   2  -913438.00  482.93
   1  -2  10 2126.57  122.96
   1  -2  10 1815.91   80.00
  -1   2 -10 1836.10  122.23
  -1   2 -10 1583.21   95.74
  -1   2 -10 1429.22   98.56
   1  -2  11 5808.77  234.95
   1  -2  11 4855.31  192.69
  -1   2 -11 5086.60  289.99
   1  -2  1214636.04  500.64
   1  -2  1212672.25  467.34
  -1   2 -1214337.84  616.90
   1  -2  13  139.55   75.60
   1  -2  13  397.31   58.40
  -1   2 -13  250.41  109.71
  -1   2 -13  123.31   35.80
  -1   2 -13  130.54   53.59
   1  -2  14 5721.48  245.64
  -1   2 -14 6031.06  292.50
   1  -2  15 4164.28  200.12
  -1   2 -15 3914.75  216.41
   1  -2  16   62.28   87.41
  -1   2 -16  358.25   85.97
   1  -2  17 1272.03  130.09
  -1   2 -17 1374.25  118.21
   1  -2  18  667.24  105.12
  -1   2 -18  729.23  134.27
   1  -2  19   35.63   78.41
  -1   2 -19 -106.40   97.02
   1  -1   2 6822.53  266.99
  -1   1  -2 7414.35  266.52
   1  -1   311513.75  419.80
  -1   1  -311758.77  434.86
  -1   1  -310687.29  432.51
   1  -1   440006.66 1377.77
  -1   1  -441756.61 1367.41
  -1   1  -438375.26 1358.81
   1  -1   5 3078.56  170.82
   1  -1   5 3439.82  161.54
  -1   1  -5 3314.76  166.76
  -1   1  -5 3214.27  139.69
   1  -1   624657.20  992.54
   1  -1   623720.94  871.31
  -1   1  -622696.56  885.48
  -1   1  -623858.30  826.20
   1  -1   747309.87 1712.67
   1  -1   748850.32 1627.05
  -1   1  -747546.73 1713.16
  -1   1  -746283.04 1557.83
   1  -1   8  988.15   71.91
   1  -1   8 1070.22   64.71
   1  -1   8 1159.00   59.07
  -1   1  -8 1230.08   99.92
  -1   1  -8 1201.08  106.05
  -1   1  -8  845.18   61.50
   1  -1   912894.92  446.58
   1  -1   911899.88  440.43
  -1   1  -911658.58  539.84
  -1   1  -912851.61  482.75
   1  -1  10 5662.73  215.13
   1  -1  10 5350.59  211.60
  -1   1 -10 5540.88  278.10
  -1   1 -10 5345.63  247.40
   1  -1  11  384.98  118.83
   1  -1  11  257.99   49.24
  -1   1 -11  606.40  130.48
  -1   1 -11  335.09   65.07
  -1   1 -11  234.61   49.08
   1  -1  12 5521.56  223.64
   1  -1  12 4799.09  253.89
  -1   1 -12 5412.93  229.75
  -1   1 -12 4219.98  178.12
   1  -1  13 5785.98  247.27
  -1   1 -13 6068.65  283.55
  -1   1 -13 4701.98  204.02
   1  -1  14  692.44  104.63
  -1   1 -14  579.80  121.53
  -1   1 -14  353.07   47.52
  -1   1 -14  398.96   82.75
   1  -1  15 5667.25  246.92
  -1   1 -15 6041.10  262.40
   1  -1  16  767.13  107.34
  -1   1 -16  706.58  102.09
   1  -1  17  618.62  100.73
  -1   1 -17  504.37   98.82
   1  -1  18 1206.21  118.34
  -1   1 -18 1244.77  113.34
   1   0   0  427.67   15.02
  -1   0   0  406.58   23.79
  -1   0   0  411.58   28.40
   1   0   118582.12  649.62
   1   0   120927.67  758.24
  -1   0  -119312.07  679.30
   1   0   235819.94 1136.11
   1   0   231962.61 1113.19
   1   0   231080.35 1189.39
  -1   0  -234125.02 1182.69
  -1   0  -234810.28 1125.99
   1   0   3 1786.17   76.92
   1   0   3 1643.78   79.26
   1   0   3 1376.69   79.45
   1   0   3 1707.73   76.50
  -1   0  -3 1542.88   80.74
  -1   0  -3 1710.77   76.35
  -1   0  -3 1685.15   74.62
   1   0   415982.81  566.73
   1   0   415299.96  527.93
   1   0   412489.80  516.35
   1   0   413757.16  543.47
  -1   0  -414691.63  557.11
  -1   0  -415869.69  531.53
  -1   0  -414493.75  544.67
   1   0   538166.76 1283.94
   1   0   536715.34 1223.37
   1   0   533283.11 1300.09
  -1   0  -539175.82 1294.72
  -1   0  -537649.73 1232.73
  -1   0  -533723.49 1317.00
   1   0   6  626.58   50.85
   1   0   6 1102.60  143.81
   1   0   6  514.84   44.88
   1   0   6  612.32   57.30
  -1   0  -6  606.28   60.82
  -1   0  -6  612.60   62.44
  -1   0  -6  411.35   54.68
   1   0   735574.06 1241.40
   1   0   733911.72 1215.23
  -1   0  -733236.75 1163.67
  -1   0  -735201.45 1232.50
   1   0   811346.06  430.98
   1   0   811030.76  436.28
   1   0   8 9479.07  404.35
   1   0   810000.88  397.68
  -1   0  -811004.78  392.17
  -1   0  -811134.05  447.21
   1   0   9 4661.11  189.40
   1   0   9 4331.54  218.79
   1   0   9 4094.51  179.69
  -1   0  -9 5069.64  184.67
  -1   0  -9 4964.01  265.26
  -1   0  -9 3882.11  191.76
   1   0  1011663.12  392.67
   1   0  1010884.04  429.90
  -1   0 -1010991.09  379.23
  -1   0 -1011391.74  474.42
  -1   0 -10 9324.92  387.03
   1   0  11 1461.54   88.51
   1   0  11 1085.30   62.79
  -1   0 -11 1189.29   85.66
  -1   0 -11 1026.50   69.59
   1   0  12  359.78   46.53
  -1   0 -12  186.73   58.09
   1   0  13 4946.70  227.75
  -1   0 -13 5169.68  229.64
   1   0  14  860.71   75.87
  -1   0 -14  869.77  118.30
  -1   0 -14  803.26   72.39
   1   0  15 1771.97  123.00
  -1   0 -15 1749.40  133.85
  -1   0 -15 1444.61  104.82
   1   0  16 3387.16  163.14
  -1   0 -16 2736.79  174.94
  -1   0 -16 2507.72  153.64
   1   0  17  155.31   90.02
  -1   0 -17   19.59  102.46
   1   0  18  736.19   99.23
  -1   0 -18  350.41  104.57
   1   1   140008.24 1322.13
   1   1   140526.17 1325.59
  -1  -1  -138971.49 1328.75
  -1  -1  -138934.18 1320.96
   1   1   267647.16 2216.96
  -1  -1  -262797.18 2145.66
   1   1   315951.59  550.60
   1   1   315366.36  523.91
   1   1   316172.59  599.38
  -1  -1  -314615.67  537.24
  -1  -1  -314842.64  570.00
  -1  -1  -314841.28  584.56
   1   1   419035.48  640.04
   1   1   418265.12  598.73
   1   1   416070.55  622.30
   1   1   418155.30  708.69
  -1  -1  -417063.40  652.28
  -1  -1  -419800.30  735.55
  -1  -1  -417247.53  688.12
   1   1   526754.96  982.72
   1   1   528156.88  901.13
   1   1   523471.59  889.21
   1   1   527173.17  950.86
  -1  -1  -526960.67 1063.41
  -1  -1  -527865.81 1025.21
  -1  -1  -524065.03  971.89
   1   1   6 4457.47  243.31
   1   1   6 4581.94  175.85
   1   1   6 3980.01  172.59
   1   1   6 4119.88  165.19
  -1  -1  -6 4206.49  221.41
  -1  -1  -6 4627.50  194.90
  -1  -1  -6 3806.17  176.47
   1   1   7 4146.33  158.41
   1   1   7 3347.03  165.96
  -1  -1  -7 4062.69  213.03
   1   1   819694.67  656.24
   1   1   818588.46  709.30
   1   1   818629.83  729.20
  -1  -1  -820766.36  782.10
  -1  -1  -821637.65  708.23
   1   1   9 2158.05  105.61
   1   1   9 2116.86   95.87
   1   1   9 2298.18  114.80
  -1  -1  -9 2423.55  147.70
   1   1  10 5219.42  223.89
  -1  -1 -10 5066.96  290.70
  -1  -1 -10 4938.02  227.13
   1   1  11 4765.61  234.80
   1   1  11 4438.87  219.11
  -1  -1 -11 3708.31  182.90
   1   1  12  391.42   80.67
   1   1  12  179.11   35.98
  -1  -1 -12  113.29   52.85
  -1  -1 -12  156.64   58.18
   1   1  13 1904.82  127.55
  -1  -1 -13 2073.67  145.84
   1   1  14 3536.24  169.05
  -1  -1 -14 3268.15  201.33
  -1  -1 -14 2909.25  152.43
   1   1  15  215.12   99.68
  -1  -1 -15  229.95   96.21
  -1  -1 -15   90.70   69.26
   1   1  16 1849.09  108.46
  -1  -1 -16 1832.53  146.18
  -1  -1 -16 1457.85  117.73
   1   1  17  856.56  110.32
  -1  -1 -17  881.56  110.79
   1   2   111297.39  417.67
   1   2   110032.13  374.76
   1   2   111954.90  469.65
  -1  -2  -110636.65  427.86
  -1  -2  -111142.89  391.71
   1   2   211117.18  391.16
   1   2   210564.18  380.44
   1   2   210616.75  439.80
  -1  -2  -210436.49  387.18
  -1  -2  -211519.24  388.51
   1   2   332226.43 1033.25
   1   2   332095.77 1013.77
   1   2   333459.10 1193.09
  -1  -2  -331008.51 1056.96
  -1  -2  -330554.33 1174.92
   1   2   4 1751.62  127.19
   1   2   4 1907.19  110.76
  -1  -2  -4 1547.69   75.07
  -1  -2  -4 1917.74   88.35
   1   2   510471.85  410.52
   1   2   511110.52  417.40
  -1  -2  -510860.16  379.83
  -1  -2  -511396.28  422.65
   1   2   614366.00  507.45
   1   2   615364.87  557.75
   1   2   613527.01  525.10
   1   2   614488.71  566.24
  -1  -2  -615429.74  501.43
  -1  -2  -616323.35  584.01
   1   2   7  727.63   84.24
   1   2   7 1292.67  113.93
   1   2   7  777.17   66.09
  -1  -2  -7  766.30   73.25
   1   2   814438.11  486.60
   1   2   812810.40  500.41
  -1  -2  -814400.62  490.46
  -1  -2  -814407.13  581.96
   1   2   910236.58  391.68
   1   2   9 8752.81  363.19
  -1  -2  -910625.02  391.41
  -1  -2  -910069.86  407.63
   1   2  10  216.06   46.10
  -1  -2 -10  345.66   69.31
  -1  -2 -10  132.80   56.62
   1   2  11 4675.27  188.98
   1   2  11 3725.42  157.31
  -1  -2 -11 4368.93  204.71
   1   2  12 2416.23  129.15
  -1  -2 -12 2602.54  152.87
   1   2  13  325.83   90.53
  -1  -2 -13  232.26   94.40
  -1  -2 -13   -3.14   71.94
   1   2  14 1866.87  126.58
  -1  -2 -14 1980.71  120.88
   1   2  15 1242.23  122.99
  -1  -2 -15  978.03  108.12
  -1  -2 -15  871.31  106.27
   1   2  16  352.68   93.05
  -1  -2 -16  299.94   95.10
  -1  -2 -16  169.09  102.46
   1   2  17  770.68  116.29
  -1  -2 -17  810.78  119.59
   1   3   033010.29 1181.52
  -1  -3   035561.56 1151.86
  -1  -3   033389.59 1153.82
   1   3   159612.92 2027.58
  -1  -3  -159459.02 2007.99
  -1  -3  -159346.00 1980.66
   1   3   2 3772.63  183.20
   1   3   2 3702.45  206.49
  -1  -3  -2 4065.75  188.78
  -1  -3  -2 3880.24  179.01
   1   3   328215.11  961.61
   1   3   327310.66  995.77
  -1  -3  -327241.21  970.05
  -1  -3  -331313.12  949.63
   1   3   421162.55  746.53
   1   3   419037.92  722.07
   1   3   420293.49  781.21
  -1  -3  -421458.33  791.30
  -1  -3  -422911.54  699.96
   1   3   5  948.12   65.60
   1   3   5 1040.39   84.86
  -1  -3  -5 1039.96   71.19
  -1  -3  -5 1209.15   79.63
  -1  -3  -5  798.00   72.64
   1   3   6 6245.90  262.55
  -1  -3  -6 6552.98  260.07
  -1  -3  -6 6788.83  273.38
   1   3   7 4908.72  219.30
   1   3   7 4529.32  197.52
  -1  -3  -7 5066.79  197.92
  -1  -3  -7 4583.92  231.69
   1   3   8  852.55  105.66
  -1  -3  -8 1050.82   97.65
   1   3   910549.53  399.37
   1   3   9 9870.53  357.65
  -1  -3  -910477.81  385.48
   1   3  10 1881.24  133.15
   1   3  10 1389.59   92.54
  -1  -3 -10 1914.41  122.91
   1   3  11 2309.22  132.62
  -1  -3 -11 1941.65  116.67
   1   3  12 3130.89  156.58
  -1  -3 -12 2898.03  153.38
   1   3  13  982.05  104.12
  -1  -3 -13 1055.75  112.28
  -1  -3 -13  593.28   94.77
   1   3  14  124.24   94.24
  -1  -3 -14  529.74  105.95
  -1  -3 -14  175.00   86.05
   1   3  15  791.27  103.37
  -1  -3 -15 1065.52   96.86
  -1  -3 -15  713.50  111.07
   1   3  16  229.38  105.35
   1   4   0 1299.68  178.82
   1   4   0  962.39   71.91
  -1  -4   0 1018.12   63.16
  -1  -4   0 1121.01   99.36
   1   4   118880.49  705.55
   1   4   118267.94  751.11
  -1  -4  -121650.68  700.71
  -1  -4  -119876.68  703.91
   1   4   119499.06  723.41
   1   4   219154.22  636.57
   1   4   216511.38  642.36
   1   4   216799.04  647.64
  -1  -4  -218812.49  630.60
   1   4   3 2078.57  120.93
  -1  -4  -3 2206.01  122.46
  -1  -4  -3 2195.25  108.36
   1   4   421953.82  756.09
  -1  -4  -421526.65  761.80
  -1  -4  -424155.24  755.82
   1   4   5 2951.40  139.69
  -1  -4  -5 2830.18  128.65
  -1  -4  -5 3337.66  144.58
   1   4   6 1228.13  141.05
  -1  -4  -6 1339.84  107.44
   1   4   7 8141.80  317.88
  -1  -4  -7 8229.97  349.68
   1   4   8 1205.62   95.32
   1   4   8 1265.77   99.25
  -1  -4  -8 1525.54   90.81
  -1  -4  -8 1050.47   98.64
   1   4   9 1715.39  138.23
  -1  -4  -9 1868.25  125.87
   1   4  10 3340.09  164.75
  -1  -4 -10 3784.29  197.38
   1   4  11  197.95   77.81
  -1  -4 -11  256.97   89.43
  -1  -4 -11  212.56   60.23
   1   4  12  612.07   80.16
  -1  -4 -12  825.01  103.12
  -1  -4 -12  662.45   99.70
   1   4  13  581.66  101.71
  -1  -4 -13  687.93   99.44
  -1  -4 -13  485.80  105.17
   1   4  14  158.18   99.91
  -1  -4 -14   89.78   90.76
  -1  -4 -14  238.28   93.48
   1   5   0 9287.67  345.44
  -1  -5   0 9493.26  345.99
  -1  -5   0 9556.74  359.98
   1   5   1 2871.53  193.45
  -1  -5  -1 2585.14  125.32
  -1  -5  -1 2949.25  154.83
   1   5   214904.28  548.84
  -1  -5  -214475.24  516.22
  -1  -5  -214653.70  540.79
   1   5   3 2308.97  153.24
  -1  -5  -3 2315.25  178.52
   1   5   4 4725.14  213.54
  -1  -5  -4 4925.62  225.42
   1   5   5 6942.43  267.24
  -1  -5  -5 6869.75  274.05
   1   5   6   27.42   81.29
  -1  -5  -6  234.58   75.85
   1   5   7 1480.02  127.24
  -1  -5  -7 1459.87  122.60
   1   5   8 3228.07  170.79
  -1  -5  -8 3314.67  191.48
   1   5   9  415.65   90.17
  -1  -5  -9  398.37   86.46
   1   5  10 1502.21  115.96
  -1  -5 -10 1624.71  123.79
   1   5  11 1108.53  112.76
  -1  -5 -11  884.20  115.64
   1   5  12   74.15   71.20
  -1  -5 -12   82.17   71.37
   1   5  13  533.80  105.07
  -1  -5 -13  536.93  112.44
   1   6   0 7456.94  293.97
  -1  -6   0 7626.40  310.36
   1   6   1  390.77  105.83
  -1  -6  -1  476.72  104.85
   1   6   2 5947.32  273.73
  -1  -6  -2 5785.73  251.88
   1   6   3 5769.12  274.60
  -1  -6  -3 6310.58  257.49
   1   6   4  203.72   92.36
  -1  -6  -4   13.82   79.02
   1   6   5 2921.23  163.85
  -1  -6  -5 3146.22  160.61
   1   6   6 1745.68   98.96
  -1  -6  -6 1875.59  120.01
   1   6   7  259.55   90.33
  -1  -6  -7  191.57   89.36
   1   6   8 1544.50  119.59
  -1  -6  -8 1362.66  112.46
   1   6   9 1010.12  110.80
  -1  -6  -9 1001.76  111.28
   1   6  10  259.42  107.25
  -1  -6 -10  -80.64   93.78
   1   6  11  532.70   87.07
   1   7   0 1967.83  126.10
  -1  -7   0 1868.89  138.87
   1   7   1  914.07   97.07
  -1  -7  -1 1094.90   95.67
   1   7   2  172.83   98.42
  -1  -7  -2  227.05   97.44
   1   7   3 4163.18  209.76
  -1  -7  -3 4492.22  205.01
   1   7   4 1755.92  120.64
  -1  -7  -4 1594.86  127.52
   1   7   5  337.60   89.16
  -1  -7  -5  263.84   83.33
   1   7   6 1294.79   95.26
  -1  -7  -6 1520.06  110.96
   1   7   7  170.06   67.32
  -1  -7  -7  185.68   68.45
   1   7   8  223.44  108.83
  -1  -7  -8  315.83   98.36
   1   7   9  370.39  102.36
  -1  -7  -9  520.27  106.75
   1   8   0  288.42   95.34
  -1  -8   0  566.37   97.19
   1   8   1 2179.74  154.13
  -1  -8  -1 2336.72  166.93
   1   8   2  586.02   98.83
  -1  -8  -2  807.39  101.51
   1   8   3  448.41   98.12
  -1  -8  -3  538.21  102.69
   1   8   4 1466.47  112.84
  -1  -8  -4 1820.50  110.98
   1   8   5  136.76   94.62
  -1  -8  -5  205.87  106.41
   1   8   6  209.47   93.47
  -1  -8  -6  223.17   96.21
   1   9   0 -130.15   92.02
  -1  -9   0  113.60   94.94
   1   9   1  400.23   92.92
  -1  -9  -1  358.74  108.80
   1   9   2  460.71  107.78
  -1  -9  -2  667.29  115.10
   2  -9   1  480.45   96.35
  -2   9  -1  916.03  134.38
  -2   9  -2  629.44  104.25
   2  -9   3 3602.88  190.89
  -2   9  -3 3138.72  232.60
   2  -9   4  703.13  112.38
  -2   9  -4  651.70  126.19
   2  -9   5 1213.46  124.92
  -2   9  -5  996.56  138.54
   2  -9   6 2301.37  157.60
  -2   9  -6 2355.44  175.43
   2  -9   7  369.29  100.83
  -2   9  -7  392.28  109.55
   2  -9   8  750.06  128.87
  -2   9  -8  858.38  135.40
   2  -9   9 2058.52  157.03
   2  -9  10   19.06   95.80
   2  -9  11 1705.05  123.81
  -2   8  -1 3763.39  211.51
  -2   8  -2  325.27   99.30
  -2   8  -3 2467.79  183.10
   2  -8   5   53.47   84.28
   2  -8   6 3913.23  213.65
  -2   8  -6 3774.95  213.57
   2  -8   7 2798.32  152.78
  -2   8  -7 2431.79  169.35
   2  -8   8   56.19   87.98
  -2   8  -8   89.74   90.39
   2  -8   9 3130.82  181.08
  -2   8  -9 3054.83  204.98
   2  -8  10 2201.45  147.63
  -2   8 -10 2314.44  176.38
  -2   8 -11  374.16  105.40
   2  -8  12 2775.09  172.99
  -2   8 -12 3054.31  222.97
   2  -8  13  724.72  101.87
  -2   8 -13  711.27  127.17
   2  -7   1 5267.45  241.67
  -2   7  -1 5297.34  237.40
   2  -7   2 8264.19  366.85
   2  -7   3 1168.39  118.12
  -2   7  -3 1223.01  111.08
   2  -7   4 7532.10  304.97
  -2   7  -4 7593.50  371.16
   2  -7   5 3114.40  168.18
  -2   7  -5 2971.18  155.41
   2  -7   6 1305.28  102.96
  -2   7  -6 1351.72  111.37
   2  -7   7 6650.17  346.95
   2  -7   8 3125.21  182.57
  -2   7  -8 2985.41  172.05
   2  -7   9  229.13   80.30
  -2   7  -9  338.22   91.58
   2  -7  10 7174.65  328.21
   2  -7  11 1267.43  116.62
  -2   7 -11 1338.85  127.30
   2  -7  12 2452.05  148.93
  -2   7 -12 2176.65  189.10
   2  -7  13 3591.24  207.02
  -2   7 -13 3119.81  229.26
   2  -7  14   34.51   74.09
  -2   7 -14  257.57  100.38
  -2   7 -14  204.02  101.78
   2  -7  15  787.39  106.52
  -2   7 -15  640.26  116.46
  -2   7 -15  620.52  102.74
   2  -6   1  121.23   49.12
  -2   6  -1  100.89   76.15
   2  -6   2 4479.58  218.52
  -2   6  -2 4491.88  191.16
   2  -6   3 4748.16  215.11
  -2   6  -3 4306.68  228.76
   2  -6   513178.69  544.83
  -2   6  -516116.11  583.15
   2  -6   6  529.38   80.56
   2  -6   6  469.22   45.73
  -2   6  -6  685.35   92.78
   2  -6   7 6152.33  285.26
   2  -6   7 4674.56  222.58
  -2   6  -7 5915.66  251.32
   2  -6   9  821.71   92.11
  -2   6  -9  795.88  106.53
   2  -6  10 3137.42  169.09
   2  -6  11 7033.30  290.99
  -2   6 -11 6321.50  364.60
   2  -6  12   41.15   81.66
  -2   6 -12  121.86   85.00
   2  -6  13 3704.79  196.07
  -2   6 -13 3661.92  195.56
   2  -6  14 1634.76  135.96
  -2   6 -14 1758.06  132.05
  -2   6 -14 1440.67  131.13
   2  -6  15  177.48   97.40
  -2   6 -15 -138.56   94.51
  -2   6 -15  -47.09   73.62
   2  -6  16 1171.53  122.58
  -2   6 -16 1117.62  124.97
  -2   6 -16  679.08  101.52
   2  -5   1 3349.45  176.10
   2  -5   1 2702.36  119.52
  -2   5  -1 3476.67  144.36
  -2   5  -1 3080.78  154.15
   2  -5   2 4318.97  182.21
   2  -5   2 3223.21  151.95
   2  -5   2 3441.26  152.00
  -2   5  -2 4423.82  176.43
  -2   5  -2 3988.77  170.02
   2  -5   319579.80  682.42
  -2   5  -319457.14  747.74
  -2   5  -317881.28  674.84
   2  -5   4  600.81   67.36
   2  -5   4  473.17   43.67
  -2   5  -4  576.14   67.71
   2  -5   513423.59  506.85
  -2   5  -513086.21  513.04
  -2   5  -510765.77  533.48
   2  -5   613701.19  619.79
  -2   5  -614079.32  477.89
  -2   5  -612084.86  593.59
   2  -5   7  135.88   60.27
  -2   5  -7  193.89   67.87
  -2   5  -7   54.09   22.42
   2  -5   8 8336.14  317.45
  -2   5  -8 8330.14  320.62
   2  -5   9 4085.67  173.54
  -2   5  -9 4238.08  232.11
  -2   5  -9 3536.79  147.90
   2  -5  10  188.89   63.88
  -2   5 -10  191.60   76.01
   2  -5  11 9805.69  405.41
  -2   5 -11 9521.40  441.88
   2  -5  12 5099.14  257.51
  -2   5 -12 5504.60  252.27
   2  -5  13 1036.56   98.68
  -2   5 -13 1067.96  108.97
  -2   5 -13  896.98   97.43
   2  -5  14 4064.88  212.49
  -2   5 -14 4381.81  241.82
   2  -5  15  615.98   98.53
  -2   5 -15  643.50  110.09
  -2   5 -15  436.12   72.89
   2  -5  16  409.02  128.73
  -2   5 -16  404.45  105.84
  -2   5 -16  211.40   68.11
   2  -5  17 1434.63  154.35
  -2   5 -17 1302.22  151.69
   2  -4   126181.12  877.38
  -2   4  -124461.68  917.21
   2  -4   2  111.85   47.82
   2  -4   2   92.98   58.63
   2  -4   2   27.37   31.70
   2  -4   2   60.98   37.42
  -2   4  -2  156.94   33.97
   2  -4   315971.50  621.06
   2  -4   315452.14  556.73
  -2   4  -315184.73  630.67
  -2   4  -314694.59  581.97
   2  -4   411466.80  455.44
   2  -4   412338.26  465.76
  -2   4  -412347.77  476.43
  -2   4  -412327.20  517.61
   2  -4   5 2148.36  132.07
  -2   4  -5 2356.35  112.19
  -2   4  -5 1933.81  144.76
   2  -4   644100.27 1516.14
  -2   4  -643552.82 1501.12
   2  -4   7 6622.36  258.09
  -2   4  -7 7002.31  287.41
  -2   4  -7 6263.64  259.87
  -2   4  -7 5973.30  222.78
   2  -4   8 1899.58  109.60
  -2   4  -8 1870.70  134.86
  -2   4  -8 1727.48  103.89
   2  -4   9 9690.98  362.04
  -2   4  -9 8181.14  391.26
  -2   4  -9 8100.70  348.72
   2  -4  10 2362.39  132.36
  -2   4 -10 2538.53  144.63
   2  -4  11  455.83   65.05
  -2   4 -11  483.81   60.05
  -2   4 -11  402.82   65.31
   2  -4  12 6172.79  261.00
  -2   4 -12 6361.39  266.15
   2  -4  13  663.50   88.26
  -2   4 -13  558.00   93.79
  -2   4 -13  525.85   69.64
   2  -4  14 5054.07  221.34
  -2   4 -14 4800.45  278.33
   2  -4  15 3743.59  171.43
  -2   4 -15 3390.48  217.95
  -2   4 -15 3026.45  166.98
   2  -4  16  176.58   87.31
  -2   4 -16  224.37   95.58
   2  -4  17 1174.08  115.61
  -2   4 -17  901.98  120.14
   2  -4  18  842.32  118.88
  -2   4 -18 1009.61   95.71
   2  -3   138272.92 1202.08
  -2   3  -133129.81 1198.84
  -2   3  -133978.14 1202.42
   2  -3   2 9430.67  362.30
   2  -3   2 8521.96  334.38
  -2   3  -2 8586.66  367.73
  -2   3  -2 8279.19  347.47
   2  -3   3 4784.74  203.50
   2  -3   3 3666.24  182.43
   2  -3   3 3826.94  168.76
  -2   3  -3 4673.30  212.44
  -2   3  -3 4512.52  245.46
   2  -3   432964.18 1030.07
   2  -3   429034.32 1139.75
  -2   3  -430399.28 1065.81
  -2   3  -428248.33 1129.10
   2  -3   5 2083.03  120.33
   2  -3   5 2125.22  108.98
  -2   3  -5 2120.39  107.37
   2  -3   6 7675.87  350.73
   2  -3   6 7323.83  272.13
  -2   3  -6 7132.67  329.06
  -2   3  -6 7585.17  289.42
   2  -3   741879.57 1445.71
  -2   3  -741878.48 1533.99
   2  -3   8 1595.07  100.69
  -2   3  -8 1725.62  104.13
  -2   3  -8 1633.78  121.61
   2  -3   9 5120.44  254.69
  -2   3  -9 5757.26  222.90
  -2   3  -9 5063.73  291.02
   2  -3  10 8445.48  330.04
  -2   3 -10 8354.49  306.08
  -2   3 -10 6743.98  356.93
   2  -3  11 1825.04  117.71
  -2   3 -11 1610.06  123.84
  -2   3 -11 1349.54   99.35
   2  -3  12 9122.80  331.06
  -2   3 -12 8597.93  444.79
   2  -3  13 4342.42  206.04
  -2   3 -13 4080.40  254.39
   2  -3  14  344.55   79.22
  -2   3 -14  320.91  103.68
  -2   3 -14  398.28   70.50
   2  -3  15 3906.31  169.84
  -2   3 -15 3572.59  215.33
  -2   3 -15 3001.03  156.03
   2  -3  16 1761.52  128.09
  -2   3 -16 1685.88  133.32
   2  -3  17  -11.49   87.16
  -2   3 -17   74.69   66.64
   2  -3  18  659.92  102.11
  -2   3 -18  776.00  127.75
   2  -2   117240.50  598.85
  -2   2  -114985.38  649.29
  -2   2  -118765.93  702.48
  -2   2  -246899.34 1604.61
  -2   2  -243830.30 1745.06
   2  -2   3  118.17   26.98
   2  -2   3   86.25   28.32
   2  -2   3   58.95   33.40
   2  -2   3   64.06   12.06
  -2   2  -3   52.08   30.60
  -2   2  -3  102.32   29.27
  -2   2  -3  -44.16   42.51
  -2   2  -3   99.58   14.11
   2  -2   416347.56  618.26
   2  -2   415445.11  562.54
  -2   2  -414669.31  588.00
   2  -2   553879.85 1771.03
  -2   2  -554044.54 1873.18
  -2   2  -553080.94 1909.62
   2  -2   6  783.49   58.20
  -2   2  -6  774.14   55.31
  -2   2  -6  755.37   60.46
  -2   2  -6  564.81   55.95
   2  -2   733389.22 1187.18
  -2   2  -733920.84 1165.60
  -2   2  -734020.34 1174.27
   2  -2   810626.39  394.33
  -2   2  -810262.47  390.57
  -2   2  -811117.43  388.23
   2  -2   9  637.82   62.56
  -2   2  -9  590.88   67.45
  -2   2  -9  501.34   55.32
  -2   2  -9  429.03   50.96
   2  -2  10 8651.82  320.41
  -2   2 -10 8388.00  401.44
  -2   2 -10 7599.73  322.34
   2  -2  11 4067.13  164.36
   2  -2  11 4102.59  143.00
  -2   2 -11 4293.35  267.68
  -2   2 -11 3469.79  166.35
  -2   2 -11 3419.46  171.99
   2  -2  12   38.16   63.32
  -2   2 -12  -86.18   63.00
  -2   2 -12  -13.40   43.03
   2  -2  13 6730.69  255.47
  -2   2 -13 6009.96  316.84
   2  -2  14 2077.08  120.12
  -2   2 -14 1599.35  136.61
  -2   2 -14 1401.20   85.83
   2  -2  15 1567.39  110.61
  -2   2 -15 1329.92  121.10
  -2   2 -15 1032.88   79.61
   2  -2  16 2976.03  193.15
  -2   2 -16 3545.17  189.03
   2  -2  17  778.92  114.88
  -2   2 -17  702.05  121.46
   2  -2  18  209.08   95.36
  -2   2 -18  538.59  103.86
   2  -1   1 1077.05   56.60
   2  -1   1  957.02   73.93
  -2   1  -1 1045.63   71.26
  -2   1  -1  966.79   66.78
   2  -1   229702.38 1018.48
   2  -1   227830.78 1125.42
   2  -1   228635.83  936.72
  -2   1  -226615.27 1021.96
   2  -1   318954.30  689.13
  -2   1  -319482.51  686.61
  -2   1  -319284.87  733.65
   2  -1   4  116.15   30.12
   2  -1   4  124.85   25.66
   2  -1   4   72.21   38.19
   2  -1   4  106.92   13.67
  -2   1  -4  116.63   27.75
  -2   1  -4  115.51   25.50
  -2   1  -4   89.72   37.05
   2  -1   530120.99 1085.56
  -2   1  -530391.43 1081.10
  -2   1  -534063.91 1103.67
   2  -1   628354.83 1021.79
   2  -1   624996.09  887.67
  -2   1  -627017.60  993.36
  -2   1  -627167.67  899.01
   2  -1   7 4909.22  243.08
   2  -1   7 4599.46  190.45
  -2   1  -7 4930.71  270.86
  -2   1  -7 5050.79  192.59
   2  -1   829986.31 1027.03
  -2   1  -828238.80 1216.68
  -2   1  -832236.04 1049.37
   2  -1   9 2672.34  118.85
   2  -1   9 2617.58  106.23
  -2   1  -9 2661.45  156.37
  -2   1  -9 2682.70  133.12
  -2   1  -9 2298.69  118.30
   2  -1  10 1915.18   96.32
   2  -1  10 1541.61   72.21
  -2   1 -10 1637.52  111.50
  -2   1 -10 1520.78   91.33
  -2   1 -10 1421.04   76.75
   2  -1  11 7195.36  269.34
   2  -1  11 6297.29  237.61
  -2   1 -11 7197.51  278.62
  -2   1 -11 5966.52  257.93
  -2   1 -11 5466.76  230.64
   2  -1  12 3619.97  189.88
  -2   1 -12 3388.64  171.95
   2  -1  13 1460.64  100.33
  -2   1 -13 1550.87  104.55
  -2   1 -13 1292.52   83.73
   2  -1  14 4450.07  185.08
  -2   1 -14 3900.96  211.01
   2  -1  15  300.29   82.26
  -2   1 -15  103.44   76.35
   2  -1  16 1563.60  126.52
  -2   1 -16 1430.99  120.32
   2  -1  17 1086.02  105.75
  -2   1 -17 1205.60  129.79
   2  -1  18   45.27   90.55
  -2   1 -18  -62.29  102.57
   2   0   2 1447.16   73.26
   2   0   2 1335.14   63.34
   2   0   2 1376.50   80.50
   2   0   2 1197.09   77.84
  -2   0  -2 1368.39   61.15
  -2   0  -2 1091.87   64.63
   2   0   326028.60  927.84
   2   0   323279.60  826.67
   2   0   321849.02  865.61
  -2   0  -324343.98  810.97
  -2   0  -325664.54  849.98
  -2   0  -320672.59  806.09
   2   0   4  779.53   49.53
   2   0   4  692.22   45.39
   2   0   4  657.48   49.72
   2   0   4  933.90   44.09
  -2   0  -4  779.15   54.49
  -2   0  -4  667.75   46.46
   2   0   5 2946.66  126.99
   2   0   5 2987.79  134.61
   2   0   5 2629.36  123.77
   2   0   5 2839.42  127.34
  -2   0  -5 2562.85  123.19
  -2   0  -5 2836.07  123.56
   2   0   618766.21  592.82
   2   0   618046.77  600.02
   2   0   616780.98  623.63
   2   0   616712.73  619.32
  -2   0  -616520.45  606.97
  -2   0  -617944.49  676.36
   2   0   7 4152.74  162.41
   2   0   7 4295.70  188.10
   2   0   7 4056.54  170.88
   2   0   7 3843.18  157.59
  -2   0  -7 4194.70  172.12
  -2   0  -7 3880.49  194.39
  -2   0  -7 3280.24  146.84
   2   0   812244.51  457.25
   2   0   811085.98  431.67
  -2   0  -812895.79  437.08
  -2   0  -812007.07  502.22
   2   0   913241.94  517.01
   2   0   912472.65  491.06
  -2   0  -913840.51  478.95
  -2   0  -912405.36  582.33
  -2   0  -911053.77  434.96
   2   0  10 1409.91   91.47
   2   0  10 1168.02   91.48
   2   0  10 1095.93   69.77
  -2   0 -10 1352.62   92.44
  -2   0 -10 1138.23   84.31
  -2   0 -10 1105.57   78.06
   2   0  11 2614.62  119.39
  -2   0 -11 2500.85  151.42
  -2   0 -11 2913.44  143.33
   2   0  12 4458.93  210.70
  -2   0 -12 3778.95  200.37
   2   0  13   92.66   72.30
  -2   0 -13  218.18   76.96
  -2   0 -13   92.24   38.86
   2   0  14 2544.02  138.44
  -2   0 -14 2540.69  159.17
   2   0  15 2314.85  145.03
  -2   0 -15 2530.43  178.74
   2   0  16  137.26   81.30
  -2   0 -16   32.52   84.73
   2   0  17  791.04  106.08
  -2   0 -17  808.42  121.60
   2   1   025462.24  856.44
   2   1   159912.14 2149.47
  -2  -1  -167835.46 2051.93
   2   1   2 6243.14  247.85
   2   1   2 6526.20  243.11
   2   1   2 5543.73  262.86
  -2  -1  -2 6915.83  236.11
  -2  -1  -2 6000.29  258.68
   2   1   310294.37  400.75
   2   1   310190.68  351.79
   2   1   3 8826.08  357.22
   2   1   310340.71  383.40
  -2  -1  -3 9596.19  340.09
  -2  -1  -3 9713.08  410.15
   2   1   422426.61  823.16
   2   1   421670.44  726.26
   2   1   419114.66  745.56
   2   1   423655.62  784.23
  -2  -1  -420290.96  768.73
  -2  -1  -420940.44  807.55
   2   1   5 5681.16  267.65
   2   1   5 5313.04  204.58
   2   1   5 4655.92  218.98
   2   1   5 5895.95  217.26
  -2  -1  -5 5137.09  239.53
  -2  -1  -5 5237.04  222.74
   2   1   6 8242.73  391.94
   2   1   6 8936.93  331.98
   2   1   6 8072.88  341.85
   2   1   6 8169.07  322.83
  -2  -1  -6 8665.09  394.10
  -2  -1  -6 8475.49  316.38
   2   1   716776.35  550.64
   2   1   715315.91  611.00
   2   1   715795.26  575.96
  -2  -1  -715641.35  702.02
  -2  -1  -717600.49  578.10
   2   1   8   80.17   47.64
   2   1   8   37.62   32.81
   2   1   8   47.64   36.78
  -2  -1  -8  -28.55   43.82
  -2  -1  -8   -7.61   44.80
   2   1   912339.65  440.39
   2   1   911700.49  418.77
  -2  -1  -912517.07  547.00
  -2  -1  -911987.09  473.64
   2   1  10 4528.26  190.95
   2   1  10 3846.39  153.81
   2   1  10 3430.13  172.91
  -2  -1 -10 4134.84  239.45
  -2  -1 -10 3566.91  177.47
   2   1  11  -30.61   59.91
   2   1  11   78.11   63.80
   2   1  11   28.06   44.22
  -2  -1 -11   74.97   60.57
   2   1  12 2374.33  131.04
  -2  -1 -12 2079.86  149.04
   2   1  13 1462.99  110.14
  -2  -1 -13 1435.31  111.10
   2   1  14   98.35   78.55
  -2  -1 -14  185.20  103.46
   2   1  15 1791.09  119.42
  -2  -1 -15 1709.62  148.74
   2   1  16  605.97   97.32
  -2  -1 -16  618.69   99.51
   2   1  17  120.41   89.61
  -2  -1 -17  106.57   70.79
   2   2   0 3097.47  124.86
   2   2   0 2725.69  115.44
  -2  -2   0 2865.61  131.85
   2   2   133283.46 1139.51
   2   2   127779.40 1024.63
  -2  -2  -133682.19 1095.54
  -2  -2  -131002.70 1048.54
   2   2   229873.51 1019.31
   2   2   230071.83  993.13
  -2  -2  -228834.43 1010.40
  -2  -2  -228010.74  936.45
   2   2   3  818.99   48.22
   2   2   3  771.74   51.87
   2   2   3  672.71   49.99
   2   2   3  597.28   55.51
  -2  -2  -3  778.54   48.84
  -2  -2  -3  896.57   53.37
   2   2   412549.01  423.82
   2   2   411119.77  452.33
   2   2   410795.81  419.77
   2   2   412417.07  467.96
  -2  -2  -412208.38  410.02
  -2  -2  -412577.19  436.09
   2   2   5 7481.18  315.43
   2   2   5 8591.39  326.75
   2   2   5 7545.81  304.07
   2   2   5 8354.54  327.53
  -2  -2  -5 8507.07  290.12
  -2  -2  -5 8780.74  346.20
   2   2   6   95.48   41.18
   2   2   6   82.03   44.98
   2   2   6   86.25   52.80
  -2  -2  -6   84.14   41.18
  -2  -2  -6   53.56   41.70
   2   2   711163.59  379.18
   2   2   710716.56  406.01
   2   2   7 9508.33  405.06
  -2  -2  -710735.99  358.83
  -2  -2  -710952.05  457.25
   2   2   8 4710.32  180.53
   2   2   8 4548.25  198.35
   2   2   8 4246.07  193.86
  -2  -2  -8 5085.97  192.84
  -2  -2  -8 4747.13  211.77
   2   2   9 1457.30   92.98
   2   2   9 1337.20   89.04
  -2  -2  -9 1397.45   94.77
  -2  -2  -9 1303.21   93.86
   2   2  10 7559.62  316.20
   2   2  10 6414.71  307.44
  -2  -2 -10 7853.43  299.52
   2   2  11 1452.06  116.53
  -2  -2 -11 1589.32  108.53
   2   2  12   39.36   72.66
  -2  -2 -12   71.18   67.57
   2   2  13 1109.27  108.88
  -2  -2 -13 1242.13  106.81
   2   2  14  126.48   83.94
  -2  -2 -14  305.20   82.83
   2   2  15  666.39   80.26
  -2  -2 -15  507.66  101.22
   2   2  16  885.59  109.58
  -2  -2 -16  835.56  110.68
   2   3   022573.85  808.02
  -2  -3   024235.01  808.09
   2   3   1 1411.43   76.92
   2   3   1 1428.47   77.25
  -2  -3  -1 1422.38   78.20
  -2  -3  -1 1560.73   78.37
   2   3   223256.54  778.84
   2   3   220246.49  744.65
  -2  -3  -222362.43  762.79
  -2  -3  -224012.02  747.61
   2   3   3 9095.07  347.20
   2   3   3 7802.38  309.62
   2   3   3 8779.43  364.29
  -2  -3  -3 8897.20  320.84
  -2  -3  -3 9130.51  299.32
   2   3   4 5150.12  204.63
   2   3   4 4829.97  228.41
  -2  -3  -4 5231.97  216.75
  -2  -3  -4 5549.16  221.66
   2   3   5 9095.84  321.42
   2   3   5 8284.76  345.52
  -2  -3  -5 9211.53  340.36
  -2  -3  -5 8976.11  361.86
   2   3   6 2989.36  136.02
   2   3   6 2744.67  128.17
  -2  -3  -6 2962.76  123.97
  -2  -3  -6 2966.60  169.64
   2   3   7 1710.81   90.70
   2   3   7 1457.29   87.93
  -2  -3  -7 1824.63  103.71
  -2  -3  -7 1534.69  118.83
   2   3   8 8261.91  310.20
   2   3   8 6587.57  297.41
  -2  -3  -8 8378.73  320.01
  -2  -3  -8 6895.01  360.82
   2   3   9  433.30   57.44
   2   3   9  566.83   80.80
  -2  -3  -9  693.14   80.33
   2   3  10 1534.86  111.40
  -2  -3 -10 1812.60  112.67
   2   3  11 2097.79  122.85
  -2  -3 -11 1873.79  125.23
   2   3  12  166.99   75.66
  -2  -3 -12  219.03   90.53
   2   3  13  416.75   83.15
  -2  -3 -13  426.48   70.98
   2   3  14  723.84  105.30
  -2  -3 -14  747.42  105.80
  -2  -3 -15   96.32   99.73
   2   4   025507.53  857.70
  -2  -4   024881.75  869.85
  -2  -4   026480.04  887.79
  -2  -4  -1 8849.20  332.79
   2   4   2 8546.35  336.86
  -2  -4  -2 7914.58  292.21
  -2  -4  -2 8694.14  302.76
   2   4   310223.15  422.77
  -2  -4  -310881.54  381.76
  -2  -4  -310762.96  371.83
   2   4   4  156.53   56.60
   2   4   4   83.10   35.53
  -2  -4  -4   45.96   52.51
  -2  -4  -4  123.29   42.94
   2   4   5 5767.13  252.71
  -2  -4  -5 6366.91  255.34
  -2  -4  -5 5839.45  236.11
   2   4   6 3382.16  151.84
  -2  -4  -6 3828.19  175.02
  -2  -4  -6 2928.18  158.85
   2   4   7  174.58   61.88
  -2  -4  -7  186.93   65.13
   2   4   8 2283.93  134.43
  -2  -4  -8 2336.51  154.59
   2   4   9 4106.92  190.27
  -2  -4  -9 4492.68  210.25
   2   4  10   23.07   81.56
  -2  -4 -10  155.06   75.47
   2   4  11 1142.35   97.77
  -2  -4 -11 1135.27  104.37
   2   4  12  584.55  103.19
  -2  -4 -12  498.98   92.26
   2   4  13   14.88   87.63
  -2  -4 -13   20.67   84.82
   2   5   0 9250.73  342.16
  -2  -5   0 9623.71  327.20
  -2  -5   0 9219.00  350.05
   2   5   1 9829.36  390.77
  -2  -5  -1 9604.86  381.61
  -2  -5  -110485.30  376.95
   2   5   2  303.00   66.03
  -2  -5  -2  282.67   64.36
  -2  -5  -2  305.15   55.27
   2   5   3 8476.79  331.18
  -2  -5  -3 9021.01  334.86
  -2  -5  -3 7594.09  309.37
   2   5   4 5117.68  210.78
  -2  -5  -4 5146.88  224.30
   2   5   5   51.92   43.27
   2   5   6 2003.17  133.31
  -2  -5  -6 1794.65  114.24
   2   5   7 1015.75  102.64
  -2  -5  -7 1226.55   91.38
   2   5   8  232.79   78.75
  -2  -5  -8  366.96   79.91
   2   5   9 2218.48  138.84
  -2  -5  -9 2536.92  154.67
   2   5  10  700.20  118.48
  -2  -5 -10  683.94  100.89
   2   5  11  280.81   89.82
  -2  -5 -11  282.63  103.03
  -2  -5 -12  573.68  102.98
   2   6   0 1419.58  101.60
  -2  -6   0 1412.43  112.39
   2   6   1 8074.21  349.07
  -2  -6  -1 9068.58  376.94
   2   6   2 4946.48  227.63
  -2  -6  -2 5045.53  225.92
   2   6   3  298.64   83.62
  -2  -6  -3  274.81   73.69
   2   6   4 5092.59  241.14
  -2  -6  -4 5505.27  245.93
   2   6   5 1128.33   93.91
  -2  -6  -5 1248.02  101.81
   2   6   6  185.63   57.59
  -2  -6  -6  227.56   62.66
   2   6   7  731.17   88.60
  -2  -6  -7  935.87   92.09
   2   6   8  270.06   92.37
  -2  -6  -8  281.65   97.43
   2   6   9  410.68   99.71
  -2  -6  -9  576.51  108.91
  -2  -6 -10  976.90  118.30
   2   7   0 1311.67  106.62
   2   7   1  591.38   95.94
  -2  -7  -1  776.96   93.52
   2   7   2 3874.74  188.02
  -2  -7  -2 4175.10  210.12
   2   7   3  400.57   89.63
  -2  -7  -3  473.16   92.78
   2   7   4 1285.50  121.41
  -2  -7  -4 1254.31  123.36
   2   7   5 1640.60  118.19
  -2  -7  -5 1614.12  129.26
   2   7   6   74.27   79.99
   2   7   7  203.43   92.83
  -2  -7  -7  233.62   95.61
  -2  -7  -8  686.38  109.19
   2   8   0 1689.75  134.43
  -2  -8   0 1707.69  153.79
   2   8   1  223.77   82.78
  -2  -8  -1  129.33   80.79
   2   8   2  812.20  114.67
  -2  -8  -2  711.64  111.36
   2   8   3  980.07  101.55
  -2  -8  -3 1424.30  131.05
   2   8   4   -6.21   64.74
  -2  -8  -4   57.22   72.75
   2   8   5  484.59  116.02
  -2  -8  -5  654.07  110.03
   2   9   0  423.71  105.16
  -2  -9   0  625.47  109.12
   3  -9   1  763.18  114.14
  -3   9  -1  796.95  119.96
  -3   9  -2 1462.47  133.56
   3  -9   3  156.50   88.58
  -3   9  -3  466.67  136.05
   3  -9   4 1558.42  129.60
  -3   9  -4 1452.83  150.99
   3  -9   5 1040.76  112.57
  -3   9  -5 1170.12  128.15
   3  -9   6  240.39   90.34
  -3   9  -6  231.95  105.15
   3  -9   7 1088.51  123.57
  -3   9  -7 1417.77  133.42
   3  -9   8 1292.07  142.11
  -3   9  -8 1254.30  145.14
   3  -9   9   24.52  101.60
  -3   8  -1  -44.81   59.59
  -3   8  -2 3028.60  190.85
   3  -8   4  637.24   94.85
   3  -8   5 2910.94  167.91
  -3   8  -5 2744.05  183.50
   3  -8   6  665.39   95.86
  -3   8  -6  590.14   92.45
   3  -8   7  566.51   97.31
  -3   8  -7  603.91  100.72
   3  -8   8 2563.32  156.19
  -3   8  -8 2618.56  172.49
   3  -8   9 1259.15  120.98
  -3   8  -9 1227.83  123.22
   3  -8  10  970.99  112.17
   3  -8  11 2078.55  142.63
   3  -8  12  139.26   91.57
  -3   8 -12  215.62  106.14
  -3   8 -12  291.99   83.11
   3  -7   1  476.43   83.53
   3  -7   1  272.02   61.34
   3  -7   2 2237.48  125.91
  -3   7  -2 2325.76  144.10
   3  -7   3 9269.75  385.49
  -3   7  -3 9038.61  452.45
   3  -7   4 3350.52  177.54
  -3   7  -4 3538.58  188.49
   3  -7   5 3361.06  174.97
  -3   7  -5 3301.65  182.71
   3  -7   6 4619.83  227.67
   3  -7   7  354.57   83.17
  -3   7  -7  424.84   84.49
   3  -7   8 1689.94  107.40
  -3   7  -8 1476.30  132.55
   3  -7   9 2869.49  175.84
  -3   7  -9 2691.85  176.52
   3  -7  10  128.53   83.38
  -3   7 -10   30.80   81.77
   3  -7  11 3934.72  199.57
  -3   7 -11 3337.10  216.75
   3  -7  12 2240.61  146.92
  -3   7 -12 1968.95  156.61
  -3   7 -12 2279.66  179.67
   3  -7  13   56.88   64.74
  -3   7 -13   81.40  124.19
  -3   7 -13 -207.55   98.75
   3  -7  14 1123.35  102.08
  -3   7 -14 1066.40  137.45
  -3   7 -14  773.98  116.59
   3  -6   1 6339.92  273.15
  -3   6  -1 6353.80  263.15
   3  -6   2  745.97   76.59
   3  -6   2  451.05   47.17
   3  -6   2  371.29   58.90
   3  -6   411490.93  452.52
  -3   6  -411768.50  474.85
   3  -6   5  148.03   66.47
   3  -6   5   15.11   41.21
  -3   6  -5  149.35   89.28
  -3   6  -5  -29.61   34.52
   3  -6   6 8354.93  409.00
  -3   6  -6 8721.96  345.81
   3  -6   7 4263.74  196.23
   3  -6   8   89.51   64.66
  -3   6  -8   -1.95   71.97
   3  -6   9 2661.25  155.20
  -3   6  -9 2974.54  179.23
   3  -6  10 3809.88  183.72
  -3   6 -10 3230.93  197.90
   3  -6  11  759.30   88.66
  -3   6 -11  582.16   99.20
  -3   6 -11  665.86   85.21
   3  -6  12 5828.83  270.16
  -3   6 -12 5832.99  280.99
   3  -6  13 1393.49  124.10
  -3   6 -13 1300.49  125.51
  -3   6 -13  997.17  109.56
   3  -6  14  818.19  101.40
  -3   6 -14  904.37  112.45
  -3   6 -14  645.94  100.18
   3  -6  15 1581.50  133.38
  -3   6 -15 1488.89  136.10
  -3   6 -15  936.48  114.36
   3  -5   1 9722.02  345.45
   3  -5   1 9164.52  355.56
  -3   5  -110736.32  411.52
   3  -5   2 8500.79  317.13
   3  -5   2 6733.14  290.22
  -3   5  -2 8783.13  335.83
  -3   5  -2 7647.47  312.87
   3  -5   3  164.22   59.32
   3  -5   3   90.14   36.56
   3  -5   3    5.86   33.42
  -3   5  -3  210.81   62.96
  -3   5  -3  102.44   54.63
  -3   5  -3   75.03   40.30
   3  -5   417138.27  619.05
   3  -5   412680.73  525.75
  -3   5  -414736.81  592.66
   3  -5   510544.21  448.45
  -3   5  -511065.91  406.73
  -3   5  -5 8736.64  394.11
   3  -5   6 3436.36  166.69
  -3   5  -6 3433.80  147.28
  -3   5  -6 2632.02  169.94
   3  -5   712329.79  445.48
  -3   5  -711696.09  442.16
   3  -5   8 2982.93  144.07
  -3   5  -8 3140.26  167.04
   3  -5   9  887.15   70.95
  -3   5  -9 1014.81  104.41
  -3   5  -9  716.26   71.79
   3  -5  10 4764.05  205.41
  -3   5 -10 4780.66  233.59
   3  -5  11  545.40   87.33
  -3   5 -11  667.53   90.77
  -3   5 -11  390.70   79.12
   3  -5  12 2849.78  171.79
  -3   5 -12 2783.71  156.85
   3  -5  13 5724.90  258.72
  -3   5 -13 5851.99  272.94
   3  -5  14  173.79   86.98
  -3   5 -14  361.59   98.05
  -3   5 -14  182.65   78.79
   3  -5  15 1123.61  113.82
  -3   5 -15 1103.27  128.02
  -3   5 -15  888.25   95.99
   3  -5  16  990.09   93.78
  -3   5 -16 1021.52  127.79
  -3   5 -16  660.51   97.43
   3  -4   1 4122.87  178.91
   3  -4   1 4572.38  198.09
  -3   4  -1 4436.67  177.34
  -3   4  -1 4147.98  193.28
   3  -4   211654.32  432.66
  -3   4  -211775.07  426.37
  -3   4  -211006.48  434.36
   3  -4   3 7751.47  307.62
  -3   4  -3 7396.54  322.77
   3  -4   4 5673.08  207.68
   3  -4   4 5487.83  226.32
  -3   4  -4 5429.25  240.18
   3  -4   520526.44  751.73
  -3   4  -521329.59  724.14
  -3   4  -518948.21  876.79
   3  -4   6 2890.65  132.53
  -3   4  -6 2855.56  153.97
   3  -4   7 8079.79  304.17
  -3   4  -7 8335.63  370.47
  -3   4  -7 7520.67  322.11
   3  -4   812431.40  460.21
  -3   4  -812301.09  526.03
   3  -4   9  829.95   74.60
  -3   4  -9 1056.63   99.07
  -3   4  -9  648.28   62.92
  -3   4  -9  599.07   68.89
   3  -4  10 2708.36  139.49
  -3   4 -10 2863.34  152.59
   3  -4  11 7845.08  288.17
  -3   4 -11 7645.35  301.08
   3  -4  12   -4.95   43.43
  -3   4 -12  -33.36   92.48
  -3   4 -12   53.37   72.84
   3  -4  13 3877.62  186.00
  -3   4 -13 4033.50  230.27
  -3   4 -13 3176.02  178.76
   3  -4  14 2365.62  123.32
  -3   4 -14 2037.29  177.82
  -3   4 -14 1905.30  132.52
   3  -4  15  104.42   76.06
  -3   4 -15   75.89   88.91
  -3   4 -15   92.22   62.84
   3  -4  16 1067.77  106.95
  -3   4 -16 1169.18  129.13
  -3   4 -17  534.82  111.21
   3  -3   1 6249.83  247.90
  -3   3  -1 6639.16  256.67
  -3   3  -1 5864.23  249.75
   3  -3   213109.69  496.11
   3  -3   213509.38  481.91
  -3   3  -211965.42  498.80
  -3   3  -211627.23  457.67
   3  -3   317518.58  638.57
  -3   3  -320698.83  734.40
  -3   3  -318614.88  673.70
   3  -3   4 5997.54  215.38
   3  -3   4 5627.83  239.08
  -3   3  -4 5774.61  218.08
  -3   3  -4 5322.06  254.37
  -3   3  -4 4903.00  203.05
   3  -3   513395.83  467.13
  -3   3  -513384.79  543.49
   3  -3   618938.90  659.04
  -3   3  -618357.37  767.53
   3  -3   7 1603.86   87.11
  -3   3  -7 1709.03   92.85
  -3   3  -7 1487.13   93.56
   3  -3   810719.14  410.71
  -3   3  -811069.44  411.36
  -3   3  -810246.08  457.54
   3  -3   9 5636.93  228.10
  -3   3  -9 5823.77  242.86
   3  -3  10  505.37   64.31
  -3   3 -10  431.09   61.49
  -3   3 -10  258.98   55.65
  -3   3 -10  390.78   86.81
   3  -3  11 5691.05  215.62
  -3   3 -11 5290.52  309.59
   3  -3  12 5545.50  219.69
  -3   3 -12 4973.06  284.33
   3  -3  13  -31.37   74.53
  -3   3 -13   68.22   77.69
  -3   3 -13  118.23   57.78
   3  -3  14 2990.50  152.71
  -3   3 -14 2926.00  179.39
  -3   3 -14 2441.06  148.98
   3  -3  15  493.20   91.34
  -3   3 -15  715.48  101.47
  -3   3 -15  467.56   75.00
  -3   3 -16  437.11  113.34
  -3   3 -17  991.22  112.53
   3  -2   127565.27  900.59
   3  -2   122300.29  866.53
  -3   2  -125392.32  896.35
  -3   2  -124985.07  873.28
   3  -2   2  111.75   31.02
   3  -2   2   86.02   37.52
   3  -2   2   44.84   23.16
  -3   2  -2  226.96   35.45
  -3   2  -2   -2.74   36.50
  -3   2  -2  123.80   23.95
   3  -2   315550.10  569.32
   3  -2   314435.76  534.38
   3  -2   418296.80  700.80
   3  -2   417453.14  639.43
  -3   2  -416163.70  637.03
  -3   2  -417801.55  673.16
   3  -2   5  418.13   47.23
   3  -2   5  334.13   41.02
   3  -2   5  346.00   53.30
  -3   2  -5  471.64   47.04
  -3   2  -5  422.12   39.43
  -3   2  -5  306.22   51.27
   3  -2   622417.38  737.31
   3  -2   620922.09  770.98
  -3   2  -621109.63  741.74
  -3   2  -620765.61  848.58
   3  -2   7 8751.68  319.84
  -3   2  -7 8625.08  343.85
  -3   2  -7 8714.23  359.14
   3  -2   8 3436.08  148.57
  -3   2  -8 3080.82  165.52
  -3   2  -8 3078.58  142.17
   3  -2   9 6201.41  232.45
  -3   2  -9 5588.07  318.39
  -3   2  -9 5360.93  222.46
   3  -2  10 1960.87  105.18
  -3   2 -10 2007.84  125.07
  -3   2 -10 1709.67   98.48
  -3   2 -10 1494.85   93.99
   3  -2  11 1090.23   77.89
  -3   2 -11  978.43   92.00
  -3   2 -11  776.33   74.23
   3  -2  12 7230.33  259.73
  -3   2 -12 6659.02  325.82
  -3   2 -12 5701.87  253.34
   3  -2  13  806.27   78.63
  -3   2 -13  658.53   88.57
  -3   2 -13  618.08   70.03
   3  -2  14 1698.83  117.51
  -3   2 -14 1451.08  120.51
  -3   2 -14 1209.58   82.14
   3  -2  15 2068.29  126.02
  -3   2 -15 1868.78  134.65
  -3   2 -16  105.46   86.81
  -3   2 -17  409.11   94.40
   3  -1   128890.13 1022.89
  -3   1  -127736.74 1017.47
  -3   1  -127372.26 1066.16
   3  -1   2 2739.97  113.43
   3  -1   2 2366.25  104.73
   3  -1   2 2003.39  103.87
   3  -1   2 2143.42   90.34
  -3   1  -2 2427.93   93.97
   3  -1   310187.13  374.17
   3  -1   3 9608.87  410.18
   3  -1   3 9375.67  412.03
   3  -1   3 9085.11  333.91
  -3   1  -310179.57  351.08
   3  -1   413722.75  460.78
   3  -1   412502.59  539.78
   3  -1   411772.53  542.45
   3  -1   413210.66  436.12
  -3   1  -412986.50  492.21
   3  -1   5 6624.04  255.39
   3  -1   5 6168.78  319.90
   3  -1   5 7248.92  262.76
  -3   1  -5 6553.61  314.49
  -3   1  -5 7158.77  247.53
   3  -1   6 6501.38  252.92
   3  -1   6 6162.99  225.66
   3  -1   6 5429.46  303.78
   3  -1   6 5389.57  218.21
  -3   1  -6 5765.97  294.30
  -3   1  -6 6383.98  223.57
   3  -1   723258.23  795.26
   3  -1   721314.86  971.48
  -3   1  -723811.14  920.08
  -3   1  -724110.15  798.07
   3  -1   8 1174.40   70.91
   3  -1   8  953.44   93.92
   3  -1   8 1031.58   56.17
  -3   1  -8 1254.79   82.73
  -3   1  -8 1142.64   71.69
  -3   1  -8 1020.38   71.83
   3  -1   9 3269.75  150.10
   3  -1   9 2631.47  116.15
  -3   1  -9 2968.54  150.80
  -3   1  -9 2825.27  128.89
  -3   1  -9 2671.56  130.47
   3  -1  10 3888.45  171.60
   3  -1  10 3443.72  146.97
  -3   1 -10 4155.62  177.62
  -3   1 -10 3462.08  172.13
   3  -1  11   -1.96   53.78
  -3   1 -11  -50.51   56.88
  -3   1 -11  -36.82   44.87
   3  -1  12 2133.96  124.19
  -3   1 -12 2027.86  116.71
  -3   1 -12 1736.11  108.06
   3  -1  13 2836.65  130.79
  -3   1 -13 2793.66  136.85
  -3   1 -13 2336.94  135.05
   3  -1  14  -59.57   71.71
  -3   1 -14   94.22   81.45
  -3   1 -14   36.70   47.89
   3  -1  15 1676.51  121.38
  -3   1 -15 1594.41  130.36
  -3   1 -16  981.81  110.87
  -3   1 -17  184.37   87.50
   3   0   0 5079.53  221.01
   3   0   0 4315.67  207.30
  -3   0   0 4825.52  188.66
   3   0   117989.08  596.62
   3   0   117880.35  687.50
  -3   0  -116804.91  637.56
  -3   0  -115055.42  584.73
   3   0   216778.71  579.47
   3   0   216739.45  611.58
   3   0   216065.14  637.37
  -3   0  -216852.62  619.07
   3   0   3  121.71   21.76
   3   0   3   87.14   23.57
   3   0   3   49.88   37.07
   3   0   3  134.26   47.06
  -3   0  -3   39.84   23.23
  -3   0  -3   22.76   47.59
   3   0   4 4849.89  191.76
   3   0   4 4263.66  166.47
   3   0   4 4442.57  215.74
   3   0   4 4406.07  184.11
  -3   0  -4 4472.00  184.38
  -3   0  -4 4906.71  176.09
  -3   0  -4 3697.08  176.48
   3   0   519922.91  721.35
   3   0   520197.62  744.12
  -3   0  -520853.64  717.06
  -3   0  -520332.42  682.38
   3   0   6  543.62   44.50
   3   0   6  568.44   49.23
   3   0   6  820.92   68.32
   3   0   6  805.22   44.26
  -3   0  -6  654.67   56.55
  -3   0  -6  552.12   53.99
  -3   0  -6  503.25   52.98
   3   0   712003.66  433.08
   3   0   711054.75  399.18
   3   0   711477.06  413.50
  -3   0  -712507.29  433.40
  -3   0  -711334.53  387.42
  -3   0  -7 9590.62  378.62
   3   0   8 9520.28  366.95
   3   0   8 8439.47  352.46
   3   0   8 8152.63  314.94
  -3   0  -8 9430.84  338.42
  -3   0  -8 8931.44  318.35
  -3   0  -8 7248.97  300.76
   3   0   9  505.02   63.32
   3   0   9  309.68   42.19
  -3   0  -9  523.67   68.15
  -3   0  -9  352.47   47.59
  -3   0  -9  313.66   59.21
   3   0  10 4390.98  192.82
  -3   0 -10 4415.61  204.15
  -3   0 -10 3371.36  190.11
  -3   0 -10 3666.57  183.04
   3   0  11 1834.66  120.36
  -3   0 -11 1771.39  125.88
  -3   0 -11 1377.31   95.70
   3   0  12  -54.58   60.57
  -3   0 -12  187.55   70.95
   3   0  13 2095.84  121.93
  -3   0 -13 2212.65  147.09
   3   0  14  611.89   83.05
  -3   0 -14  757.20   87.21
  -3   0 -15  197.46  108.43
  -3   0 -16 1457.93  143.23
   3   1   024402.80  881.92
   3   1   025119.46  893.98
  -3  -1   024193.42  857.69
   3   1   1  377.96   29.31
   3   1   1  306.17   38.10
   3   1   1  331.82   48.33
  -3  -1  -1  493.08   29.99
  -3  -1  -1  259.55   54.57
   3   1   236952.29 1387.26
  -3  -1  -242248.00 1295.39
   3   1   313018.02  506.25
   3   1   312435.44  513.01
   3   1   312288.19  498.34
  -3  -1  -313491.67  469.34
   3   1   4 1940.89  112.45
   3   1   4 2405.53  109.74
   3   1   4 1831.41  117.86
   3   1   4 1996.05  108.24
   3   1   4 2193.65  109.09
  -3  -1  -4 2324.66   92.80
  -3  -1  -4 2183.84   99.54
   3   1   511567.97  390.84
   3   1   511175.94  480.41
   3   1   511714.51  415.77
  -3  -1  -511175.41  430.29
  -3  -1  -510549.38  395.46
   3   1   6 7227.12  376.60
   3   1   6 8485.44  298.89
   3   1   6 8011.93  340.22
   3   1   6 8319.40  303.14
  -3  -1  -6 8969.08  355.45
  -3  -1  -6 8553.79  323.91
   3   1   7 1244.50   74.05
   3   1   7 1199.13   75.04
   3   1   7 1118.24   69.70
  -3  -1  -7 1286.13   80.04
  -3  -1  -7 1321.17   79.23
   3   1   8 8653.22  305.13
  -3  -1  -8 7816.97  358.35
  -3  -1  -8 8394.15  323.57
   3   1   9 1801.49   92.88
   3   1   9 1545.33   86.42
  -3  -1  -9 1766.20  117.26
  -3  -1  -9 1554.70   93.74
   3   1  10  774.18   71.92
  -3  -1 -10  647.15   75.04
   3   1  11 3440.16  157.61
  -3  -1 -11 2831.36  168.28
   3   1  12  351.82   81.48
  -3  -1 -12  364.10   76.41
   3   1  13  280.85   82.87
  -3  -1 -13  336.80   76.56
  -3  -1 -14 1378.75  111.28
  -3  -1 -15  130.37   81.50
  -3  -1 -16  590.19  102.09
   3   2   034607.64 1141.71
   3   2   034161.73 1142.49
  -3  -2   031929.68 1211.17
   3   2   119900.22  657.62
   3   2   117275.86  631.47
  -3  -2  -118685.67  640.39
  -3  -2  -118882.65  655.98
   3   2   2 5557.63  211.42
   3   2   2 4945.62  213.50
   3   2   2 4824.74  210.02
  -3  -2  -2 5740.22  223.23
  -3  -2  -2 5200.99  198.83
   3   2   313927.61  462.33
   3   2   313108.69  498.72
   3   2   314448.70  583.58
  -3  -2  -313913.69  487.86
  -3  -2  -313115.02  488.54
   3   2   4 2873.77  123.83
   3   2   4 2506.77  120.52
   3   2   4 2548.72  128.27
   3   2   4 3211.58  150.07
  -3  -2  -4 2964.42  108.84
  -3  -2  -4 2878.77  132.86
   3   2   5 1616.36   93.69
   3   2   5 1386.96   87.74
  -3  -2  -5 1739.17   83.12
  -3  -2  -5 1608.03  102.38
   3   2   6 9518.06  347.44
   3   2   6 7926.82  362.38
  -3  -2  -6 9565.67  321.07
  -3  -2  -6 8914.51  379.19
   3   2   7 1812.19   94.11
   3   2   7 1523.03   96.47
  -3  -2  -7 1866.56   91.86
  -3  -2  -7 1599.34   85.57
   3   2   8 4137.60  179.90
  -3  -2  -8 4176.09  168.93
  -3  -2  -8 3608.80  173.64
   3   2   9 5368.45  226.39
  -3  -2  -9 5329.97  216.81
  -3  -2  -9 4396.42  209.05
   3   2  10   42.61   62.75
  -3  -2 -10  139.16   63.43
   3   2  11 1410.64   99.00
  -3  -2 -11 1444.74  106.97
   3   2  12 1483.65  107.70
  -3  -2 -12 1712.54  119.67
  -3  -2 -13  -26.64   78.44
  -3  -2 -14  385.84   86.33
  -3  -2 -15  454.00  104.31
   3   3   0 5672.64  232.07
   3   3   0 4977.03  204.47
  -3  -3   0 5554.24  231.61
  -3  -3   0 5528.52  199.47
  -3  -3  -137534.59 1249.29
   3   3   2  626.36   46.82
   3   3   2  682.47   48.59
   3   3   2  950.88   70.20
  -3  -3  -2  864.60   61.09
  -3  -3  -2  886.64   55.51
   3   3   312203.74  434.60
  -3  -3  -312279.32  422.09
  -3  -3  -311961.18  421.74
   3   3   410033.82  374.08
  -3  -3  -4 9542.58  364.86
   3   3   5 1002.81   68.58
   3   3   5  768.62   74.43
  -3  -3  -5  996.46   74.43
  -3  -3  -5  867.19   75.01
   3   3   6 1696.79  113.06
  -3  -3  -6 1838.27  108.93
  -3  -3  -6 1247.87  102.69
   3   3   7 3150.19  143.51
  -3  -3  -7 3249.94  162.61
  -3  -3  -7 2800.07  173.82
   3   3   8  164.52   54.08
  -3  -3  -8   92.15   57.70
   3   3   9 2853.18  142.09
  -3  -3  -9 3102.69  153.13
   3   3  10 1383.45  113.28
  -3  -3 -10 1515.93  104.22
   3   3  11  124.51   69.84
  -3  -3 -11   78.84   72.84
  -3  -3 -12 1262.22  125.09
  -3  -3 -13  585.75  102.27
  -3  -3 -14   33.98  103.10
   3   4   0  265.65   49.31
  -3  -4   0  222.12   40.29
  -3  -4   0  237.92   44.80
   3   4   1 7634.10  318.77
  -3  -4  -1 8191.25  305.43
  -3  -4  -1 7699.79  286.24
  -3  -4  -212721.19  427.62
  -3  -4  -211074.32  409.95
   3   4   3  138.49   46.45
   3   4   3   58.79   41.47
  -3  -4  -3  114.44   47.94
  -3  -4  -3    3.17   42.34
   3   4   4 6843.28  272.58
  -3  -4  -4 7494.81  291.72
  -3  -4  -4 6317.15  286.30
   3   4   5 3207.97  139.54
  -3  -4  -5 3255.23  151.75
  -3  -4  -5 2818.69  139.84
   3   4   6   54.95   56.10
  -3  -4  -6   56.59   59.53
   3   4   7 2719.07  142.93
  -3  -4  -7 3040.57  160.58
   3   4   8 1125.78  101.03
  -3  -4  -8 1250.56   94.70
   3   4   9  185.00   67.40
  -3  -4  -9  267.43   75.01
  -3  -4 -10 1311.36  119.45
  -3  -4 -11  406.75  152.86
  -3  -4 -12  274.86  109.19
   3   5   0 5612.73  238.38
  -3  -5   0 5754.38  239.02
  -3  -5   0 6079.32  278.83
   3   5   1  124.96   32.31
  -3  -5  -1  177.48   48.81
   3   5   2 6665.25  269.29
  -3  -5  -2 7175.86  267.54
  -3  -5  -2 5995.12  253.33
   3   5   3 2195.66  121.39
  -3  -5  -3 2223.05  113.53
   3   5   4 1173.28   88.89
  -3  -5  -4 1225.29   99.78
   3   5   5 3045.54  155.76
  -3  -5  -5 2884.72  157.24
   3   5   6  351.83   77.05
  -3  -5  -6  546.51   69.25
   3   5   7  404.73   76.90
  -3  -5  -7  481.91   79.04
  -3  -5  -8 1373.87  119.09
  -3  -5  -9  249.12   91.19
  -3  -5 -10  190.91   90.25
  -3  -5 -11  483.22   95.43
   3   6   1  970.25   85.95
  -3  -6  -1 1089.59  102.23
   3   6   2 1686.68  106.31
  -3  -6  -2 1693.82  107.97
   3   6   4   80.00   70.44
  -3  -6  -4  101.45   69.61
   3   6   5  806.32   87.16
  -3  -6  -5  795.32   93.72
  -3  -6  -6  943.73  106.67
  -3  -6  -7  115.13  144.49
  -3  -6  -8  497.82   99.94
  -3  -6  -9  491.64   96.47
   3   7   0  621.80   88.36
  -3  -7   0  422.93   75.30
   3   7   1  852.04   89.12
  -3  -7  -1  938.77   99.03
  -3  -7  -2  110.32   78.83
  -3  -7  -3 1853.74  136.17
  -3  -7  -4 1240.68  122.00
  -3  -7  -5   68.89  130.39
  -3  -7  -6  655.46  106.46
  -3  -8  -1  956.31  102.30
  -3  -8  -3   98.53   90.85
   4  -9   1  591.67  109.94
  -4   9  -1  526.62  105.81
   4  -9   2   83.97   81.59
  -4   9  -2  125.39  102.22
   4  -9   3 1866.01  130.71
  -4   9  -5  182.19  115.79
  -4   9  -6 1199.25  131.81
   4  -8   1 2298.25  142.75
  -4   8  -1 2515.34  152.01
   4  -8   2 1012.23  109.42
  -4   8  -2  927.53  100.22
   4  -8   3 1008.28  103.28
  -4   8  -3 1054.08  112.02
  -4   8  -4 3205.99  187.13
   4  -8   6 1172.15  117.25
  -4   8  -6 1221.11  110.58
   4  -8   7 1789.98  133.36
  -4   8  -7 1715.50  136.75
   4  -8   8  189.15   96.22
  -4   8  -8   36.49   91.47
  -4   8  -8  386.27  112.85
  -4   8  -9  917.55  115.60
  -4   8  -9  624.24   95.27
  -4   8 -10 1380.24  149.41
  -4   8 -10 1070.71  124.29
  -4   7  -1 1411.72  121.88
   4  -7   2 6078.62  289.31
  -4   7  -2 5699.84  304.92
   4  -7   3  537.72  100.67
  -4   7  -3  351.92   94.41
   4  -7   5 2551.63  154.06
  -4   7  -5 2632.54  156.59
   4  -7   6  244.57   83.03
   4  -7   7 2309.14  132.18
  -4   7  -7 2151.22  146.12
   4  -7   9   89.28   85.85
  -4   7  -9   40.39   84.54
  -4   7  -9  -51.46   94.80
   4  -7  10 2113.20  133.38
  -4   7 -10 2413.06  176.70
  -4   7 -11 1057.97  159.24
  -4   7 -11  745.04  114.50
  -4   7 -12  345.56   95.13
  -4   7 -12  122.65  114.68
  -4   7 -13 1535.78  129.85
   4  -6   1  280.18   69.65
   4  -6   1   54.17   50.37
  -4   6  -1  218.47   79.87
   4  -6   2 1889.53  104.43
   4  -6   2 1290.64   97.45
  -4   6  -2 1717.30  116.20
   4  -6   6 1314.47  104.01
  -4   6  -6 1614.21  108.52
   4  -6   7 1134.93   93.16
  -4   6  -7 1089.65   95.10
  -4   6  -7  814.81   98.69
   4  -6   9 1292.13   97.34
  -4   6  -9 1253.89  123.85
  -4   6  -9  925.29   92.56
   4  -6  10  809.48   89.86
  -4   6 -10  596.59   93.35
  -4   6 -10  771.28  114.79
   4  -6  11 2754.65  171.58
  -4   6 -11 2953.70  189.29
  -4   6 -12  311.44   91.94
  -4   6 -12  368.78  110.02
  -4   6 -13 1112.09  116.63
  -4   6 -13  681.42  121.91
  -4   6 -14 1144.98  118.55
  -4   6 -14  560.22  108.65
   4  -5   1 2269.97  104.14
   4  -5   1 1867.46  104.10
  -4   5  -1 2347.76  124.99
  -4   5  -1 1864.65  115.14
   4  -5   2  364.82   52.18
  -4   5  -2  484.06   59.45
  -4   5  -2  271.72   68.10
  -4   5  -2  447.33   46.61
   4  -5   3 9398.51  369.82
  -4   5  -3 9539.49  391.53
  -4   5  -3 7703.55  327.04
   4  -5   4 1389.82   80.78
  -4   5  -4 1836.99  116.78
  -4   5  -4 1371.26   90.50
  -4   5  -4  952.20   97.08
  -4   5  -4 1249.02   72.34
  -4   5  -5 4250.05  192.64
  -4   5  -5 4097.68  176.50
   4  -5   7  108.76   58.25
  -4   5  -7   83.82   77.29
  -4   5  -8 2222.42  143.29
  -4   5  -8 1726.52  124.58
   4  -5   9 3397.44  160.83
  -4   5  -9 3257.41  199.68
   4  -5  10  162.87   59.01
  -4   5 -10  109.13   77.42
  -4   5 -10  189.55   81.13
   4  -5  11 2100.30  145.98
  -4   5 -11 2477.79  157.93
  -4   5 -13  -98.13   82.80
  -4   5 -13  -66.79   83.75
  -4   5 -14 1731.83  147.92
  -4   5 -14 1103.61  112.26
  -4   5 -15  380.38  103.06
  -4   5 -15  224.20   87.72
   4  -4   1 8692.19  394.48
  -4   4  -111357.36  425.79
  -4   4  -110056.96  398.61
  -4   4  -1 8829.43  441.13
   4  -4   2  775.50   69.08
   4  -4   2  624.59   48.96
  -4   4  -2 1010.74   83.00
  -4   4  -2  765.81   83.85
  -4   4  -2  830.14   52.18
   4  -4   3 2893.64  133.58
  -4   4  -3 3617.44  162.58
  -4   4  -3 3580.07  142.73
   4  -4   411697.07  457.79
  -4   4  -410188.39  448.74
  -4   4  -4 9836.42  381.71
   4  -4   5  231.90   56.64
  -4   4  -5  310.70   52.19
  -4   4  -5  135.60   76.42
   4  -4   614093.37  525.55
  -4   4  -614241.95  575.36
  -4   4  -611873.98  567.19
   4  -4   7 6149.95  262.23
  -4   4  -7 6222.00  275.15
  -4   4  -7 4917.34  246.71
   4  -4   8   40.83   49.39
  -4   4  -8   68.98   73.26
  -4   4  -8  147.32   46.93
  -4   4  -8  134.54   75.57
   4  -4   9 4176.54  177.80
  -4   4  -9 4124.13  195.68
   4  -4  10 1787.63  111.99
  -4   4 -10 1861.03  117.31
   4  -4  11   82.68   68.04
  -4   4 -11   78.35   70.70
  -4   4 -11  188.11   88.89
   4  -4  12 2207.76  118.69
  -4   4 -12 2337.04  143.34
  -4   4 -12 1749.15  126.20
  -4   4 -13  732.94   96.39
  -4   4 -13  394.18   77.07
  -4   4 -14  688.46  107.00
  -4   4 -14  732.57  125.48
  -4   4 -15 1672.65  140.71
  -4   4 -15 1348.19  116.72
   4  -3   114353.12  522.42
   4  -3   116081.41  559.45
   4  -3   112100.23  557.25
  -4   3  -115429.29  584.31
  -4   3  -115431.69  725.95
  -4   3  -113526.73  514.24
   4  -3   2 8311.07  317.15
   4  -3   2 6957.39  300.85
  -4   3  -2 7898.51  295.10
   4  -3   3   63.30   25.11
  -4   3  -3  115.90   38.98
  -4   3  -3  -44.74   60.51
  -4   3  -3  134.24   30.72
   4  -3   414429.89  569.61
   4  -3   415688.10  529.14
  -4   3  -415384.00  587.13
   4  -3   5 4325.58  178.91
  -4   3  -5 4448.46  227.55
  -4   3  -5 4435.89  210.41
   4  -3   6 2366.04  123.24
  -4   3  -6 2546.69  125.84
   4  -3   713023.77  469.69
  -4   3  -713414.34  469.18
  -4   3  -712827.68  499.08
   4  -3   8 2338.27  109.90
  -4   3  -8 2233.99  120.42
  -4   3  -8 1914.08  116.88
   4  -3   9  791.52   66.24
  -4   3  -9  770.55   81.72
  -4   3  -9  568.62   58.70
  -4   3  -9  527.13   68.72
   4  -3  10 3653.13  168.51
  -4   3 -10 3888.41  208.97
   4  -3  11 1012.54   77.10
  -4   3 -11 1139.69   98.02
  -4   3 -11  854.53   89.40
   4  -3  12 1400.02  126.28
  -4   3 -12 1085.62  105.62
  -4   3 -12 1175.51  134.57
  -4   3 -13 2684.18  175.10
  -4   3 -13 2012.89  144.37
  -4   3 -14   56.80   73.15
  -4   3 -14   61.78   79.13
  -4   3 -15 1292.83  128.44
  -4   3 -15 1045.13  105.66
  -4   3 -16  646.32   95.34
   4  -2   1 5602.23  261.22
   4  -2   1 5017.23  211.15
  -4   2  -1 5215.81  244.78
   4  -2   214843.46  548.36
   4  -2   214569.45  537.24
   4  -2   3 3920.05  154.30
  -4   2  -3 3843.32  183.75
  -4   2  -3 3978.93  189.12
   4  -2   4 3188.36  140.52
  -4   2  -4 3410.26  135.41
   4  -2   519859.35  699.09
  -4   2  -519955.86  681.86
   4  -2   6 2068.65   98.18
   4  -2   6 1887.68   75.79
  -4   2  -6 2087.32  100.63
  -4   2  -6 2261.11  123.76
   4  -2   7 6023.59  221.63
  -4   2  -7 5533.91  302.69
  -4   2  -7 4500.72  254.48
   4  -2   8 7506.83  284.83
  -4   2  -8 8122.80  400.55
  -4   2  -8 7631.92  378.01
   4  -2   9   61.42   45.41
  -4   2  -9   34.34   57.79
  -4   2  -9   26.76   59.34
   4  -2  10 2649.90  141.76
  -4   2 -10 2790.53  152.00
  -4   2 -10 2195.45  131.37
   4  -2  11 2022.48  107.95
  -4   2 -11 2254.59  159.29
  -4   2 -11 1539.16  112.49
   4  -2  12   53.78   60.64
  -4   2 -12   99.55   60.97
  -4   2 -12  121.01   62.47
  -4   2 -13 1664.82  118.00
  -4   2 -13 1453.51  110.32
  -4   2 -14 1339.61  125.33
  -4   2 -14 1079.87   91.55
  -4   2 -15  178.75   80.96
  -4   2 -16  988.84  111.77
   4  -1   1 1470.91   68.70
   4  -1   1 1388.66   89.63
   4  -1   1 1564.45   88.05
  -4   1  -1 1631.52   64.61
  -4   1  -1 1634.15   69.62
  -4   1  -1 1326.30   99.03
   4  -1   2 7148.03  262.34
   4  -1   2 6829.43  271.71
   4  -1   2 6445.55  274.35
   4  -1   2 6953.04  257.59
  -4   1  -2 7147.18  285.66
  -4   1  -2 5872.21  299.14
   4  -1   3 8339.77  319.60
   4  -1   3 6958.78  331.66
   4  -1   3 8156.99  286.91
  -4   1  -3 8249.89  341.53
   4  -1   4  900.63   53.40
   4  -1   4  669.18   45.02
   4  -1   4  699.68   36.81
  -4   1  -4  719.07   55.26
  -4   1  -4  619.47   70.65
   4  -1   5 7935.83  288.27
   4  -1   5 7535.92  289.18
  -4   1  -5 7525.22  333.27
   4  -1   611561.05  447.42
   4  -1   611202.70  393.76
   4  -1   612321.37  446.30
  -4   1  -611888.46  467.84
  -4   1  -613152.98  425.33
   4  -1   7  118.79   34.09
   4  -1   7   36.16   20.04
   4  -1   7    5.75   22.46
  -4   1  -7    7.59   46.57
  -4   1  -7  -16.85   32.09
  -4   1  -7  -13.06   64.49
   4  -1   8 8522.13  322.44
  -4   1  -8 8831.01  331.43
  -4   1  -8 8178.03  317.90
   4  -1   9 3040.88  126.64
  -4   1  -9 3346.90  148.93
  -4   1  -9 2584.99  123.54
  -4   1  -9 2730.93  143.62
   4  -1  10  171.56   50.93
  -4   1 -10  221.17   59.17
  -4   1 -10  106.23   59.72
   4  -1  11 2254.51  113.28
  -4   1 -11 2401.73  133.68
  -4   1 -11 1895.53  117.40
  -4   1 -12 1830.07  117.93
  -4   1 -12 1237.39  108.43
  -4   1 -13   72.24   72.89
  -4   1 -13   96.19   61.77
  -4   1 -14 1375.33  112.32
  -4   1 -14 1158.82   99.33
  -4   1 -15  327.89  164.27
  -4   0   039540.16 1259.79
  -4   0   035531.09 1298.60
  -4   0  -133776.16 1165.86
  -4   0  -131388.96 1124.31
   4   0   2 1030.40   44.77
   4   0   2  681.43   61.50
   4   0   2 1028.61   76.53
   4   0   2  981.04   55.32
  -4   0  -2  952.32   40.52
  -4   0  -2  748.12   73.16
   4   0   3 5791.72  275.32
   4   0   3 6583.30  281.70
  -4   0  -3 6373.22  248.13
   4   0   4 3520.66  146.76
  -4   0  -4 3371.01  172.27
   4   0   5  709.75   47.92
   4   0   5  648.56   50.19
   4   0   5  544.21   53.44
  -4   0  -5  639.10   55.57
  -4   0  -5  759.81   49.26
  -4   0  -5  649.14   70.44
   4   0   6 7235.33  293.73
   4   0   6 8078.38  277.07
   4   0   6 7618.19  296.89
  -4   0  -6 7725.38  354.02
  -4   0  -6 8102.70  294.90
  -4   0  -6 7023.62  287.11
   4   0   7 2737.25  119.40
   4   0   7 2706.46  126.71
  -4   0  -7 2797.69  158.23
  -4   0  -7 2671.79  110.05
  -4   0  -7 2060.65  121.89
   4   0   8 1642.56   80.80
   4   0   8 1309.74   84.50
  -4   0  -8 1812.71  114.37
  -4   0  -8 1483.26   83.79
  -4   0  -8 1373.34   99.93
   4   0   9 5759.38  220.63
  -4   0  -9 5843.63  287.03
  -4   0  -9 4581.11  229.39
   4   0  10 1058.31   72.63
  -4   0 -10 1064.12   94.47
  -4   0 -10  957.87   96.24
  -4   0 -11  535.70   80.73
  -4   0 -11  416.46   69.16
  -4   0 -12 1581.94  123.04
  -4   0 -13  382.20  109.40
  -4   0 -14  289.20   78.03
  -4   0 -15  861.62   97.88
   4   1   0 4602.78  222.60
  -4  -1   0 4356.11  197.62
  -4  -1   0 3954.53  215.04
  -4  -1  -121553.66  800.17
   4   1   2 4202.02  152.08
   4   1   2 3611.36  152.52
  -4  -1  -2 3883.58  150.13
   4   1   3 1238.66   61.92
   4   1   3 1009.90   51.02
  -4  -1  -3 1189.58   55.26
  -4  -1  -3  950.61   86.23
   4   1   4 5514.64  203.54
  -4  -1  -4 5847.54  228.63
  -4  -1  -4 4958.08  227.43
   4   1   5 2481.93  126.65
   4   1   5 3259.50  142.38
   4   1   5 3296.07  134.15
  -4  -1  -5 3106.44  117.05
  -4  -1  -5 2614.14  156.42
   4   1   6 1519.86   74.71
   4   1   6 1300.42   94.70
  -4  -1  -6 1706.59   93.35
  -4  -1  -6 1389.60   82.52
   4   1   7 6541.98  246.47
   4   1   7 5337.41  236.15
  -4  -1  -7 6106.44  249.65
  -4  -1  -7 5541.52  270.64
   4   1   8  335.02   64.46
   4   1   8  261.79   51.32
  -4  -1  -8  358.56   60.80
   4   1   9 2618.97  131.39
  -4  -1  -9 2777.08  143.28
   4   1  10 2137.27  121.69
  -4  -1 -10 2364.14  127.13
  -4  -1 -11   69.25   62.11
  -4  -1 -12  410.71   81.88
  -4  -1 -13  670.20  105.68
  -4  -1 -14   24.68   78.25
   4   2   0 4209.80  159.24
  -4  -2   0 3992.66  190.09
   4   2   110151.41  343.93
   4   2   1 8570.65  324.47
  -4  -2  -110047.57  335.78
   4   2   212763.51  472.76
  -4  -2  -213612.86  448.73
  -4  -2  -211911.20  468.15
   4   2   3   41.89   32.53
   4   2   3   82.54   32.22
  -4  -2  -3  -26.28   33.68
  -4  -2  -3   63.42   34.23
   4   2   4 3669.05  143.68
   4   2   4 2912.89  142.91
  -4  -2  -4 3786.51  147.55
  -4  -2  -4 3102.12  140.39
   4   2   5 4791.16  184.00
  -4  -2  -5 4773.61  191.18
  -4  -2  -5 4418.19  180.90
   4   2   6   42.69   38.12
  -4  -2  -6   80.65   45.32
  -4  -2  -6  148.12   39.31
   4   2   7 2909.44  146.70
  -4  -2  -7 3098.77  140.70
   4   2   8 2380.11  126.10
  -4  -2  -8 2688.36  120.47
  -4  -2  -9   60.64   60.81
  -4  -2 -10 2395.16  133.81
  -4  -2 -11  708.58   86.82
  -4  -2 -12  194.15   78.17
  -4  -2 -13  179.27   81.93
   4   3   011332.02  400.14
   4   3   0 8967.13  356.19
  -4  -3   010962.82  397.16
   4   3   1   20.79   35.60
   4   3   1    7.90   30.02
   4   3   1   76.98   38.24
  -4  -3  -1  -21.46   35.43
  -4  -3  -1   34.92   27.49
   4   3   2 9104.50  343.37
  -4  -3  -2 8093.62  348.72
   4   3   3 3697.29  175.30
  -4  -3  -3 4063.11  158.88
  -4  -3  -3 3411.09  160.85
   4   3   4  363.63   47.31
  -4  -3  -4  398.72   61.40
  -4  -3  -4  385.38   56.31
   4   3   5 2988.01  126.65
  -4  -3  -5 2493.92  141.19
   4   3   6 2109.54  106.85
  -4  -3  -6 2300.14  121.93
   4   3   7  209.41   58.35
  -4  -3  -7  305.26   62.31
  -4  -3  -8 2905.42  164.76
  -4  -3  -9  380.06   76.62
  -4  -3 -10  431.92   80.34
  -4  -3 -11  777.85   98.87
  -4  -3 -12   29.75   86.08
   4   4   0 9282.50  338.12
  -4  -4   0 9091.42  360.22
   4   4   1 5630.14  236.23
  -4  -4  -1 6298.86  239.71
  -4  -4  -1 5398.04  220.13
  -4  -4  -2 1329.72   78.58
  -4  -4  -2 1110.35   79.25
   4   4   3 4698.53  204.60
  -4  -4  -3 5003.99  195.91
   4   4   4  619.92   82.50
   4   4   5 1222.09   93.67
  -4  -4  -6 2131.70  119.48
  -4  -4  -7  180.68   59.92
  -4  -4  -8  571.68   83.72
  -4  -4  -9 1211.26  141.94
  -4  -4 -10   34.85   98.91
  -4  -4 -11  193.96   76.83
   4   5   0 1909.77  106.09
  -4  -5   0 2042.68  120.91
   4   5   1 5641.16  228.00
  -4  -5  -1 6381.41  281.13
   4   5   2  423.09   61.35
  -4  -5  -2  649.09   74.48
  -4  -5  -5   93.58   67.03
  -4  -5  -6  514.00   83.39
  -4  -5  -7  879.48  120.87
  -4  -5  -8 -128.39   71.76
  -4  -5  -9  593.51   91.93
  -4  -6   0  196.13   75.49
  -4  -6  -1 3069.01  189.56
  -4  -6  -2 2476.69  150.33
  -4  -6  -3  -36.27   65.64
  -4  -6  -4 1249.61  109.72
  -4  -6  -5  504.58   97.48
  -4  -6  -6  -34.19   75.58
  -4  -6  -7  402.89   93.08
  -4  -7   0  702.14   91.40
  -4  -7  -3  730.85  138.41
  -4  -7  -4  146.71  109.39
  -5   8  -1   81.06  119.48
  -5   8  -1   34.27   57.07
  -5   8  -2 1313.97  121.15
  -5   8  -2  759.08  112.07
  -5   8  -3 1299.78  129.44
  -5   8  -3  699.85  110.35
  -5   8  -4  117.53  104.47
  -5   8  -5 1053.28  114.64
  -5   8  -5  570.43  141.27
  -5   8  -6  502.00   96.57
  -5   8  -6  172.94  113.22
  -5   8  -7  190.36   95.27
  -5   8  -7 -134.85  104.22
  -5   8  -8  653.26  113.12
   5  -7   1  744.57   83.97
   5  -7   1  372.72   70.58
  -5   7  -1  640.68   91.82
  -5   7  -1  317.08   86.82
   5  -7   2  381.74   78.15
   5  -7   2  287.48   62.69
  -5   7  -2  554.17   87.29
  -5   7  -2   64.94   93.00
  -5   7  -3 1915.43  153.24
  -5   7  -5  294.48  112.38
  -5   7  -7  223.90  104.14
  -5   7  -8  417.20   80.65
  -5   7  -8  184.90  112.43
  -5   7  -9 1008.95  108.49
  -5   7  -9  889.64  129.28
  -5   7 -10  177.17   88.19
  -5   7 -10 -103.00  104.61
   5  -6   1 2795.50  131.77
  -5   6  -1 2721.38  184.92
   5  -6   2  713.03   65.59
  -5   6  -2  481.29   79.42
   5  -6   5  139.12   70.99
  -5   6  -5  397.17   78.07
  -5   6  -5  123.71   61.87
  -5   6  -6 2337.67  131.09
  -5   6  -6 1590.42  150.82
  -5   6  -7 1264.70  117.01
  -5   6  -8  -52.20   70.04
  -5   6  -8  199.22   98.02
  -5   6  -9  753.62  110.19
  -5   6  -9  577.87  120.49
  -5   6 -10 1090.55  112.10
  -5   6 -10  942.02  125.01
  -5   6 -11  -33.08   83.69
  -5   6 -11  -35.50   99.47
  -5   6 -12 1550.14  135.78
  -5   6 -12 1285.07  131.62
   5  -5   1 2399.58  116.88
  -5   5  -1 1883.22  131.11
   5  -5   2 5002.18  227.81
  -5   5  -2 4820.30  230.04
   5  -5   3  248.72   43.72
  -5   5  -3  169.86   78.54
   5  -5   4 4489.03  212.29
  -5   5  -4 4815.71  208.07
   5  -5   5 4779.24  212.66
  -5   5  -5 5070.29  221.67
   5  -5   6  103.04   57.67
  -5   5  -6  143.09   64.83
  -5   5  -6   74.40   88.73
  -5   5  -8 2164.99  140.50
  -5   5  -8 1573.51  137.11
  -5   5  -9  -16.23   65.44
  -5   5  -9  -84.11   91.73
  -5   5 -10 1645.22  127.29
  -5   5 -10 1126.83  122.13
  -5   5 -11  669.93   86.41
  -5   5 -11  459.55  122.56
  -5   5 -12  558.22   92.05
  -5   5 -12  305.64   73.07
  -5   5 -13 1485.96  127.86
  -5   5 -13 1320.73  118.80
   5  -4   1   95.91   46.45
  -5   4  -1  266.59   64.45
  -5   4  -1  168.15   43.43
  -5   4  -1   28.52   67.61
  -5   4  -1  219.08   46.21
  -5   4  -2 5311.57  224.65
  -5   4  -2 4219.80  191.53
  -5   4  -2 4241.75  180.23
   5  -4   3 5168.60  221.22
  -5   4  -3 5556.13  212.08
  -5   4  -3 4286.10  193.89
   5  -4   4  717.58   60.79
   5  -4   4  526.10   47.72
  -5   4  -4  801.81   66.18
  -5   4  -4  646.26   51.52
  -5   4  -4  413.13   87.68
   5  -4   5 5271.89  198.71
  -5   4  -7 1267.60   87.20
  -5   4  -7  802.49   80.62
  -5   4  -9  764.03   83.72
  -5   4  -9  516.14   91.37
  -5   4 -10  359.60   75.53
  -5   4 -10  282.00   68.83
  -5   4 -11 1951.74  140.59
  -5   4 -11 1569.92  122.82
  -5   4 -12  238.26   73.31
  -5   4 -12   77.11   89.07
  -5   4 -13  733.98   96.14
  -5   4 -13  488.89  102.97
  -5   4 -14  980.61  119.83
  -5   4 -14  819.70  142.11
  -5   3  -1 1832.10   85.33
  -5   3  -1 1649.36   90.83
   5  -3   2  958.10   65.87
   5  -3   2 1197.57   73.33
  -5   3  -2 1066.63   63.18
   5  -3   3 4293.36  182.42
  -5   3  -3 3920.28  190.19
   5  -3   4 3379.40  149.56
  -5   3  -4 3665.98  168.92
  -5   3  -4 3164.47  164.54
   5  -3   5 2621.43  121.56
  -5   3  -5 2600.12  131.26
  -5   3  -5 2587.17  150.39
   5  -3   6 5486.84  229.41
  -5   3  -6 6074.49  244.32
   5  -3   7   68.60   39.16
  -5   3  -7  167.15   47.72
  -5   3  -7   17.26   68.87
  -5   3  -8 2808.74  177.28
  -5   3  -8 2119.96  166.14
  -5   3  -9 2263.30  164.06
  -5   3  -9 1724.77  139.53
  -5   3 -10  -24.21   64.18
  -5   3 -10 -127.99   72.02
  -5   3 -11 1036.88   93.03
  -5   3 -11  913.71  110.02
  -5   3 -12 1901.02  124.70
  -5   3 -12 1531.30  118.89
  -5   3 -13 -176.08   83.53
  -5   3 -13   16.49   71.40
  -5   3 -14  706.36   95.92
  -5   3 -14  513.51  100.35
   5  -2   1 7064.61  274.91
   5  -2   1 7736.10  309.11
  -5   2  -1 7099.57  282.90
   5  -2   2  867.13   49.67
   5  -2   2  878.37   58.19
   5  -2   2  702.06   53.68
  -5   2  -2  901.00   53.38
  -5   2  -2 1029.34   56.17
   5  -2   3 3703.23  161.27
   5  -2   3 3379.20  142.51
  -5   2  -3 3578.93  145.25
   5  -2   4 6160.73  259.68
   5  -2   4 5863.37  251.14
  -5   2  -4 6386.15  273.83
   5  -2   5   51.74   34.33
   5  -2   5   36.61   22.45
  -5   2  -5   15.76   35.66
  -5   2  -5   98.20   69.14
   5  -2   6 4129.84  173.87
   5  -2   6 3490.60  141.53
  -5   2  -6 3372.17  166.29
   5  -2   7 3478.07  163.10
  -5   2  -7 3849.20  180.10
  -5   2  -7 3129.03  166.65
  -5   2  -8  263.00   47.55
  -5   2  -8  163.10   50.71
  -5   2 -10  573.11   87.67
  -5   2 -11  151.96   68.60
  -5   2 -11    4.93   81.63
  -5   2 -12 1433.64  113.08
  -5   2 -12 1327.06  116.00
  -5   2 -13  808.11   93.61
  -5   2 -13  474.72   88.51
  -5   2 -14  304.34   99.38
  -5   2 -14  195.79   84.39
   5  -1   1 9045.48  318.45
  -5   1  -1 8476.11  368.72
  -5   1  -1 7672.50  346.92
   5  -1   2 3317.55  139.22
  -5   1  -2 2900.65  120.38
  -5   1  -2 3443.79  119.96
   5  -1   3  577.86   34.12
   5  -1   3  579.81   48.37
  -5   1  -3  666.59   41.38
  -5   1  -3  542.48   75.14
   5  -1   4 5529.13  230.70
   5  -1   4 5641.07  211.97
  -5   1  -4 5975.38  219.92
  -5   1  -4 5260.79  256.44
   5  -1   5 2602.15  121.21
   5  -1   5 2835.52  128.44
  -5   1  -5 2716.70  111.89
  -5   1  -5 2273.27  128.75
   5  -1   6  534.14   46.79
   5  -1   6  464.17   36.63
   5  -1   6  494.63   43.19
  -5   1  -6  671.35   54.52
  -5   1  -6  509.93   79.68
   5  -1   7 4980.66  199.93
   5  -1   7 4999.18  186.51
  -5   1  -7 5425.85  220.11
  -5   1  -7 4678.28  222.96
  -5   1  -8 1425.09   85.12
  -5   1  -8 1111.89   99.17
  -5   1  -9  785.11   72.17
  -5   1  -9  596.29  102.86
  -5   1 -10 1292.77  107.78
  -5   1 -10 1005.52   94.37
  -5   1 -11   69.16   55.20
  -5   1 -11    9.40   74.56
  -5   1 -12  272.28   67.44
  -5   1 -12  418.44   79.14
  -5   1 -13  888.85  104.42
  -5   1 -13  803.36   94.31
  -5   1 -14  -75.11   92.41
  -5   1 -14  108.15   98.62
   5   0   0 3028.94  131.20
  -5   0   0 2345.90  130.96
   5   0   3  704.65   33.14
   5   0   3  780.31   54.51
  -5   0  -3  779.93   37.87
  -5   0  -3  603.85   76.27
   5   0   4 1831.46   78.42
   5   0   4 1895.14  104.73
  -5   0  -4 2029.06   79.53
  -5   0  -4 1492.49  110.62
   5   0   5 5054.11  201.50
  -5   0  -5 5684.28  206.09
   5   0   6  853.80   62.40
   5   0   6  932.96   62.21
  -5   0  -6  953.12   62.63
  -5   0  -6  925.72   57.05
  -5   0  -6  859.50   92.79
  -5   0  -7 1873.64  104.72
  -5   0  -7 1761.12  133.48
  -5   0  -8 3784.99  167.24
  -5   0  -8 3425.40  189.26
  -5   0  -9   72.51   90.68
  -5   0 -10  855.99   74.05
  -5   0 -10  746.18   88.28
  -5   0 -11  671.26   71.25
  -5   0 -12   76.27   75.29
  -5   0 -13  498.66   78.69
   5   1   011024.42  413.15
  -5  -1   0 9444.50  394.23
  -5  -1  -1  375.24   68.98
  -5  -1  -2 4974.88  235.80
   5   1   3 6386.32  232.31
   5   1   3 5858.01  228.33
  -5  -1  -3 7165.62  245.50
  -5  -1  -3 6220.97  233.62
   5   1   4   28.23   26.28
   5   1   4   32.90   26.52
   5   1   5 2907.06  124.02
   5   1   5 2628.23  135.03
  -5  -1  -6 3477.54  140.85
  -5  -1  -7  -50.20   36.21
  -5  -1  -8 2144.49  107.44
  -5  -1  -9  971.25   79.34
  -5  -1 -10  130.75   54.35
  -5  -1 -11  643.30   82.99
  -5  -1 -12  191.31   94.83
  -5  -1 -13   51.74   74.79
   5   2   0 8396.94  300.58
  -5  -2   0 8284.01  311.71
  -5  -2   0 7829.11  339.72
   5   2   1 4905.20  179.50
  -5  -2  -1 5027.10  200.74
   5   2   2  141.82   27.14
  -5  -2  -2  245.52   31.26
  -5  -2  -4 1726.62   95.29
  -5  -2  -5   71.49   41.44
  -5  -2  -6 2195.06  117.62
  -5  -2  -7 1288.40   95.01
  -5  -2  -8  317.18   66.02
  -5  -2  -9 1614.88  109.06
  -5  -2 -10  133.34   61.18
  -5  -2 -11   99.35   99.35
  -5  -2 -12  431.36   76.38
   5   3   0  211.38   34.74
   5   3   1 8197.82  338.26
  -5  -3  -1 9835.06  349.55
  -5  -3  -2 1824.49   89.58
  -5  -3  -3 1633.30   82.13
  -5  -3  -4 3679.74  163.98
  -5  -3  -5  563.00   62.88
  -5  -3  -6  378.39   67.00
  -5  -3  -7  938.04   79.65
  -5  -3  -8  137.30   63.75
  -5  -3 -10  438.85   89.16
  -5  -3 -11   56.37   70.21
  -5  -4  -2 3765.10  158.61
  -5  -4  -3  145.68   54.95
  -5  -4  -5 1412.64   86.28
  -5  -4  -6  -41.31   49.80
  -5  -4  -7  427.62   78.98
  -5  -4  -8  575.20   90.55
  -5  -4  -9  -22.39   82.15
  -5  -5   0 2434.69  139.89
  -5  -5  -1  -38.49   57.74
  -5  -5  -3  936.78   84.61
  -5  -5  -4  -72.49   71.18
  -5  -5  -5  834.20   80.43
  -5  -5  -7  -90.97   64.80
  -5  -6   0 1165.20   97.51
  -5  -6  -1  471.76   78.20
  -5  -6  -2  338.54   80.78
  -5  -6  -3 1135.14  107.90
  -5  -6  -4   45.23   70.86
  -5  -6  -5  209.92   88.33
  -5  -7   0  -27.06   62.55
  -5  -7  -1  365.78   82.24
  -6   7  -1  267.06   78.22
  -6   7  -1  163.86   93.99
  -6   7  -3  586.60   99.31
  -6   7  -3  152.02  110.19
  -6   7  -4  883.32   95.68
  -6   7  -4  355.19   91.68
  -6   7  -5 1225.93  117.71
  -6   7  -5  546.49  120.90
  -6   7  -6  178.07   86.23
  -6   7  -6   76.15   77.92
  -6   7  -7   95.72  114.34
   6  -6   1   89.88   56.24
  -6   6  -1  136.65   84.71
  -6   6  -2  289.38   78.23
  -6   6  -3 1160.97   95.19
  -6   6  -3  653.11  101.74
  -6   6  -4   29.42   67.20
  -6   6  -4   35.31   93.92
  -6   6  -6  683.58  120.83
  -6   6  -7  255.18   82.68
  -6   6  -7    4.82   98.78
  -6   6  -8  843.84   95.11
  -6   6  -8  755.03  135.82
  -6   6  -9  582.21   85.58
  -6   6  -9  358.69   79.66
  -6   6 -10  -44.38   71.88
  -6   6 -10  104.60  115.97
   6  -5   1 1001.93   76.15
  -6   5  -1  930.86   83.29
   6  -5   2  -34.40   37.81
  -6   5  -2   15.52   81.78
  -6   5  -4 1042.22   79.32
  -6   5  -4  646.31   89.43
  -6   5  -5  542.79  103.35
  -6   5  -7  241.73   57.91
  -6   5  -7  128.02   95.09
  -6   5  -8  378.30   80.53
  -6   5  -8  322.34  103.91
  -6   5  -9  896.00   98.63
  -6   5  -9  693.93  115.88
  -6   5 -10  169.22   69.54
  -6   5 -10   35.21  103.40
  -6   5 -11  219.46   75.63
  -6   5 -11  446.91  110.44
   6  -4   1 2615.38  121.68
  -6   4  -1 2582.90  151.61
   6  -4   2  443.28   58.99
  -6   4  -2  395.42   75.36
   6  -4   3  375.52   44.93
  -6   4  -3  604.83   93.05
  -6   4  -5  149.50   53.91
  -6   4  -5   65.94   91.67
  -6   4  -6 1644.42  114.48
  -6   4  -7 2088.56  134.89
  -6   4  -7 1499.32  143.70
  -6   4  -8  117.12   67.02
  -6   4  -8   41.15   93.55
  -6   4  -9  433.10   63.70
  -6   4  -9  637.36  104.10
  -6   4 -10  495.80   86.70
  -6   4 -10  565.68  118.38
  -6   4 -11   30.71   63.59
  -6   4 -11   94.95   90.76
  -6   4 -12  947.61  162.08
  -6   4 -12  505.22  111.09
   6  -3   1 2104.67  111.66
  -6   3  -1 2136.81  205.96
   6  -3   2 2252.03  113.71
  -6   3  -2 2206.28  167.13
   6  -3   3   61.74   39.21
  -6   3  -3  110.72   36.38
  -6   3  -3  167.33   60.41
  -6   3  -4 2628.25  127.74
  -6   3  -4 2100.69  152.14
  -6   3  -5 2434.15  130.67
  -6   3  -5 1664.88  146.45
  -6   3  -6  155.70   46.66
  -6   3  -6  176.88   92.67
  -6   3  -7 2518.36  159.99
  -6   3  -7 2401.76  169.30
  -6   3  -8  757.21   76.92
  -6   3  -8  767.54  112.94
  -6   3  -9  -11.36   57.80
  -6   3  -9  173.18   89.86
  -6   3 -10  548.99   64.56
  -6   3 -10  621.05  122.99
  -6   3 -11  381.28   81.24
  -6   3 -11  412.55   93.76
  -6   3 -12  249.52  118.11
  -6   3 -12   90.03   90.53
   6  -2   1  303.87   25.28
   6  -2   1  319.68   23.07
   6  -2   1  347.76   53.16
  -6   2  -1  402.18   30.69
  -6   2  -1  395.22   27.00
  -6   2  -1  375.29   81.78
   6  -2   2 2925.48  133.71
  -6   2  -2 3342.74  138.46
  -6   2  -2 2905.53  186.52
   6  -2   3 1313.64   76.79
  -6   2  -3 1398.16   69.81
  -6   2  -3 1570.55   69.70
  -6   2  -3 1037.78  114.25
   6  -2   4  135.01   36.03
  -6   2  -4   91.88   32.77
  -6   2  -4  129.77   83.12
   6  -2   5 2879.98  132.46
  -6   2  -5 3260.93  138.16
  -6   2  -5 3273.05  175.84
  -6   2  -6 1364.32   72.82
  -6   2  -6 1072.52  106.65
  -6   2  -7  672.07   53.34
  -6   2  -7  539.69   73.15
  -6   2  -8 1834.16  103.15
  -6   2  -8 1913.53  135.96
  -6   2  -9   67.21   54.11
  -6   2  -9  189.99   81.67
  -6   2 -10  364.62   65.89
  -6   2 -10  314.72  112.84
  -6   2 -11  726.49   85.81
  -6   2 -11  964.31  114.22
  -6   2 -12   51.04   68.28
  -6   2 -12  160.65   89.05
   6  -1   1 1414.20   77.05
  -6   1  -1 1009.31  101.16
   6  -1   2  764.55   69.07
  -6   1  -2  723.83   69.88
   6  -1   3 2796.78  134.15
  -6   1  -3 2726.62  168.31
   6  -1   4  463.95   50.24
  -6   1  -4  477.81   29.39
  -6   1  -4  426.46   77.60
   6  -1   5  883.20   62.43
  -6   1  -5  911.30   52.76
  -6   1  -5 1169.15  118.97
   6  -1   6 2833.14  121.75
  -6   1  -6 2827.63  127.39
  -6   1  -6 2902.75  162.34
  -6   1  -7  195.41   39.87
  -6   1  -7  118.04   84.91
  -6   1  -8 1313.35   90.27
  -6   1  -8 1409.69  139.83
  -6   1  -9  881.51   75.63
  -6   1  -9  888.76  115.53
  -6   1 -10   40.67   63.94
  -6   1 -10 -125.69   80.54
  -6   1 -11  401.62   76.46
  -6   1 -11  323.05  123.20
  -6   1 -12  231.22   73.50
  -6   1 -12  609.54   95.02
   6   0   0 4439.35  174.20
  -6   0   0 4031.17  193.65
  -6   0   0 3607.27  195.81
   6   0   2  924.91   69.28
  -6   0  -2  718.30   86.04
   6   0   3 1121.44   77.65
  -6   0  -3 1059.07   86.91
   6   0   4 1285.41   86.56
  -6   0  -4 1476.86  124.99
   6   0   5   23.14   49.53
  -6   0  -5   31.93   24.80
  -6   0  -5   69.36   81.03
   6   0   6 1563.62   94.73
  -6   0  -6 1682.57   88.93
  -6   0  -6 1899.51  120.13
  -6   0  -7 1239.50   71.21
  -6   0  -7  934.24  112.36
  -6   0  -8  175.89   49.63
  -6   0  -8  140.36   88.34
  -6   0  -9 1038.13   80.81
  -6   0  -9 1134.60  103.55
  -6   0 -10  424.90   63.56
  -6   0 -11   71.24   65.54
   6   1   0  319.17   56.60
  -6  -1   0  371.55   71.71
   6   1   1 6099.67  260.25
   6   1   2 2895.76  135.07
   6   1   3   67.07   52.80
  -6  -1  -6  109.02   39.61
  -6  -1  -7 1497.61   90.73
  -6  -1  -8  209.29   51.82
  -6  -1  -9  343.40   61.05
  -6  -1 -10  530.18   84.19
  -6  -1 -11   78.80   56.17
   6   2   0 1601.46   93.40
  -6  -2  -5 1146.65   70.27
  -6  -2  -6  208.73   48.85
  -6  -2  -7  411.45   56.78
  -6  -2  -8  710.47   70.33
  -6  -2  -9   96.90   73.46
  -6  -2 -10  320.54   69.33
  -6  -3  -5  728.91   67.11
  -6  -3  -7   12.03   61.62
  -6  -4  -3  994.07   78.78
  -6  -4  -4  328.18   61.75
  -6  -4  -6  340.47   71.37
  -6  -5  -3  298.53   70.64
  -7   6  -1  706.53   88.63
  -7   6  -1  252.41   77.10
  -7   6  -2  580.03   78.62
  -7   6  -2  334.46   78.12
  -7   6  -3  306.16   95.71
  -7   6  -3  206.84  112.07
  -7   6  -4 1566.14  115.49
  -7   6  -4  892.96  134.12
  -7   6  -5  224.03   74.34
  -7   6  -5  436.23   99.23
  -7   6  -6  411.46   72.79
  -7   5  -1  251.95   75.30
  -7   5  -2  914.34  128.93
  -7   5  -3  177.82  105.48
  -7   5  -4  503.32   66.66
  -7   5  -4  347.80  115.86
  -7   5  -5 1118.73   88.53
  -7   5  -5  883.36  124.38
  -7   5  -6   26.81   57.73
  -7   5  -6  -99.47  103.90
  -7   5  -7  417.65   66.03
  -7   5  -7  525.57  111.37
  -7   5  -8  442.05   81.00
  -7   5  -8  527.33  132.54
   7  -4   1   62.94   46.20
  -7   4  -1  158.44   54.11
  -7   4  -1   -7.55   94.40
  -7   4  -2  626.22   59.18
  -7   4  -2  686.91  138.85
  -7   4  -3 1245.53   76.49
  -7   4  -3  845.90  124.60
  -7   4  -4  104.24   51.23
  -7   4  -4  -69.47   99.85
  -7   4  -5 1138.98   82.98
  -7   4  -5  990.88  105.72
  -7   4  -6  467.86   68.19
  -7   4  -6  415.58  124.90
  -7   4  -7  262.37   62.19
  -7   4  -7  239.57  110.47
  -7   4  -8  398.84   71.89
  -7   4  -8  488.93  115.21
  -7   4  -9  222.95   61.75
  -7   4  -9  374.21  105.24
   7  -3   1  648.20   70.80
  -7   3  -1  832.38   48.99
  -7   3  -1  585.04   97.74
   7  -3   2   75.73   47.49
  -7   3  -2  125.35   70.90
  -7   3  -3  543.14   49.66
  -7   3  -3  746.53  108.63
  -7   3  -4  805.53  105.62
  -7   3  -5  223.91   76.73
  -7   3  -6  908.33  131.89
  -7   3  -7  223.94  110.62
  -7   3  -8  305.27  110.81
  -7   3  -9  544.30  133.21
   7  -2   1 1642.93   96.37
  -7   2  -1 1834.36  129.76
   7  -2   2  261.06   53.13
  -7   2  -2  496.47  110.15
   7  -2   3  263.60   46.65
  -7   2  -3  401.70   94.19
  -7   2  -4  959.19  122.95
  -7   2  -5  124.72  101.08
  -7   2  -7  915.68  118.16
  -7   2  -8   36.93   98.27
  -7   2  -9  343.33  114.63
   7  -1   1 1712.61   98.39
  -7   1  -1 1794.08  140.73
   7  -1   2 1234.72   80.97
  -7   1  -2 1216.11  109.94
   7  -1   3   97.48   46.60
  -7   1  -3  124.67   96.47
  -7   1  -4  922.81   82.42
  -7   1  -5  953.98  110.63
  -7   1  -6   86.94  116.48
  -7   1  -7  940.78  116.80
  -7   1  -8  425.68  107.95
  -7   1  -9  -86.47  105.23
   7   0   0 1671.16   97.22
  -7   0   0 1503.56  120.63
   7   0   1  470.44   67.85
  -7   0  -1  302.49   95.86
   7   0   2 1551.33   93.14
  -7   0  -2 1462.58  121.58
   7   0   3  432.25   62.87
  -7   0  -3  364.52   99.52
   7   0   4  108.03   64.79
  -7   0  -4   20.05   64.29
  -7   0  -5 1023.14  117.16
  -7   0  -6  729.97  105.42
  -7   0  -7  307.92  110.33
   7   1   0 2200.88  115.28
   7   1   1  437.63   62.66
   7   1   2  802.85   85.00
   7   1   3 1190.99  101.67
   7   1   4  254.85   66.01
   7   1   5  279.78   87.78
   7   2   0 1023.27   95.95
   7   2   1 1803.15  118.66
   7   2   2 -115.99   60.41
   7   2   3  598.33   81.93
   7   3   0  -36.18   76.29
  -8   5  -1  365.04  116.03
  -8   5  -2 -100.13  111.16
  -8   4  -1  624.96  117.51
  -8   4  -2  283.42  111.65
  -8   4  -3 -117.11  114.46
  -8   4  -4  241.63  131.30
  -8   3  -1  201.82   75.87
  -8   3  -2  763.79  100.11
  -8   3  -3 -151.84  106.96
  -8   3  -4  223.94  121.48
  -8   3  -5  384.51   92.92
  -8   3  -6   73.59  130.36
  -8   2  -1  153.38  100.97
  -8   2  -2  272.45  102.23
  -8   2  -3  392.76  116.70
  -8   2  -4  363.56  157.11
  -8   2  -5  462.55  120.14
  -8   2  -6  546.86  149.27
   8  -1   1  519.28   66.52
  -8   1  -1  534.51  111.92
  -8   1  -2  138.56  106.64
  -8   1  -3  281.27  113.11
  -8   1  -4   66.04  119.12
  -8   1  -5   84.13  110.18
  -8   1  -6  378.68   83.03
   8   0   0  413.44   77.21
  -8   0   0  410.53  110.11
   8   0   1 1106.16  100.38
  -8   0  -1 1442.17  134.22
   8   0   2  235.20   65.76
  -8   0  -2  173.37  107.67
  -8   0  -3   97.34  105.67
  -8   0  -4  682.34  137.99
   8   1   0  -11.38   67.49
   8   1   1  761.67   82.87
   8   1   2  507.72   83.75
   8   2   0  501.11   93.61
   8   2   1  158.29   79.58
   8   2   2  630.04  102.86
   8   2   3   14.98   71.71
   8   3   0  523.85   99.15
   8   3   1  115.17   78.74
;
loop_
_symmetry_equiv_pos_as_xyz
'x, y, z'
'-x, -y, -z'
loop_
_atom_site_label
_atom_site_type_symbol
_atom_site_fract_x
_atom_site_fract_y
_atom_site_fract_z
_atom_site_U_iso_or_equiv
_atom_site_adp_type
_atom_site_occupancy
_atom_site_site_symmetry_order
_atom_site_calc_flag
_atom_site_refinement_flags_posn
_atom_site_refinement_flags_adp
Au Au 0.77100(5) 0.61382(4) 0.82517(2) 0.05138(15) Uani 1 1 d . .
P P 0.7637(4) 0.6835(4) 0.69219(17) 0.0602(6) Uani 1 1 d . .
C1 C 0.852(2) 0.9148(19) 0.7039(9) 0.092(4) Uani 1 1 d . .
H1A H 0.9803 0.9394 0.7392 0.138 Uiso 1 1 calc R U
H1B H 0.8496 0.9351 0.6449 0.138 Uiso 1 1 calc R U
H1C H 0.7722 0.9932 0.7338 0.138 Uiso 1 1 calc R U
C2 C 0.5248(16) 0.6570(16) 0.6255(7) 0.071(3) Uani 1 1 d . .
H2A H 0.4678 0.5355 0.6163 0.106 Uiso 1 1 calc R U
H2B H 0.4507 0.7398 0.6567 0.106 Uiso 1 1 calc R U
H2C H 0.5281 0.6817 0.5678 0.106 Uiso 1 1 calc R U
C3 C 0.898(2) 0.548(2) 0.6199(9) 0.099(4) Uani 1 1 d . .
H3A H 1.0281 0.5561 0.652 0.149 Uiso 1 1 calc R U
H3B H 0.8426 0.4238 0.6032 0.149 Uiso 1 1 calc R U
H3C H 0.8942 0.5906 0.5662 0.149 Uiso 1 1 calc R U
N1 N 0.7646(10) 0.5578(9) 0.9489(5) 0.0497(15) Uani 1 1 d . U
C4 C 0.7398(10) 0.6692(12) 1.0237(6) 0.0541(19) Uani 1 1 d . U
H4 H 0.735 0.7926 1.0308 0.065 Uiso 1 1 calc R U
N2 N 0.7227(10) 0.5827(9) 1.0882(5) 0.0520(15) Uani 1 1 d . U
H2 H 0.7057 0.63 1.1416 0.062 Uiso 1 1 calc R U
C5 C 0.7372(12) 0.4042(9) 1.0525(5) 0.0477(16) Uani 1 1 d D U
C6 C 0.7626(12) 0.3895(9) 0.9666(5) 0.0463(16) Uani 1 1 d D U
N3 N 0.7856(15) 0.2333(10) 0.9098(5) 0.068(2) Uani 1 1 d D U
C7 C 0.780(2) 0.0948(12) 0.9466(7) 0.081(3) Uani 1 1 d D U
H7 H 0.8009 -0.0151 0.9114 0.097 Uiso 1 1 calc R U
N4 N 0.7476(15) 0.0929(10) 1.0288(6) 0.071(2) Uani 1 1 d D U
C8 C 0.7277(13) 0.2504(10) 1.0859(5) 0.0532(18) Uani 1 1 d D U
N5 N 0.6966(12) 0.2490(11) 1.1681(5) 0.062(2) Uani 1 1 d D U
H5A H 0.6894 0.1489 1.1842 0.075 Uiso 1 1 calc DR U
H5B H 0.6838 0.3481 1.2048 0.075 Uiso 1 1 calc DR U
C9 C 0.3166(16) 0.1788(15) 0.7066(7) 0.066(2) Uani 1 1 d . U
F1 F 0.2417(18) -0.0462(12) 0.5658(7) 0.139(4) Uani 1 1 d . U
F2 F 0.4850(17) 0.1376(19) 0.5888(7) 0.153(4) Uani 1 1 d . U
F3 F 0.2153(19) 0.2253(15) 0.5587(6) 0.144(4) Uani 1 1 d . U
C10 C 0.313(2) 0.1238(16) 0.6057(8) 0.080(3) Uani 1 1 d . U
O1 O 0.3300(14) 0.0570(13) 0.7461(6) 0.093(3) Uani 1 1 d . U
O2 O 0.3133(15) 0.3435(12) 0.7367(6) 0.088(2) Uani 1 1 d . U
loop_
_atom_site_aniso_label
_atom_site_aniso_U_11
_atom_site_aniso_U_22
_atom_site_aniso_U_33
_atom_site_aniso_U_23
_atom_site_aniso_U_13
_atom_site_aniso_U_12
Au 0.0675(3) 0.0443(2) 0.0483(2) 0.02143(14) 0.01497(15) 0.00657(15)
P 0.0789(16) 0.0639(15) 0.0485(12) 0.0265(11) 0.0222(11) 0.0155(12)
C1 0.120(11) 0.083(9) 0.080(8) 0.041(7) 0.019(7) -0.014(8)
C2 0.089(7) 0.074(7) 0.051(5) 0.025(5) 0.006(5) 0.006(6)
C3 0.121(11) 0.126(12) 0.066(7) 0.032(7) 0.037(7) 0.049(10)
N1 0.067(4) 0.036(3) 0.050(3) 0.020(3) 0.014(3) 0.003(3)
C4 0.071(5) 0.041(4) 0.056(4) 0.023(3) 0.014(4) 0.008(4)
N2 0.072(4) 0.039(3) 0.050(3) 0.019(3) 0.016(3) 0.008(3)
C5 0.060(4) 0.035(3) 0.051(4) 0.018(3) 0.009(3) 0.003(3)
C6 0.056(4) 0.033(3) 0.052(4) 0.018(3) 0.010(3) 0.002(3)
N3 0.108(7) 0.048(4) 0.054(4) 0.013(3) 0.027(4) 0.009(4)
C7 0.140(11) 0.034(4) 0.074(6) 0.015(4) 0.037(7) 0.010(5)
N4 0.115(7) 0.040(4) 0.068(5) 0.022(3) 0.032(5) 0.014(4)
C8 0.069(5) 0.042(4) 0.057(4) 0.026(3) 0.014(4) 0.011(4)
N5 0.092(6) 0.051(4) 0.061(4) 0.033(3) 0.031(4) 0.022(4)
C9 0.089(7) 0.063(5) 0.057(4) 0.029(4) 0.023(4) 0.007(5)
F1 0.221(10) 0.064(4) 0.109(6) -0.004(4) 0.010(7) 0.023(5)
F2 0.169(8) 0.200(11) 0.123(8) 0.041(7) 0.098(7) 0.046(7)
F3 0.242(11) 0.123(7) 0.080(5) 0.053(5) 0.016(6) 0.078(8)
C10 0.126(8) 0.060(5) 0.066(5) 0.025(4) 0.032(6) 0.029(6)
O1 0.117(7) 0.093(6) 0.088(5) 0.061(5) 0.022(5) 0.011(5)
O2 0.136(7) 0.071(4) 0.068(5) 0.021(4) 0.040(5) 0.030(5)
loop_
_atom_type_symbol
_atom_type_description
_atom_type_scat_dispersion_real
_atom_type_scat_dispersion_imag
_atom_type_scat_source
C C 0.0033 0.0016 'International Tables Vol C Tables 4.2.6.8 and 6.1.1.4'
H H 0 0 'International Tables Vol C Tables 4.2.6.8 and 6.1.1.4'
Au Au -2.0133 8.8022 'International Tables Vol C Tables 4.2.6.8 and 6.1.1.4'
F F 0.0171 0.0103 'International Tables Vol C Tables 4.2.6.8 and 6.1.1.4'
N N 0.0061 0.0033 'International Tables Vol C Tables 4.2.6.8 and 6.1.1.4'
O O 0.0106 0.006 'International Tables Vol C Tables 4.2.6.8 and 6.1.1.4'
P P 0.1023 0.0942 'International Tables Vol C Tables 4.2.6.8 and 6.1.1.4'
loop_
_geom_angle_atom_site_label_1
_geom_angle_atom_site_label_2
_geom_angle_atom_site_label_3
_geom_angle
N1 Au P 176.7(2)
C2 P C1 104.6(6)
C2 P C3 105.4(6)
C1 P C3 106.0(8)
C2 P Au 111.9(4)
C1 P Au 113.3(4)
C3 P Au 114.7(5)
P C1 H1A 109.5
P C1 H1B 109.5
H1A C1 H1B 109.5
P C1 H1C 109.5
H1A C1 H1C 109.5
H1B C1 H1C 109.5
P C2 H2A 109.5
P C2 H2B 109.5
H2A C2 H2B 109.5
P C2 H2C 109.5
H2A C2 H2C 109.5
H2B C2 H2C 109.5
P C3 H3A 109.5
P C3 H3B 109.5
H3A C3 H3B 109.5
P C3 H3C 109.5
H3A C3 H3C 109.5
H3B C3 H3C 109.5
C4 N1 C6 105.5(7)
C4 N1 Au 128.0(6)
C6 N1 Au 126.1(5)
N1 C4 N2 111.9(8)
N1 C4 H4 124
N2 C4 H4 124
C4 N2 C5 106.8(7)
C4 N2 H2 126.6
C5 N2 H2 126.6
C6 C5 N2 106.8(6)
C6 C5 C8 119.7(7)
N2 C5 C8 133.4(7)
N3 C6 C5 124.4(7)
N3 C6 N1 126.6(7)
C5 C6 N1 109.0(7)
C7 N3 C6 112.6(7)
N3 C7 N4 127.8(8)
N3 C7 H7 116.1
N4 C7 H7 116.1
C7 N4 C8 119.3(7)
N5 C8 N4 119.3(7)
N5 C8 C5 124.5(7)
N4 C8 C5 116.1(7)
C8 N5 H5A 120
C8 N5 H5B 120
H5A N5 H5B 120
O1 C9 O2 130.1(10)
O1 C9 C10 115.8(10)
O2 C9 C10 114.0(9)
F2 C10 F3 104.9(11)
F2 C10 F1 104.8(11)
F3 C10 F1 106.4(12)
F2 C10 C9 112.3(11)
F3 C10 C9 113.5(10)
F1 C10 C9 114.1(10)
loop_
_geom_bond_atom_site_label_1
_geom_bond_atom_site_label_2
_geom_bond_distance
Au N1 2.068(7)
Au P 2.238(2)
P C2 1.795(11)
P C1 1.798(13)
P C3 1.812(13)
C1 H1A 0.96
C1 H1B 0.96
C1 H1C 0.96
C2 H2A 0.96
C2 H2B 0.96
C2 H2C 0.96
C3 H3A 0.96
C3 H3B 0.96
C3 H3C 0.96
N1 C4 1.324(12)
N1 C6 1.377(9)
C4 N2 1.339(10)
C4 H4 0.93
N2 C5 1.370(10)
N2 H2 0.86
C5 C6 1.361(9)
C5 C8 1.394(9)
C6 N3 1.353(9)
N3 C7 1.317(10)
C7 N4 1.343(11)
C7 H7 0.93
N4 C8 1.357(10)
C8 N5 1.338(10)
N5 H5A 0.86
N5 H5B 0.86
C9 O1 1.227(12)
C9 O2 1.243(13)
C9 C10 1.520(14)
F1 C10 1.327(15)
F2 C10 1.313(16)
F3 C10 1.326(14)
