#------------------------------------------------------------------------------
#$Date: 2019-11-08 01:46:52 +0200 (Fri, 08 Nov 2019) $
#$Revision: 224572 $
#$URL: file:///home/coder/svn-repositories/cod/cif/7/04/91/7049109.cif $
#------------------------------------------------------------------------------
#
# This file is available in the Crystallography Open Database (COD),
# http://www.crystallography.net/
#
# All data on this site have been placed in the public domain by the
# contributors.
#
data_7049109
loop_
_publ_author_name
'Liu, Hao-Hao'
'Ma, Yu-Juan'
'Han, Song-De'
'Li, Jin-Hua'
'Wang, Guo-Ming'
_publ_section_title
;
 Zinc-diphosphonates with extended dipyridine units: synthesis,
 structures, in situ reactions, and photochromism.
;
_journal_issue                   12
_journal_name_full
'Dalton transactions (Cambridge, England : 2003)'
_journal_page_first              3955
_journal_page_last               3961
_journal_paper_doi               10.1039/c9dt00081j
_journal_volume                  48
_journal_year                    2019
_chemical_formula_sum            'C10 H14 N O9 P2 Zn2'
_chemical_formula_weight         484.90
_space_group_crystal_system      triclinic
_space_group_IT_number           2
_space_group_name_Hall           '-P 1'
_space_group_name_H-M_alt        'P -1'
_symmetry_space_group_name_Hall  '-P 1'
_symmetry_space_group_name_H-M   'P -1'
_atom_sites_solution_hydrogens   mixed
_audit_creation_method           SHELXL-2016/6
_audit_update_record
;
2018-11-15 deposited with the CCDC.    2019-02-21 downloaded from the CCDC.
;
_cell_angle_alpha                87.6780(10)
_cell_angle_beta                 82.1720(10)
_cell_angle_gamma                81.0300(10)
_cell_formula_units_Z            2
_cell_length_a                   5.4607(3)
_cell_length_b                   8.5135(5)
_cell_length_c                   18.0158(11)
_cell_measurement_reflns_used    9943
_cell_measurement_temperature    173(2)
_cell_measurement_theta_max      27.45
_cell_measurement_theta_min      2.28
_cell_volume                     819.44(8)
_computing_cell_refinement       'CrysAlisPro 1.171.39.16b (Rigaku OD, 2015)'
_computing_data_collection       'CrysAlisPro 1.171.39.16b (Rigaku OD, 2015)'
_computing_data_reduction        'CrysAlisPro 1.171.39.16b (Rigaku OD, 2015)'
_computing_molecular_graphics    'DIAMOND (Brandenburg, 1999)'
_computing_publication_material  'SHELXL-2016/6 (Sheldrick, 2016)'
_computing_structure_refinement  'SHELXL-2016/6 (Sheldrick, 2016)'
_computing_structure_solution    'SHELXL-2016/6 (Sheldrick, 2016)'
_diffrn_ambient_temperature      173(2)
_diffrn_measured_fraction_theta_full 1.000
_diffrn_measured_fraction_theta_max 0.996
_diffrn_measurement_device_type  'CCD area detector'
_diffrn_radiation_type           MoK\a
_diffrn_radiation_wavelength     0.71073
_diffrn_reflns_av_R_equivalents  0.0266
_diffrn_reflns_av_unetI/netI     0.0246
_diffrn_reflns_Laue_measured_fraction_full 1.000
_diffrn_reflns_Laue_measured_fraction_max 0.996
_diffrn_reflns_limit_h_max       7
_diffrn_reflns_limit_h_min       -7
_diffrn_reflns_limit_k_max       11
_diffrn_reflns_limit_k_min       -11
_diffrn_reflns_limit_l_max       23
_diffrn_reflns_limit_l_min       -23
_diffrn_reflns_number            16267
_diffrn_reflns_point_group_measured_fraction_full 1.000
_diffrn_reflns_point_group_measured_fraction_max 0.996
_diffrn_reflns_theta_full        25.242
_diffrn_reflns_theta_max         27.475
_diffrn_reflns_theta_min         2.283
_exptl_absorpt_coefficient_mu    3.167
_exptl_absorpt_correction_T_max  0.565
_exptl_absorpt_correction_T_min  0.503
_exptl_absorpt_correction_type   none
_exptl_crystal_colour            colorless
_exptl_crystal_density_diffrn    1.965
_exptl_crystal_description       block
_exptl_crystal_F_000             486
_exptl_crystal_size_max          0.22
_exptl_crystal_size_mid          0.19
_exptl_crystal_size_min          0.18
_refine_diff_density_max         0.533
_refine_diff_density_min         -0.414
_refine_diff_density_rms         0.073
_refine_ls_extinction_method     none
_refine_ls_goodness_of_fit_ref   1.014
_refine_ls_hydrogen_treatment    constr
_refine_ls_matrix_type           full
_refine_ls_number_parameters     209
_refine_ls_number_reflns         3715
_refine_ls_number_restraints     3
_refine_ls_restrained_S_all      1.048
_refine_ls_R_factor_all          0.0270
_refine_ls_R_factor_gt           0.0212
_refine_ls_shift/su_max          0.004
_refine_ls_shift/su_mean         0.000
_refine_ls_structure_factor_coef Fsqd
_refine_ls_weighting_details
'w=1/[\s^2^(Fo^2^)+(0.0314P)^2^+0.5388P] where P=(Fo^2^+2Fc^2^)/3'
_refine_ls_weighting_scheme      calc
_refine_ls_wR_factor_gt          0.0559
_refine_ls_wR_factor_ref         0.0581
_reflns_Friedel_coverage         0.000
_reflns_number_gt                3294
_reflns_number_total             3715
_reflns_threshold_expression     'I > 2\s(I)'
_cod_data_source_file            c9dt00081j2.cif
_cod_data_source_block           2_sq
_cod_depositor_comments
'Adding full bibliography for 7049108--7049109.cif.'
_cod_database_code               7049109
_shelx_shelxl_version_number     2016/6
_shelx_space_group_comment
;
The symmetry employed for this shelxl refinement is uniquely defined
by the following loop, which should always be used as a source of
symmetry information in preference to the above space-group names.
They are only intended as comments.
;
_shelx_res_file
;
TITL 2      in    P-1
    2_sq.res
    created by SHELXL-2016/6 at 16:11:01 on 15-Nov-2018
CELL  0.71073    5.4607    8.5135   18.0158    87.678    82.172    81.030
ZERR        2    0.0003    0.0005    0.0011     0.001     0.001     0.001
LATT 1
SFAC C  H  N  O  P  Zn
UNIT 20 28 2 18 4 4
L.S. 20
ACTA
BOND $H
HTAB
FMAP 2
PLAN 36
WGHT    0.031400    0.538800
FVAR       0.20805
RESI 0
CONF
DFIX 0.9 0.01 H1B O1
DFIX 0.9 0.01 H1A O1
DFIX 0.9 0.01 H5B O5
FREE Zn1  H1B
FREE Zn1  H1A
FREE H1B  H1A
ABIN
TEMP  -100
O6    4   -0.228354    0.932772    0.836668    11.00000    0.01847    0.01122 =
         0.01964    0.00349   -0.00409   -0.00703
C3    1    0.221276   -0.033822    0.690750    11.00000    0.01351    0.01997 =
         0.01575   -0.00105   -0.00086   -0.00144
AFIX  43
H3    2    0.095626   -0.100603    0.696104    11.00000   -1.20000
AFIX   0
C4    1    0.404304   -0.052839    0.629515    11.00000    0.01722    0.02538 =
         0.01358   -0.00368   -0.00027    0.00065
AFIX  43
H4    2    0.402592   -0.130871    0.593436    11.00000   -1.20000
AFIX   0
C5    1    0.590799    0.042576    0.620917    11.00000    0.01225    0.02885 =
         0.01175    0.00160    0.00120    0.00140
C6    1    0.581429    0.155870    0.674935    11.00000    0.01531    0.03370 =
         0.02096   -0.00218    0.00363   -0.00857
AFIX  43
H6    2    0.704722    0.224217    0.670868    11.00000   -1.20000
AFIX   0
C7    1    0.391923    0.168862    0.734693    11.00000    0.01750    0.02764 =
         0.01909   -0.00676    0.00206   -0.00699
AFIX  43
H7    2    0.387792    0.247008    0.771203    11.00000   -1.20000
AFIX   0
C8    1    0.799006    0.021478    0.558009    11.00000    0.01219    0.03866 =
         0.01004    0.00030    0.00092   -0.00007
C1    1   -0.222821    0.617986    0.824241    11.00000    0.00744    0.00973 =
         0.01336    0.00128   -0.00024   -0.00151
C2    1   -0.366516    0.662392    0.757776    11.00000    0.02327    0.01443 =
         0.01492    0.00412   -0.00890   -0.00361
AFIX 137
H2A   2   -0.301084    0.750952    0.729404    11.00000   -1.50000
H2B   2   -0.544184    0.694273    0.775909    11.00000   -1.50000
H2C   2   -0.346749    0.570528    0.725244    11.00000   -1.50000
AFIX   0
C10   1    0.911626    0.149513    0.528362    11.00000    0.02340    0.03514 =
         0.01963   -0.00065    0.00575   -0.00126
AFIX  43
H10   2    0.851967    0.252735    0.547547    11.00000   -1.20000
AFIX   0
C9    1    0.889635   -0.128687    0.528973    11.00000    0.02097    0.03500 =
         0.01834    0.00164    0.00605   -0.00335
AFIX  43
H9    2    0.814697   -0.217710    0.548602    11.00000   -1.20000
AFIX   0
N1    3    0.213998    0.075228    0.742946    11.00000    0.01092    0.01644 =
         0.01280   -0.00018    0.00043   -0.00038
O1    4    0.175080    0.095930    0.913792    11.00000    0.02085    0.01364 =
         0.01963   -0.00735   -0.00718    0.00727
AFIX   3
H1A   2    0.163412    0.148279    0.946326    11.00000   -1.20000
H1B   2    0.272769    0.005120    0.918679    11.00000   -1.20000
AFIX   0
O2    4   -0.242123    0.304927    0.817481    11.00000    0.01622    0.00869 =
         0.01606   -0.00204   -0.00160    0.00149
O8    4   -0.541994    0.809817    0.925111    11.00000    0.00569    0.00854 =
         0.02032   -0.00064   -0.00032   -0.00024
O3    4   -0.193141    0.413126    0.941208    11.00000    0.01579    0.01871 =
         0.01145    0.00470   -0.00389   -0.00166
O7    4   -0.089593    0.759110    0.944855    11.00000    0.00717    0.01352 =
         0.01707   -0.00355   -0.00285    0.00197
O4    4   -0.609080    0.475895    0.889278    11.00000    0.00871    0.01042 =
         0.01812   -0.00145    0.00136   -0.00174
O5    4    0.038660    0.586774    0.793490    11.00000    0.00932    0.02046 =
         0.01868    0.00086    0.00249   -0.00017
AFIX   3
H5B   2    0.127505    0.532885    0.827117    11.00000   -1.20000
AFIX   0
P1    5   -0.324238    0.440462    0.872095    11.00000    0.00834    0.00661 =
         0.01073    0.00041   -0.00072    0.00001
P2    5   -0.270739    0.790082    0.887091    11.00000    0.00589    0.00657 =
         0.01295    0.00065   -0.00130   -0.00075
ZN1   6   -0.044582    0.104900    0.835643    11.00000    0.00974    0.00757 =
         0.01301   -0.00037    0.00182   -0.00077
ZN2   6   -0.239391    0.351611    1.044113    11.00000    0.00681    0.01030 =
         0.01167    0.00144   -0.00017    0.00087
HKLF 4




REM  2      in    P-1
REM R1 =  0.0212 for    3294 Fo > 4sig(Fo)  and  0.0270 for all    3715 data
REM    209 parameters refined using      3 restraints

END

WGHT      0.0196      0.7306

REM Instructions for potential hydrogen bonds
EQIV $6 x+1, y, z
HTAB C7 O2_$6
EQIV $7 x-1, y, z
HTAB C2 O5_$7
EQIV $4 -x, -y+1, -z+2
HTAB O1 O7_$4
EQIV $8 x+1, y-1, z
HTAB O1 O8_$8
HTAB O5 O4_$6

REM Highest difference peak  0.533,  deepest hole -0.414,  1-sigma level  0.073
Q1    1  -0.2590  0.5374  0.8412  11.00000  0.05    0.53
Q2    1  -0.2825  0.6415  0.7853  11.00000  0.05    0.45
Q3    1   0.5422  0.1209  0.6392  11.00000  0.05    0.39
Q4    1   0.9019  0.0791  0.5569  11.00000  0.05    0.36
Q5    1  -0.2775  0.4219  0.9210  11.00000  0.05    0.33
Q6    1  -0.3200  0.3366  0.7907  11.00000  0.05    0.31
Q7    1   0.8233 -0.0465  0.5326  11.00000  0.05    0.31
Q8    1   0.2501 -0.0215  0.6473  11.00000  0.05    0.30
Q9    1   0.5000  0.0000  1.0000  10.50000  0.05    0.30
Q10   1   0.9823 -0.1362  0.4982  11.00000  0.05    0.29
Q11   1   0.4722  0.1572  0.6990  11.00000  0.05    0.29
Q12   1  -0.0410 -0.1082  0.7173  11.00000  0.05    0.28
Q13   1   0.2666 -0.0802  0.5559  11.00000  0.05    0.27
Q14   1  -0.2545  0.6731  0.8510  11.00000  0.05    0.27
Q15   1   0.6929  0.0331  0.5904  11.00000  0.05    0.26
Q16   1   0.3649 -0.0661  0.6640  11.00000  0.05    0.24
Q17   1  -0.2311  0.5031  0.9419  11.00000  0.05    0.24
Q18   1  -0.4960  0.6692  0.7655  11.00000  0.05    0.24
Q19   1  -0.4112  0.7979  0.9068  11.00000  0.05    0.24
Q20   1   0.2165 -0.1452  0.8412  11.00000  0.05    0.24
Q21   1  -0.1615  0.8291  0.9740  11.00000  0.05    0.23
Q22   1  -0.2787  0.3571  0.9597  11.00000  0.05    0.23
Q23   1  -0.2079  0.8661  0.8032  11.00000  0.05    0.23
Q24   1   0.4665  0.0173  0.6215  11.00000  0.05    0.22
Q25   1  -0.5776  0.4639  0.8610  11.00000  0.05    0.22
Q26   1   0.0047  0.5217  0.7435  11.00000  0.05    0.22
Q27   1   0.0974  0.3535  0.7659  11.00000  0.05    0.22
Q28   1  -0.3362  0.6789  0.7355  11.00000  0.05    0.22
Q29   1  -0.0830  0.5109  1.0292  11.00000  0.05    0.22
Q30   1   0.2969 -0.0580  1.0113  11.00000  0.05    0.22
Q31   1  -0.2076  0.2478  0.8674  11.00000  0.05    0.22
Q32   1   0.2368  0.0099  0.7304  11.00000  0.05    0.21
Q33   1  -0.4327  1.0104  0.7894  11.00000  0.05    0.21
Q34   1  -0.0978  0.4064  0.9354  11.00000  0.05    0.21
Q35   1  -0.0936  0.5286  0.9415  11.00000  0.05    0.21
Q36   1   0.5713 -0.0369  0.6326  11.00000  0.05    0.21
;
_shelx_res_checksum              90930
_shelx_fab_file
;
    1    0    0      1.81      0.00
    2    0    0     -0.44      0.00
    3    0    0     -0.95      0.00
    4    0    0     -0.76      0.00
    5    0    0      0.12      0.00
    6    0    0      0.04      0.00
   -6    1    0     -0.44      0.00
   -5    1    0     -0.19      0.00
   -4    1    0      0.97      0.00
   -3    1    0      1.21      0.00
   -2    1    0     -0.05      0.00
   -1    1    0     -0.95      0.00
    0    1    0    -22.58      0.00
    1    1    0     -2.56      0.00
    2    1    0      1.21      0.00
    3    1    0      0.38      0.00
    4    1    0      0.52      0.00
    5    1    0     -0.04      0.00
    6    1    0      0.35      0.00
    7    1    0     -0.15      0.00
   -6    2    0      0.38      0.00
   -5    2    0      0.14      0.00
   -4    2    0     -1.12      0.00
   -3    2    0     -1.27      0.00
   -2    2    0      0.26      0.00
   -1    2    0      0.20      0.00
    0    2    0     15.80      0.00
    1    2    0      2.83      0.00
    2    2    0     -1.91      0.00
    3    2    0      0.18      0.00
    4    2    0     -0.30      0.00
    5    2    0     -0.03      0.00
    6    2    0     -0.34      0.00
    7    2    0     -0.10      0.00
   -6    3    0      0.10      0.00
   -5    3    0      0.03      0.00
   -4    3    0      1.19      0.00
   -3    3    0      1.32      0.00
   -2    3    0     -0.51      0.00
   -1    3    0      0.47      0.00
    0    3    0     -9.84      0.00
    1    3    0     -2.62      0.00
    2    3    0      2.23      0.00
    3    3    0     -0.41      0.00
    4    3    0      0.21      0.00
    5    3    0      0.10      0.00
    6    3    0      0.06      0.00
   -6    4    0     -0.53      0.00
   -5    4    0     -0.07      0.00
   -4    4    0     -1.15      0.00
   -3    4    0     -1.20      0.00
   -2    4    0      0.87      0.00
   -1    4    0     -0.87      0.00
    0    4    0      5.99      0.00
    1    4    0      2.27      0.00
    2    4    0     -2.07      0.00
    3    4    0      0.50      0.00
    4    4    0     -0.22      0.00
    5    4    0     -0.05      0.00
    6    4    0      0.14      0.00
   -5    5    0     -0.10      0.00
   -4    5    0      1.00      0.00
   -3    5    0      0.80      0.00
   -2    5    0     -0.99      0.00
   -1    5    0      0.79      0.00
    0    5    0     -3.17      0.00
    1    5    0     -1.96      0.00
    2    5    0      1.56      0.00
    3    5    0     -0.64      0.00
    4    5    0      0.27      0.00
    5    5    0     -0.08      0.00
    6    5    0     -0.21      0.00
   -5    6    0      0.24      0.00
   -4    6    0     -0.65      0.00
   -3    6    0     -0.43      0.00
   -2    6    0      0.68      0.00
   -1    6    0     -0.53      0.00
    0    6    0      1.05      0.00
    1    6    0      1.71      0.00
    2    6    0     -1.00      0.00
    3    6    0      0.63      0.00
    4    6    0     -0.35      0.00
    5    6    0      0.03      0.00
    6    6    0      0.30      0.00
   -4    7    0      0.17      0.00
   -3    7    0      0.36      0.00
   -2    7    0     -0.14      0.00
   -1    7    0      0.56      0.00
    0    7    0     -0.09      0.00
    1    7    0     -1.49      0.00
    2    7    0      0.61      0.00
    3    7    0     -0.30      0.00
    4    7    0      0.45      0.00
    5    7    0      0.28      0.00
    6    7    0     -0.34      0.00
   -3    8    0     -0.43      0.00
   -2    8    0     -0.32      0.00
   -1    8    0     -0.73      0.00
    0    8    0     -0.04      0.00
    1    8    0      1.15      0.00
    2    8    0     -0.35      0.00
    3    8    0     -0.04      0.00
    4    8    0     -0.44      0.00
    5    8    0     -0.53      0.00
   -3    9    0      0.36      0.00
   -2    9    0      0.52      0.00
   -1    9    0      0.54      0.00
    0    9    0      0.04      0.00
    1    9    0     -0.59      0.00
    2    9    0      0.12      0.00
    3    9    0      0.12      0.00
    4    9    0      0.30      0.00
   -1   10    0     -0.07      0.00
    0   10    0     -0.04      0.00
    1   10    0      0.00      0.00
    2   10    0     -0.01      0.00
    3   10    0     -0.10      0.00
    1   11    0      0.27      0.00
   -1  -11    1      0.24      0.00
   -3  -10    1     -0.05      0.00
   -2  -10    1     -0.03      0.00
   -1  -10    1     -0.52      0.00
    0  -10    1     -0.17      0.00
    1  -10    1      0.06      0.00
   -4   -9    1     -0.12      0.00
   -3   -9    1      0.10      0.00
   -2   -9    1     -0.09      0.00
   -1   -9    1      0.84      0.00
    0   -9    1      0.03      0.00
    1   -9    1     -0.63      0.00
    2   -9    1     -0.09      0.00
    3   -9    1     -0.11      0.00
   -5   -8    1      0.73      0.00
   -4   -8    1      0.35      0.00
   -3   -8    1     -0.13      0.00
   -2   -8    1      0.41      0.00
   -1   -8    1     -0.92      0.00
    0   -8    1      0.01      0.00
    1   -8    1      1.06      0.00
    2   -8    1      0.13      0.00
    3   -8    1      0.14      0.00
   -5   -7    1     -0.72      0.00
   -4   -7    1     -0.58      0.00
   -3   -7    1      0.28      0.00
   -2   -7    1     -0.83      0.00
   -1   -7    1      0.77      0.00
    0   -7    1      0.26      0.00
    1   -7    1     -1.18      0.00
    2   -7    1     -0.14      0.00
    3   -7    1     -0.18      0.00
    4   -7    1     -0.21      0.00
   -6   -6    1     -0.11      0.00
   -5   -6    1      0.58      0.00
   -4   -6    1      0.67      0.00
   -3   -6    1     -0.47      0.00
   -2   -6    1      1.11      0.00
   -1   -6    1     -0.82      0.00
    0   -6    1     -1.30      0.00
    1   -6    1      1.54      0.00
    2   -6    1      0.09      0.00
    3   -6    1      0.41      0.00
    4   -6    1      0.53      0.00
    5   -6    1     -0.17      0.00
   -6   -5    1      0.02      0.00
   -5   -5    1     -0.54      0.00
   -4   -5    1     -0.62      0.00
   -3   -5    1      0.57      0.00
   -2   -5    1     -1.07      0.00
   -1   -5    1      1.18      0.00
    0   -5    1      3.24      0.00
    1   -5    1     -2.42      0.00
    2   -5    1     -0.37      0.00
    3   -5    1     -0.86      0.00
    4   -5    1     -0.64      0.00
    5   -5    1      0.00      0.00
   -6   -4    1     -0.04      0.00
   -5   -4    1      0.47      0.00
   -4   -4    1      0.55      0.00
   -3   -4    1     -0.64      0.00
   -2   -4    1      0.66      0.00
   -1   -4    1     -1.59      0.00
    0   -4    1     -5.61      0.00
    1   -4    1      3.27      0.00
    2   -4    1      1.34      0.00
    3   -4    1      1.27      0.00
    4   -4    1      0.65      0.00
    5   -4    1      0.12      0.00
    6   -4    1      0.13      0.00
   -6   -3    1     -0.02      0.00
   -5   -3    1     -0.19      0.00
   -4   -3    1     -0.57      0.00
   -3   -3    1      0.76      0.00
   -2   -3    1      0.20      0.00
   -1   -3    1      2.12      0.00
    0   -3    1      8.58      0.00
    1   -3    1     -3.79      0.00
    2   -3    1     -2.75      0.00
    3   -3    1     -1.38      0.00
    4   -3    1     -0.66      0.00
    5   -3    1      0.02      0.00
    6   -3    1      0.21      0.00
   -6   -2    1      0.26      0.00
   -5   -2    1     -0.07      0.00
   -4   -2    1      0.71      0.00
   -3   -2    1     -0.73      0.00
   -2   -2    1     -1.67      0.00
   -1   -2    1     -3.06      0.00
    0   -2    1    -12.92      0.00
    1   -2    1      4.44      0.00
    2   -2    1      4.04      0.00
    3   -2    1      1.32      0.00
    4   -2    1      0.59      0.00
    5   -2    1     -0.27      0.00
    6   -2    1     -0.42      0.00
   -6   -1    1     -0.34      0.00
   -5   -1    1      0.06      0.00
   -4   -1    1     -0.86      0.00
   -3   -1    1      0.45      0.00
   -2   -1    1      3.54      0.00
   -1   -1    1      4.12      0.00
    0   -1    1     17.68      0.00
    1   -1    1     -5.07      0.00
    2   -1    1     -4.95      0.00
    3   -1    1     -1.24      0.00
    4   -1    1     -0.36      0.00
    5   -1    1      0.33      0.00
    6   -1    1      0.36      0.00
   -6    0    1      0.04      0.00
   -5    0    1      0.09      0.00
   -4    0    1      0.88      0.00
   -3    0    1     -0.16      0.00
   -2    0    1     -4.98      0.00
   -1    0    1     -4.46      0.00
    1    0    1      4.48      0.00
    2    0    1      5.45      0.00
    3    0    1      0.96      0.00
    4    0    1      0.08      0.00
    5    0    1     -0.14      0.00
    6    0    1     -0.09      0.00
   -6    1    1      0.23      0.00
   -5    1    1     -0.13      0.00
   -4    1    1     -0.84      0.00
   -3    1    1      0.09      0.00
   -2    1    1      5.33      0.00
   -1    1    1      3.79      0.00
    0    1    1     16.57      0.00
    1    1    1     -2.26      0.00
    2    1    1     -5.43      0.00
    3    1    1     -0.40      0.00
    4    1    1      0.13      0.00
    5    1    1     -0.13      0.00
    6    1    1     -0.20      0.00
    7    1    1      0.50      0.00
   -6    2    1     -0.03      0.00
   -5    2    1      0.07      0.00
   -4    2    1      0.86      0.00
   -3    2    1     -0.09      0.00
   -2    2    1     -4.77      0.00
   -1    2    1     -2.66      0.00
    0    2    1    -11.03      0.00
    1    2    1     -0.20      0.00
    2    2    1      4.87      0.00
    3    2    1     -0.11      0.00
    4    2    1     -0.20      0.00
    5    2    1      0.24      0.00
    6    2    1      0.28      0.00
    7    2    1     -0.10      0.00
   -6    3    1     -0.47      0.00
   -5    3    1      0.01      0.00
   -4    3    1     -0.96      0.00
   -3    3    1     -0.05      0.00
   -2    3    1      3.96      0.00
   -1    3    1      1.62      0.00
    0    3    1      6.43      0.00
    1    3    1      1.49      0.00
    2    3    1     -4.00      0.00
    3    3    1      0.29      0.00
    4    3    1      0.19      0.00
    5    3    1     -0.10      0.00
    6    3    1     -0.14      0.00
    7    3    1     -0.33      0.00
   -6    4    1      0.69      0.00
   -5    4    1     -0.14      0.00
   -4    4    1      1.01      0.00
   -3    4    1      0.19      0.00
   -2    4    1     -3.20      0.00
   -1    4    1     -0.90      0.00
    0    4    1     -3.65      0.00
    1    4    1     -1.79      0.00
    2    4    1      2.90      0.00
    3    4    1     -0.36      0.00
    4    4    1     -0.17      0.00
    5    4    1     -0.19      0.00
    6    4    1     -0.01      0.00
   -5    5    1      0.28      0.00
   -4    5    1     -0.92      0.00
   -3    5    1     -0.17      0.00
   -2    5    1      2.37      0.00
   -1    5    1      0.56      0.00
    0    5    1      1.66      0.00
    1    5    1      1.99      0.00
    2    5    1     -1.72      0.00
    3    5    1      0.51      0.00
    4    5    1      0.15      0.00
    5    5    1      0.41      0.00
    6    5    1      0.05      0.00
   -5    6    1     -0.31      0.00
   -4    6    1      0.59      0.00
   -3    6    1      0.20      0.00
   -2    6    1     -1.47      0.00
   -1    6    1     -0.45      0.00
    0    6    1     -0.25      0.00
    1    6    1     -2.13      0.00
    2    6    1      0.84      0.00
    3    6    1     -0.48      0.00
    4    6    1     -0.06      0.00
    5    6    1     -0.37      0.00
    6    6    1     -0.10      0.00
   -4    7    1     -0.16      0.00
   -3    7    1     -0.45      0.00
   -2    7    1      0.61      0.00
   -1    7    1      0.26      0.00
    0    7    1     -0.17      0.00
    1    7    1      1.82      0.00
    2    7    1     -0.48      0.00
    3    7    1      0.10      0.00
    4    7    1     -0.12      0.00
    5    7    1      0.11      0.00
    6    7    1      0.19      0.00
   -3    8    1      0.69      0.00
   -2    8    1      0.13      0.00
   -1    8    1      0.00      0.00
    0    8    1      0.04      0.00
    1    8    1     -1.02      0.00
    2    8    1      0.35      0.00
    3    8    1      0.31      0.00
    4    8    1      0.26      0.00
    5    8    1      0.15      0.00
   -3    9    1     -0.59      0.00
   -2    9    1     -0.58      0.00
   -1    9    1     -0.09      0.00
    0    9    1     -0.11      0.00
    1    9    1      0.13      0.00
    2    9    1     -0.10      0.00
    3    9    1     -0.39      0.00
    4    9    1     -0.27      0.00
   -1   10    1     -0.04      0.00
    0   10    1      0.31      0.00
    1   10    1      0.49      0.00
    2   10    1     -0.12      0.00
    3   10    1      0.23      0.00
    1   11    1     -0.62      0.00
   -3  -10    2      0.22      0.00
   -2  -10    2      0.07      0.00
   -1  -10    2      0.57      0.00
    0  -10    2      0.18      0.00
    1  -10    2     -0.07      0.00
   -4   -9    2     -0.10      0.00
   -3   -9    2     -0.25      0.00
   -2   -9    2      0.09      0.00
   -1   -9    2     -0.65      0.00
    0   -9    2     -0.13      0.00
    1   -9    2      0.50      0.00
    2   -9    2     -0.32      0.00
    3   -9    2     -0.02      0.00
   -5   -8    2     -0.58      0.00
   -4   -8    2     -0.10      0.00
   -3   -8    2      0.20      0.00
   -2   -8    2     -0.45      0.00
   -1   -8    2      0.43      0.00
    0   -8    2      0.17      0.00
    1   -8    2     -0.99      0.00
    2   -8    2      0.19      0.00
    3   -8    2      0.07      0.00
    4   -8    2     -0.01      0.00
   -5   -7    2      0.83      0.00
   -4   -7    2      0.44      0.00
   -3   -7    2     -0.18      0.00
   -2   -7    2      0.89      0.00
   -1   -7    2      0.02      0.00
    0   -7    2     -0.47      0.00
    1   -7    2      1.37      0.00
    2   -7    2      0.15      0.00
    3   -7    2     -0.05      0.00
    4   -7    2      0.30      0.00
   -6   -6    2     -0.29      0.00
   -5   -6    2     -0.91      0.00
   -4   -6    2     -0.66      0.00
   -3   -6    2      0.26      0.00
   -2   -6    2     -1.01      0.00
   -1   -6    2     -0.31      0.00
    0   -6    2      1.16      0.00
    1   -6    2     -2.06      0.00
    2   -6    2     -0.45      0.00
    3   -6    2     -0.12      0.00
    4   -6    2     -0.37      0.00
    5   -6    2      0.17      0.00
   -6   -5    2      0.31      0.00
   -5   -5    2      0.88      0.00
   -4   -5    2      0.65      0.00
   -3   -5    2     -0.46      0.00
   -2   -5    2      0.46      0.00
   -1   -5    2      0.32      0.00
    0   -5    2     -2.25      0.00
    1   -5    2      3.32      0.00
    2   -5    2      0.94      0.00
    3   -5    2      0.34      0.00
    4   -5    2      0.15      0.00
    5   -5    2     -0.09      0.00
   -6   -4    2     -0.13      0.00
   -5   -4    2     -0.68      0.00
   -4   -4    2     -0.60      0.00
   -3   -4    2      0.78      0.00
   -2   -4    2      0.62      0.00
   -1   -4    2     -0.36      0.00
    0   -4    2      3.35      0.00
    1   -4    2     -4.59      0.00
    2   -4    2     -2.10      0.00
    3   -4    2     -0.34      0.00
    4   -4    2      0.10      0.00
    5   -4    2      0.05      0.00
    6   -4    2      0.33      0.00
   -6   -3    2     -0.01      0.00
   -5   -3    2      0.31      0.00
   -4   -3    2      0.71      0.00
   -3   -3    2     -1.14      0.00
   -2   -3    2     -2.05      0.00
   -1   -3    2      0.41      0.00
    0   -3    2     -4.21      0.00
    1   -3    2      5.62      0.00
    2   -3    2      3.79      0.00
    3   -3    2      0.08      0.00
    4   -3    2     -0.19      0.00
    5   -3    2     -0.15      0.00
    6   -3    2     -0.37      0.00
   -6   -2    2     -0.13      0.00
   -5   -2    2     -0.02      0.00
   -4   -2    2     -0.85      0.00
   -3   -2    2      1.35      0.00
   -2   -2    2      3.92      0.00
   -1   -2    2     -0.07      0.00
    0   -2    2      5.07      0.00
    1   -2    2     -7.11      0.00
    2   -2    2     -5.39      0.00
    3   -2    2      0.17      0.00
    4   -2    2      0.26      0.00
    5   -2    2      0.26      0.00
    6   -2    2      0.22      0.00
   -6   -1    2      0.27      0.00
   -5   -1    2      0.08      0.00
   -4   -1    2      0.75      0.00
   -3   -1    2     -1.34      0.00
   -2   -1    2     -6.01      0.00
   -1   -1    2     -0.62      0.00
    0   -1    2     -5.83      0.00
    1   -1    2      8.76      0.00
    2   -1    2      6.47      0.00
    3   -1    2     -0.23      0.00
    4   -1    2     -0.47      0.00
    5   -1    2     -0.21      0.00
    6   -1    2     -0.12      0.00
   -6    0    2     -0.18      0.00
   -5    0    2     -0.32      0.00
   -4    0    2     -0.40      0.00
   -3    0    2      1.28      0.00
   -2    0    2      7.40      0.00
   -1    0    2      1.07      0.00
    0    0    2      5.55      0.00
    1    0    2     -8.56      0.00
    2    0    2     -6.91      0.00
    3    0    2      0.28      0.00
    4    0    2      0.69      0.00
    5    0    2     -0.02      0.00
    6    0    2      0.11      0.00
   -6    1    2      0.15      0.00
   -5    1    2      0.38      0.00
   -4    1    2      0.08      0.00
   -3    1    2     -1.35      0.00
   -2    1    2     -7.43      0.00
   -1    1    2     -1.06      0.00
    0    1    2     -3.72      0.00
    1    1    2      5.57      0.00
    2    1    2      6.60      0.00
    3    1    2     -0.46      0.00
    4    1    2     -0.72      0.00
    5    1    2      0.30      0.00
    6    1    2     -0.03      0.00
    7    1    2     -0.73      0.00
   -6    2    2     -0.43      0.00
   -5    2    2     -0.18      0.00
   -4    2    2      0.01      0.00
   -3    2    2      1.46      0.00
   -2    2    2      6.49      0.00
   -1    2    2      0.94      0.00
    0    2    2      1.41      0.00
    1    2    2     -1.84      0.00
    2    2    2     -5.59      0.00
    3    2    2      0.54      0.00
    4    2    2      0.59      0.00
    5    2    2     -0.39      0.00
    6    2    2     -0.13      0.00
    7    2    2      0.38      0.00
   -6    3    2      0.72      0.00
   -5    3    2     -0.11      0.00
   -4    3    2      0.12      0.00
   -3    3    2     -1.32      0.00
   -2    3    2     -5.29      0.00
   -1    3    2     -0.92      0.00
    0    3    2      0.00      0.00
    1    3    2     -0.32      0.00
    2    3    2      4.21      0.00
    3    3    2     -0.36      0.00
    4    3    2     -0.47      0.00
    5    3    2      0.19      0.00
    6    3    2      0.22      0.00
    7    3    2      0.04      0.00
   -5    4    2      0.31      0.00
   -4    4    2     -0.30      0.00
   -3    4    2      0.95      0.00
   -2    4    2      4.08      0.00
   -1    4    2      0.91      0.00
    0    4    2     -0.49      0.00
    1    4    2      1.03      0.00
    2    4    2     -2.78      0.00
    3    4    2      0.13      0.00
    4    4    2      0.39      0.00
    5    4    2      0.10      0.00
    6    4    2     -0.25      0.00
   -5    5    2     -0.36      0.00
   -4    5    2      0.40      0.00
   -3    5    2     -0.54      0.00
   -2    5    2     -2.83      0.00
   -1    5    2     -0.89      0.00
    0    5    2      0.79      0.00
    1    5    2     -1.60      0.00
    2    5    2      1.54      0.00
    3    5    2     -0.04      0.00
    4    5    2     -0.32      0.00
    5    5    2     -0.21      0.00
    6    5    2      0.29      0.00
   -5    6    2      0.28      0.00
   -4    6    2     -0.30      0.00
   -3    6    2      0.09      0.00
   -2    6    2      1.76      0.00
   -1    6    2      0.90      0.00
    0    6    2     -0.93      0.00
    1    6    2      2.02      0.00
    2    6    2     -0.76      0.00
    3    6    2     -0.03      0.00
    4    6    2      0.26      0.00
    5    6    2      0.19      0.00
    6    6    2     -0.25      0.00
   -4    7    2      0.11      0.00
   -3    7    2      0.44      0.00
   -2    7    2     -1.00      0.00
   -1    7    2     -0.86      0.00
    0    7    2      0.61      0.00
    1    7    2     -1.61      0.00
    2    7    2      0.52      0.00
    3    7    2      0.29      0.00
    4    7    2     -0.21      0.00
    5    7    2     -0.17      0.00
    6    7    2      0.08      0.00
   -3    8    2     -0.76      0.00
   -2    8    2      0.38      0.00
   -1    8    2      0.68      0.00
    0    8    2     -0.20      0.00
    1    8    2      0.58      0.00
    2    8    2     -0.39      0.00
    3    8    2     -0.60      0.00
    4    8    2      0.09      0.00
    5    8    2      0.13      0.00
   -3    9    2      0.61      0.00
   -2    9    2      0.16      0.00
   -1    9    2     -0.45      0.00
    0    9    2      0.21      0.00
    1    9    2      0.25      0.00
    2    9    2      0.05      0.00
    3    9    2      0.66      0.00
    4    9    2      0.07      0.00
   -1   10    2      0.24      0.00
    0   10    2     -0.42      0.00
    1   10    2     -0.56      0.00
    2   10    2      0.32      0.00
    3   10    2     -0.41      0.00
    1   11    2      0.49      0.00
   -3  -10    3     -0.26      0.00
   -2  -10    3      0.13      0.00
   -1  -10    3     -0.12      0.00
    0  -10    3     -0.11      0.00
    1  -10    3      0.20      0.00
   -4   -9    3      0.13      0.00
   -3   -9    3      0.27      0.00
   -2   -9    3     -0.23      0.00
   -1   -9    3      0.11      0.00
    0   -9    3      0.26      0.00
    1   -9    3     -0.40      0.00
    2   -9    3      0.50      0.00
    3   -9    3      0.09      0.00
   -5   -8    3      0.17      0.00
   -4   -8    3     -0.03      0.00
   -3   -8    3     -0.21      0.00
   -2   -8    3      0.40      0.00
   -1   -8    3      0.12      0.00
    0   -8    3     -0.45      0.00
    1   -8    3      0.76      0.00
    2   -8    3     -0.47      0.00
    3   -8    3     -0.22      0.00
    4   -8    3      0.18      0.00
   -5   -7    3     -0.50      0.00
   -4   -7    3     -0.20      0.00
   -3   -7    3      0.15      0.00
   -2   -7    3     -0.67      0.00
   -1   -7    3     -0.63      0.00
    0   -7    3      0.70      0.00
    1   -7    3     -1.15      0.00
    2   -7    3      0.06      0.00
    3   -7    3      0.29      0.00
    4   -7    3     -0.39      0.00
   -6   -6    3      0.52      0.00
   -5   -6    3      0.69      0.00
   -4   -6    3      0.37      0.00
   -3   -6    3     -0.15      0.00
   -2   -6    3      0.64      0.00
   -1   -6    3      1.26      0.00
    0   -6    3     -0.93      0.00
    1   -6    3      1.83      0.00
    2   -6    3      0.31      0.00
    3   -6    3     -0.26      0.00
    4   -6    3      0.26      0.00
    5   -6    3     -0.24      0.00
   -6   -5    3     -0.43      0.00
   -5   -5    3     -0.68      0.00
   -4   -5    3     -0.39      0.00
   -3   -5    3      0.36      0.00
   -2   -5    3      0.05      0.00
   -1   -5    3     -1.92      0.00
    0   -5    3      1.09      0.00
    1   -5    3     -2.93      0.00
    2   -5    3     -0.61      0.00
    3   -5    3      0.35      0.00
    4   -5    3      0.17      0.00
    5   -5    3      0.28      0.00
   -6   -4    3      0.13      0.00
   -5   -4    3      0.56      0.00
   -4   -4    3      0.43      0.00
   -3   -4    3     -0.78      0.00
   -2   -4    3     -1.24      0.00
   -1   -4    3      2.74      0.00
    0   -4    3     -0.94      0.00
    1   -4    3      3.86      0.00
    2   -4    3      1.27      0.00
    3   -4    3     -0.85      0.00
    4   -4    3     -0.57      0.00
    5   -4    3     -0.31      0.00
    6   -4    3     -0.58      0.00
   -6   -3    3      0.06      0.00
   -5   -3    3     -0.37      0.00
   -4   -3    3     -0.61      0.00
   -3   -3    3      1.23      0.00
   -2   -3    3      2.54      0.00
   -1   -3    3     -3.70      0.00
    0   -3    3     -0.03      0.00
    1   -3    3     -4.39      0.00
    2   -3    3     -2.39      0.00
    3   -3    3      1.58      0.00
    4   -3    3      0.69      0.00
    5   -3    3      0.29      0.00
    6   -3    3      0.37      0.00
   -6   -2    3      0.07      0.00
   -5   -2    3      0.21      0.00
   -4   -2    3      0.66      0.00
   -3   -2    3     -1.50      0.00
   -2   -2    3     -3.90      0.00
   -1   -2    3      4.59      0.00
    0   -2    3      2.08      0.00
    1   -2    3      5.30      0.00
    2   -2    3      3.48      0.00
    3   -2    3     -2.04      0.00
    4   -2    3     -0.70      0.00
    5   -2    3     -0.17      0.00
    6   -2    3      0.00      0.00
   -6   -1    3     -0.28      0.00
   -5   -1    3     -0.23      0.00
   -4   -1    3     -0.32      0.00
   -3   -1    3      1.51      0.00
   -2   -1    3      5.17      0.00
   -1   -1    3     -5.16      0.00
    0   -1    3     -4.62      0.00
    1   -1    3     -6.61      0.00
    2   -1    3     -4.15      0.00
    3   -1    3      2.02      0.00
    4   -1    3      0.83      0.00
    5   -1    3     -0.02      0.00
    6   -1    3     -0.12      0.00
   -6    0    3      0.33      0.00
   -5    0    3      0.37      0.00
   -4    0    3     -0.27      0.00
   -3    0    3     -1.40      0.00
   -2    0    3     -5.79      0.00
   -1    0    3      5.19      0.00
    0    0    3      6.59      0.00
    1    0    3      6.53      0.00
    2    0    3      4.48      0.00
    3    0    3     -1.77      0.00
    4    0    3     -0.96      0.00
    5    0    3      0.22      0.00
    6    0    3     -0.03      0.00
    7    0    3     -0.52      0.00
   -6    1    3     -0.43      0.00
   -5    1    3     -0.37      0.00
   -4    1    3      0.71      0.00
   -3    1    3      1.45      0.00
   -2    1    3      5.43      0.00
   -1    1    3     -4.45      0.00
    0    1    3     -7.34      0.00
    1    1    3     -4.09      0.00
    2    1    3     -4.45      0.00
    3    1    3      1.47      0.00
    4    1    3      0.88      0.00
    5    1    3     -0.37      0.00
    6    1    3      0.10      0.00
    7    1    3      0.71      0.00
   -6    2    3      0.65      0.00
   -5    2    3      0.12      0.00
   -4    2    3     -0.85      0.00
   -3    2    3     -1.65      0.00
   -2    2    3     -4.56      0.00
   -1    2    3      3.09      0.00
    0    2    3      6.89      0.00
    1    2    3      1.05      0.00
    2    2    3      3.89      0.00
    3    2    3     -1.04      0.00
    4    2    3     -0.67      0.00
    5    2    3      0.38      0.00
    6    2    3      0.06      0.00
    7    2    3     -0.57      0.00
   -6    3    3     -0.68      0.00
   -5    3    3      0.19      0.00
   -4    3    3      0.75      0.00
   -3    3    3      1.66      0.00
   -2    3    3      3.72      0.00
   -1    3    3     -1.62      0.00
    0    3    3     -5.65      0.00
    1    3    3      0.49      0.00
    2    3    3     -2.87      0.00
    3    3    3      0.43      0.00
    4    3    3      0.52      0.00
    5    3    3     -0.24      0.00
    6    3    3     -0.28      0.00
    7    3    3      0.34      0.00
   -5    4    3     -0.32      0.00
   -4    4    3     -0.52      0.00
   -3    4    3     -1.33      0.00
   -2    4    3     -2.91      0.00
   -1    4    3      0.48      0.00
    0    4    3      4.19      0.00
    1    4    3     -0.84      0.00
    2    4    3      1.82      0.00
    3    4    3      0.18      0.00
    4    4    3     -0.38      0.00
    5    4    3      0.14      0.00
    6    4    3      0.42      0.00
   -5    5    3      0.27      0.00
   -4    5    3      0.25      0.00
   -3    5    3      0.78      0.00
   -2    5    3      2.01      0.00
   -1    5    3      0.29      0.00
    0    5    3     -2.97      0.00
    1    5    3      1.24      0.00
    2    5    3     -1.07      0.00
    3    5    3     -0.56      0.00
    4    5    3      0.21      0.00
    5    5    3     -0.21      0.00
    6    5    3     -0.45      0.00
   -5    6    3     -0.15      0.00
   -4    6    3     -0.04      0.00
   -3    6    3     -0.16      0.00
   -2    6    3     -1.30      0.00
   -1    6    3     -0.74      0.00
    0    6    3      2.00      0.00
    1    6    3     -1.53      0.00
    2    6    3      0.68      0.00
    3    6    3      0.64      0.00
    4    6    3     -0.18      0.00
    5    6    3      0.20      0.00
    6    6    3      0.36      0.00
   -4    7    3     -0.04      0.00
   -3    7    3     -0.40      0.00
   -2    7    3      0.98      0.00
   -1    7    3      0.89      0.00
    0    7    3     -1.14      0.00
    1    7    3      0.99      0.00
    2    7    3     -0.48      0.00
    3    7    3     -0.61      0.00
    4    7    3      0.34      0.00
    5    7    3      0.02      0.00
    6    7    3     -0.18      0.00
   -3    8    3      0.64      0.00
   -2    8    3     -0.75      0.00
   -1    8    3     -0.81      0.00
    0    8    3      0.51      0.00
    1    8    3     -0.03      0.00
    2    8    3      0.26      0.00
    3    8    3      0.68      0.00
    4    8    3     -0.37      0.00
    5    8    3     -0.22      0.00
   -2    9    3      0.35      0.00
   -1    9    3      0.62      0.00
    0    9    3     -0.28      0.00
    1    9    3     -0.42      0.00
    2    9    3      0.08      0.00
    3    9    3     -0.75      0.00
    4    9    3      0.15      0.00
   -1   10    3     -0.32      0.00
    0   10    3      0.25      0.00
    1   10    3      0.30      0.00
    2   10    3     -0.37      0.00
    3   10    3      0.58      0.00
    1   11    3     -0.09      0.00
   -3  -10    4      0.14      0.00
   -2  -10    4     -0.45      0.00
   -1  -10    4     -0.38      0.00
    0  -10    4      0.14      0.00
    1  -10    4     -0.35      0.00
   -4   -9    4      0.13      0.00
   -3   -9    4     -0.16      0.00
   -2   -9    4      0.41      0.00
   -1   -9    4      0.41      0.00
    0   -9    4     -0.40      0.00
    1   -9    4      0.40      0.00
    2   -9    4     -0.54      0.00
    3   -9    4     -0.18      0.00
   -5   -8    4      0.15      0.00
   -4   -8    4     -0.10      0.00
   -3   -8    4      0.19      0.00
   -2   -8    4     -0.26      0.00
   -1   -8    4     -0.55      0.00
    0   -8    4      0.66      0.00
    1   -8    4     -0.52      0.00
    2   -8    4      0.67      0.00
    3   -8    4      0.35      0.00
   -5   -7    4      0.03      0.00
   -4   -7    4      0.08      0.00
   -3   -7    4     -0.16      0.00
   -2   -7    4      0.22      0.00
   -1   -7    4      0.93      0.00
    0   -7    4     -0.87      0.00
    1   -7    4      0.66      0.00
    2   -7    4     -0.39      0.00
    3   -7    4     -0.49      0.00
    4   -7    4      0.33      0.00
   -6   -6    4     -0.41      0.00
   -5   -6    4     -0.16      0.00
   -4   -6    4     -0.08      0.00
   -3   -6    4      0.11      0.00
   -2   -6    4     -0.09      0.00
   -1   -6    4     -1.69      0.00
    0   -6    4      0.82      0.00
    1   -6    4     -0.97      0.00
    2   -6    4      0.09      0.00
    3   -6    4      0.51      0.00
    4   -6    4     -0.18      0.00
    5   -6    4      0.31      0.00
   -6   -5    4      0.23      0.00
   -5   -5    4      0.21      0.00
   -4   -5    4      0.10      0.00
   -3   -5    4     -0.21      0.00
   -2   -5    4     -0.42      0.00
   -1   -5    4      2.84      0.00
    0   -5    4     -0.44      0.00
    1   -5    4      1.44      0.00
    2   -5    4     -0.11      0.00
    3   -5    4     -0.72      0.00
    4   -5    4     -0.22      0.00
    5   -5    4     -0.37      0.00
   -6   -4    4      0.06      0.00
   -5   -4    4     -0.31      0.00
   -4   -4    4     -0.19      0.00
   -3   -4    4      0.51      0.00
   -2   -4    4      1.18      0.00
   -1   -4    4     -4.23      0.00
    0   -4    4     -0.30      0.00
    1   -4    4     -1.49      0.00
    2   -4    4      0.15      0.00
    3   -4    4      1.43      0.00
    4   -4    4      0.53      0.00
    5   -4    4      0.42      0.00
    6   -4    4      0.46      0.00
   -6   -3    4     -0.12      0.00
   -5   -3    4      0.38      0.00
   -4   -3    4      0.33      0.00
   -3   -3    4     -0.82      0.00
   -2   -3    4     -1.83      0.00
   -1   -3    4      5.73      0.00
    0   -3    4      1.84      0.00
    1   -3    4      0.83      0.00
    2   -3    4      0.11      0.00
    3   -3    4     -2.33      0.00
    4   -3    4     -0.55      0.00
    5   -3    4     -0.36      0.00
    6   -3    4     -0.21      0.00
   -6   -2    4     -0.11      0.00
   -5   -2    4     -0.29      0.00
   -4   -2    4     -0.26      0.00
   -3   -2    4      0.91      0.00
   -2   -2    4      2.20      0.00
   -1   -2    4     -7.28      0.00
    0   -2    4     -4.62      0.00
    1   -2    4     -0.20      0.00
    2   -2    4     -0.43      0.00
    3   -2    4      2.79      0.00
    4   -2    4      0.44      0.00
    5   -2    4      0.12      0.00
    6   -2    4     -0.10      0.00
   -6   -1    4      0.33      0.00
   -5   -1    4      0.16      0.00
   -4   -1    4     -0.16      0.00
   -3   -1    4     -0.72      0.00
   -2   -1    4     -2.30      0.00
   -1   -1    4      8.57      0.00
    0   -1    4      7.97      0.00
    1   -1    4      0.14      0.00
    2   -1    4      0.51      0.00
    3   -1    4     -2.64      0.00
    4   -1    4     -0.48      0.00
    5   -1    4      0.17      0.00
    6   -1    4      0.20      0.00
   -6    0    4     -0.37      0.00
   -5    0    4     -0.14      0.00
   -4    0    4      0.69      0.00
   -3    0    4      0.42      0.00
   -2    0    4      2.00      0.00
   -1    0    4     -8.86      0.00
    0    0    4    -10.31      0.00
    1    0    4      0.10      0.00
    2    0    4     -0.63      0.00
    3    0    4      2.19      0.00
    4    0    4      0.56      0.00
    5    0    4     -0.34      0.00
    6    0    4     -0.10      0.00
   -6    1    4      0.38      0.00
   -5    1    4      0.11      0.00
   -4    1    4     -1.03      0.00
   -3    1    4     -0.35      0.00
   -2    1    4     -1.34      0.00
   -1    1    4      7.71      0.00
    0    1    4     10.65      0.00
    1    1    4     -1.15      0.00
    2    1    4      0.98      0.00
    3    1    4     -1.65      0.00
    4    1    4     -0.50      0.00
    5    1    4      0.35      0.00
    6    1    4      0.05      0.00
    7    1    4     -0.54      0.00
   -6    2    4     -0.44      0.00
   -5    2    4      0.05      0.00
   -4    2    4      1.13      0.00
   -3    2    4      0.55      0.00
   -2    2    4      0.73      0.00
   -1    2    4     -5.63      0.00
    0    2    4     -9.40      0.00
    1    2    4      2.11      0.00
    2    2    4     -1.14      0.00
    3    2    4      1.03      0.00
    4    2    4      0.40      0.00
    5    2    4     -0.25      0.00
    6    2    4     -0.14      0.00
    7    2    4      0.65      0.00
   -6    3    4      0.36      0.00
   -5    3    4     -0.21      0.00
   -4    3    4     -1.10      0.00
   -3    3    4     -0.74      0.00
   -2    3    4     -0.52      0.00
   -1    3    4      3.52      0.00
    0    3    4      7.49      0.00
    1    3    4     -2.00      0.00
    2    3    4      0.84      0.00
    3    3    4     -0.30      0.00
    4    3    4     -0.37      0.00
    5    3    4      0.17      0.00
    6    3    4      0.32      0.00
    7    3    4     -0.60      0.00
   -5    4    4      0.18      0.00
   -4    4    4      0.93      0.00
   -3    4    4      0.65      0.00
   -2    4    4      0.52      0.00
   -1    4    4     -1.77      0.00
    0    4    4     -5.53      0.00
    1    4    4      1.36      0.00
    2    4    4     -0.49      0.00
    3    4    4     -0.44      0.00
    4    4    4      0.27      0.00
    5    4    4     -0.21      0.00
    6    4    4     -0.39      0.00
   -5    5    4     -0.05      0.00
   -4    5    4     -0.61      0.00
   -3    5    4     -0.34      0.00
   -2    5    4     -0.40      0.00
   -1    5    4      0.44      0.00
    0    5    4      3.81      0.00
    1    5    4     -1.09      0.00
    2    5    4      0.41      0.00
    3    5    4      0.97      0.00
    4    5    4     -0.05      0.00
    5    5    4      0.33      0.00
    6    5    4      0.27      0.00
   -4    6    4      0.23      0.00
   -3    6    4     -0.07      0.00
   -2    6    4      0.29      0.00
   -1    6    4      0.31      0.00
    0    6    4     -2.45      0.00
    1    6    4      0.92      0.00
    2    6    4     -0.36      0.00
    3    6    4     -1.01      0.00
    4    6    4     -0.01      0.00
    5    6    4     -0.30      0.00
    6    6    4     -0.09      0.00
   -4    7    4      0.03      0.00
   -3    7    4      0.41      0.00
   -2    7    4     -0.44      0.00
   -1    7    4     -0.45      0.00
    0    7    4      1.43      0.00
    1    7    4     -0.32      0.00
    2    7    4      0.07      0.00
    3    7    4      0.70      0.00
    4    7    4     -0.23      0.00
    5    7    4      0.04      0.00
    6    7    4      0.02      0.00
   -3    8    4     -0.49      0.00
   -2    8    4      0.62      0.00
   -1    8    4      0.36      0.00
    0    8    4     -0.68      0.00
    1    8    4     -0.33      0.00
    2    8    4      0.27      0.00
    3    8    4     -0.50      0.00
    4    8    4      0.41      0.00
    5    8    4      0.18      0.00
   -2    9    4     -0.48      0.00
   -1    9    4     -0.31      0.00
    0    9    4      0.20      0.00
    1    9    4      0.39      0.00
    2    9    4     -0.41      0.00
    3    9    4      0.55      0.00
    4    9    4     -0.26      0.00
   -1   10    4      0.20      0.00
    0   10    4      0.07      0.00
    1   10    4     -0.06      0.00
    2   10    4      0.35      0.00
    3   10    4     -0.53      0.00
   -3  -10    5     -0.01      0.00
   -2  -10    5      0.54      0.00
   -1  -10    5      0.47      0.00
    0  -10    5     -0.29      0.00
    1  -10    5      0.42      0.00
   -4   -9    5     -0.44      0.00
   -3   -9    5      0.05      0.00
   -2   -9    5     -0.38      0.00
   -1   -9    5     -0.61      0.00
    0   -9    5      0.53      0.00
    1   -9    5     -0.41      0.00
    2   -9    5      0.48      0.00
   -5   -8    5     -0.20      0.00
   -4   -8    5      0.33      0.00
   -3   -8    5     -0.15      0.00
   -2   -8    5      0.02      0.00
   -1   -8    5      0.75      0.00
    0   -8    5     -0.75      0.00
    1   -8    5      0.28      0.00
    2   -8    5     -0.73      0.00
    3   -8    5     -0.39      0.00
   -5   -7    5      0.23      0.00
   -4   -7    5     -0.10      0.00
   -3   -7    5      0.15      0.00
   -2   -7    5      0.30      0.00
   -1   -7    5     -0.96      0.00
    0   -7    5      0.91      0.00
    1   -7    5     -0.11      0.00
    2   -7    5      0.59      0.00
    3   -7    5      0.52      0.00
    4   -7    5     -0.10      0.00
   -5   -6    5     -0.22      0.00
   -4   -6    5     -0.05      0.00
   -3   -6    5     -0.06      0.00
   -2   -6    5     -0.55      0.00
   -1   -6    5      1.54      0.00
    0   -6    5     -0.82      0.00
    1   -6    5     -0.04      0.00
    2   -6    5     -0.34      0.00
    3   -6    5     -0.49      0.00
    4   -6    5      0.03      0.00
    5   -6    5     -0.26      0.00
   -6   -5    5      0.06      0.00
   -5   -5    5      0.09      0.00
   -4   -5    5      0.06      0.00
   -3   -5    5      0.01      0.00
   -2   -5    5      0.79      0.00
   -1   -5    5     -2.68      0.00
    0   -5    5      0.41      0.00
    1   -5    5      0.32      0.00
    2   -5    5      0.50      0.00
    3   -5    5      0.58      0.00
    4   -5    5      0.12      0.00
    5   -5    5      0.22      0.00
   -6   -4    5     -0.21      0.00
   -5   -4    5      0.18      0.00
   -4   -4    5     -0.01      0.00
   -3   -4    5     -0.04      0.00
   -2   -4    5     -0.95      0.00
   -1   -4    5      4.05      0.00
    0   -4    5      0.20      0.00
    1   -4    5     -1.17      0.00
    2   -4    5     -0.94      0.00
    3   -4    5     -1.06      0.00
    4   -4    5     -0.16      0.00
    5   -4    5     -0.25      0.00
    6   -4    5     -0.10      0.00
   -6   -3    5      0.11      0.00
   -5   -3    5     -0.34      0.00
   -4   -3    5     -0.02      0.00
   -3   -3    5      0.03      0.00
   -2   -3    5      0.83      0.00
   -1   -3    5     -5.29      0.00
    0   -3    5     -1.18      0.00
    1   -3    5      2.81      0.00
    2   -3    5      1.15      0.00
    3   -3    5      1.69      0.00
    4   -3    5      0.00      0.00
    5   -3    5      0.27      0.00
    6   -3    5      0.00      0.00
   -6   -2    5      0.17      0.00
   -5   -2    5      0.17      0.00
   -4   -2    5     -0.11      0.00
   -3   -2    5      0.19      0.00
   -2   -2    5     -0.38      0.00
   -1   -2    5      6.35      0.00
    0   -2    5      2.84      0.00
    1   -2    5     -4.65      0.00
    2   -2    5     -1.26      0.00
    3   -2    5     -1.91      0.00
    4   -2    5      0.16      0.00
    5   -2    5     -0.13      0.00
    6   -2    5      0.06      0.00
   -6   -1    5     -0.31      0.00
   -5   -1    5      0.12      0.00
   -4   -1    5      0.38      0.00
   -3   -1    5     -0.59      0.00
   -2   -1    5     -0.32      0.00
   -1   -1    5     -7.15      0.00
    0   -1    5     -4.91      0.00
    1   -1    5      5.90      0.00
    2   -1    5      1.55      0.00
    3   -1    5      1.63      0.00
    4   -1    5     -0.18      0.00
    5   -1    5     -0.14      0.00
    6   -1    5     -0.08      0.00
   -6    0    5      0.19      0.00
   -5    0    5     -0.21      0.00
   -4    0    5     -0.65      0.00
   -3    0    5      0.96      0.00
   -2    0    5      1.12      0.00
   -1    0    5      7.16      0.00
    0    0    5      6.47      0.00
    1    0    5     -6.33      0.00
    2    0    5     -1.68      0.00
    3    0    5     -1.15      0.00
    4    0    5      0.12      0.00
    5    0    5      0.33      0.00
    6    0    5      0.14      0.00
   -6    1    5     -0.01      0.00
   -5    1    5      0.16      0.00
   -4    1    5      0.78      0.00
   -3    1    5     -1.09      0.00
   -2    1    5     -1.88      0.00
   -1    1    5     -6.10      0.00
    0    1    5     -6.91      0.00
    1    1    5      6.09      0.00
    2    1    5      1.31      0.00
    3    1    5      0.71      0.00
    4    1    5     -0.08      0.00
    5    1    5     -0.28      0.00
    6    1    5     -0.21      0.00
    7    1    5      0.44      0.00
   -6    2    5     -0.04      0.00
   -5    2    5     -0.18      0.00
   -4    2    5     -0.81      0.00
   -3    2    5      0.96      0.00
   -2    2    5      2.29      0.00
   -1    2    5      4.51      0.00
    0    2    5      6.42      0.00
    1    2    5     -5.13      0.00
    2    2    5     -0.86      0.00
    3    2    5     -0.34      0.00
    4    2    5     -0.01      0.00
    5    2    5      0.10      0.00
    6    2    5      0.26      0.00
    7    2    5     -0.63      0.00
   -5    3    5      0.17      0.00
   -4    3    5      0.80      0.00
   -3    3    5     -0.74      0.00
   -2    3    5     -2.09      0.00
   -1    3    5     -3.02      0.00
    0    3    5     -5.43      0.00
    1    3    5      3.57      0.00
    2    3    5      0.75      0.00
    3    3    5     -0.06      0.00
    4    3    5      0.19      0.00
    5    3    5     -0.01      0.00
    6    3    5     -0.30      0.00
    7    3    5      0.65      0.00
   -5    4    5     -0.01      0.00
   -4    4    5     -0.69      0.00
   -3    4    5      0.56      0.00
   -2    4    5      1.51      0.00
   -1    4    5      1.70      0.00
    0    4    5      4.25      0.00
    1    4    5     -2.03      0.00
    2    4    5     -0.66      0.00
    3    4    5      0.55      0.00
    4    4    5     -0.24      0.00
    5    4    5      0.03      0.00
    6    4    5      0.21      0.00
   -5    5    5     -0.15      0.00
   -4    5    5      0.44      0.00
   -3    5    5     -0.47      0.00
   -2    5    5     -1.01      0.00
   -1    5    5     -0.54      0.00
    0    5    5     -3.10      0.00
    1    5    5      1.03      0.00
    2    5    5      0.34      0.00
    3    5    5     -0.99      0.00
    4    5    5      0.06      0.00
    5    5    5     -0.04      0.00
    6    5    5      0.08      0.00
   -4    6    5     -0.12      0.00
   -3    6    5      0.45      0.00
   -2    6    5      0.70      0.00
   -1    6    5     -0.08      0.00
    0    6    5      2.09      0.00
    1    6    5     -0.41      0.00
    2    6    5     -0.26      0.00
    3    6    5      1.03      0.00
    4    6    5      0.12      0.00
    5    6    5     -0.02      0.00
    6    6    5     -0.30      0.00
   -4    7    5     -0.09      0.00
   -3    7    5     -0.46      0.00
   -2    7    5     -0.31      0.00
   -1    7    5      0.00      0.00
    0    7    5     -1.21      0.00
    1    7    5     -0.12      0.00
    2    7    5      0.68      0.00
    3    7    5     -0.65      0.00
    4    7    5     -0.06      0.00
    5    7    5      0.08      0.00
    6    7    5      0.22      0.00
   -3    8    5      0.40      0.00
   -2    8    5     -0.09      0.00
   -1    8    5      0.21      0.00
    0    8    5      0.49      0.00
    1    8    5      0.40      0.00
    2    8    5     -1.06      0.00
    3    8    5      0.27      0.00
    4    8    5     -0.12      0.00
    5    8    5     -0.11      0.00
   -2    9    5      0.20      0.00
   -1    9    5     -0.13      0.00
    0    9    5      0.02      0.00
    1    9    5     -0.26      0.00
    2    9    5      0.93      0.00
    3    9    5     -0.19      0.00
    4    9    5      0.16      0.00
   -1   10    5     -0.02      0.00
    0   10    5     -0.29      0.00
    1   10    5      0.00      0.00
    2   10    5     -0.48      0.00
    3   10    5      0.21      0.00
   -2  -10    6     -0.23      0.00
   -1  -10    6     -0.21      0.00
    0  -10    6      0.38      0.00
    1  -10    6     -0.40      0.00
   -4   -9    6      0.50      0.00
   -3   -9    6     -0.05      0.00
   -2   -9    6      0.08      0.00
   -1   -9    6      0.51      0.00
    0   -9    6     -0.55      0.00
    1   -9    6      0.39      0.00
    2   -9    6     -0.25      0.00
   -4   -8    6     -0.37      0.00
   -3   -8    6      0.09      0.00
   -2   -8    6      0.26      0.00
   -1   -8    6     -0.79      0.00
    0   -8    6      0.70      0.00
    1   -8    6     -0.14      0.00
    2   -8    6      0.47      0.00
    3   -8    6      0.19      0.00
   -5   -7    6     -0.21      0.00
   -4   -7    6      0.09      0.00
   -3   -7    6     -0.06      0.00
   -2   -7    6     -0.69      0.00
   -1   -7    6      0.89      0.00
    0   -7    6     -0.79      0.00
    1   -7    6     -0.19      0.00
    2   -7    6     -0.39      0.00
    3   -7    6     -0.27      0.00
    4   -7    6     -0.13      0.00
   -5   -6    6      0.26      0.00
   -4   -6    6      0.08      0.00
   -3   -6    6     -0.04      0.00
   -2   -6    6      1.04      0.00
   -1   -6    6     -1.10      0.00
    0   -6    6      0.75      0.00
    1   -6    6      0.64      0.00
    2   -6    6      0.16      0.00
    3   -6    6      0.22      0.00
    4   -6    6      0.14      0.00
    5   -6    6      0.07      0.00
   -6   -5    6     -0.17      0.00
   -5   -5    6     -0.09      0.00
   -4   -5    6     -0.14      0.00
   -3   -5    6      0.17      0.00
   -2   -5    6     -1.13      0.00
   -1   -5    6      1.73      0.00
    0   -5    6     -0.59      0.00
    1   -5    6     -1.43      0.00
    2   -5    6     -0.23      0.00
    3   -5    6     -0.12      0.00
    4   -5    6     -0.06      0.00
    5   -5    6      0.08      0.00
   -6   -4    6      0.15      0.00
   -5   -4    6     -0.19      0.00
   -4   -4    6      0.18      0.00
   -3   -4    6     -0.38      0.00
   -2   -4    6      0.90      0.00
   -1   -4    6     -2.48      0.00
    0   -4    6      0.44      0.00
    1   -4    6      2.74      0.00
    2   -4    6      0.53      0.00
    3   -4    6      0.16      0.00
    4   -4    6     -0.15      0.00
    5   -4    6     -0.08      0.00
    6   -4    6     -0.19      0.00
   -6   -3    6     -0.01      0.00
   -5   -3    6      0.23      0.00
   -4   -3    6     -0.23      0.00
   -3   -3    6      0.73      0.00
   -2   -3    6     -0.39      0.00
   -1   -3    6      2.81      0.00
    0   -3    6     -0.31      0.00
    1   -3    6     -4.53      0.00
    2   -3    6     -0.63      0.00
    3   -3    6     -0.28      0.00
    4   -3    6      0.40      0.00
    5   -3    6     -0.07      0.00
    6   -3    6      0.13      0.00
   -6   -2    6     -0.14      0.00
   -5   -2    6      0.09      0.00
   -4   -2    6      0.25      0.00
   -3   -2    6     -1.19      0.00
   -2   -2    6     -0.33      0.00
   -1   -2    6     -2.68      0.00
    0   -2    6      0.07      0.00
    1   -2    6      6.43      0.00
    2   -2    6      0.69      0.00
    3   -2    6      0.19      0.00
    4   -2    6     -0.53      0.00
    5   -2    6      0.15      0.00
    6   -2    6      0.09      0.00
   -6   -1    6      0.11      0.00
   -5   -1    6     -0.40      0.00
   -4   -1    6     -0.25      0.00
   -3   -1    6      1.61      0.00
   -2   -1    6      1.17      0.00
   -1   -1    6      2.33      0.00
    0   -1    6      0.30      0.00
    1   -1    6     -7.84      0.00
    2   -1    6     -1.04      0.00
    3   -1    6      0.15      0.00
    4   -1    6      0.52      0.00
    5   -1    6      0.00      0.00
    6   -1    6     -0.19      0.00
   -6    0    6      0.13      0.00
   -5    0    6      0.39      0.00
   -4    0    6      0.27      0.00
   -3    0    6     -1.85      0.00
   -2    0    6     -1.99      0.00
   -1    0    6     -1.84      0.00
    0    0    6     -0.78      0.00
    1    0    6      8.21      0.00
    2    0    6      1.42      0.00
    3    0    6     -0.51      0.00
    4    0    6     -0.48      0.00
    5    0    6     -0.19      0.00
    6    0    6      0.04      0.00
   -6    1    6     -0.40      0.00
   -5    1    6     -0.24      0.00
   -4    1    6     -0.30      0.00
   -3    1    6      1.92      0.00
   -2    1    6      2.65      0.00
   -1    1    6      1.22      0.00
    0    1    6      1.32      0.00
    1    1    6     -7.42      0.00
    2    1    6     -1.39      0.00
    3    1    6      0.66      0.00
    4    1    6      0.40      0.00
    5    1    6      0.17      0.00
    6    1    6      0.16      0.00
    7    1    6     -0.45      0.00
   -6    2    6      0.46      0.00
   -5    2    6      0.18      0.00
   -4    2    6      0.26      0.00
   -3    2    6     -1.88      0.00
   -2    2    6     -2.94      0.00
   -1    2    6     -0.72      0.00
    0    2    6     -1.73      0.00
    1    2    6      5.77      0.00
    2    2    6      1.25      0.00
    3    2    6     -0.58      0.00
    4    2    6     -0.19      0.00
    5    2    6      0.00      0.00
    6    2    6     -0.22      0.00
    7    2    6      0.54      0.00
   -5    3    6     -0.10      0.00
   -4    3    6     -0.15      0.00
   -3    3    6      1.72      0.00
   -2    3    6      2.68      0.00
   -1    3    6      0.50      0.00
    0    3    6      1.85      0.00
    1    3    6     -3.81      0.00
    2    3    6     -1.31      0.00
    3    3    6      0.45      0.00
    4    3    6     -0.11      0.00
    5    3    6     -0.11      0.00
    6    3    6      0.15      0.00
   -5    4    6     -0.10      0.00
   -4    4    6      0.01      0.00
   -3    4    6     -1.42      0.00
   -2    4    6     -2.03      0.00
   -1    4    6     -0.27      0.00
    0    4    6     -1.74      0.00
    1    4    6      2.08      0.00
    2    4    6      1.28      0.00
    3    4    6     -0.48      0.00
    4    4    6      0.29      0.00
    5    4    6      0.21      0.00
    6    4    6      0.05      0.00
   -5    5    6      0.24      0.00
   -4    5    6      0.12      0.00
   -3    5    6      1.04      0.00
   -2    5    6      1.48      0.00
   -1    5    6     -0.10      0.00
    0    5    6      1.54      0.00
    1    5    6     -0.83      0.00
    2    5    6     -0.98      0.00
    3    5    6      0.70      0.00
    4    5    6     -0.18      0.00
    5    5    6     -0.37      0.00
    6    5    6     -0.38      0.00
   -4    6    6     -0.19      0.00
   -3    6    6     -0.70      0.00
   -2    6    6     -1.15      0.00
   -1    6    6      0.22      0.00
    0    6    6     -1.17      0.00
    1    6    6      0.06      0.00
    2    6    6      0.91      0.00
    3    6    6     -0.85      0.00
    4    6    6     -0.15      0.00
    5    6    6      0.42      0.00
    6    6    6      0.54      0.00
   -4    7    6      0.17      0.00
   -3    7    6      0.46      0.00
   -2    7    6      0.81      0.00
   -1    7    6      0.10      0.00
    0    7    6      0.58      0.00
    1    7    6      0.30      0.00
    2    7    6     -1.29      0.00
    3    7    6      0.68      0.00
    4    7    6      0.41      0.00
    5    7    6     -0.24      0.00
    6    7    6     -0.33      0.00
   -3    8    6     -0.32      0.00
   -2    8    6     -0.38      0.00
   -1    8    6     -0.42      0.00
    0    8    6     -0.03      0.00
    1    8    6     -0.33      0.00
    2    8    6      1.58      0.00
    3    8    6     -0.30      0.00
    4    8    6     -0.36      0.00
    5    8    6      0.01      0.00
   -2    9    6      0.12      0.00
   -1    9    6      0.31      0.00
    0    9    6     -0.20      0.00
    1    9    6      0.15      0.00
    2    9    6     -1.31      0.00
    3    9    6      0.00      0.00
    4    9    6      0.11      0.00
   -1   10    6     -0.04      0.00
    0   10    6      0.20      0.00
    1   10    6     -0.04      0.00
    2   10    6      0.73      0.00
    3   10    6      0.09      0.00
   -2  -10    7     -0.25      0.00
   -1  -10    7     -0.04      0.00
    0  -10    7     -0.28      0.00
    1  -10    7      0.35      0.00
   -3   -9    7      0.05      0.00
   -2   -9    7      0.31      0.00
   -1   -9    7     -0.36      0.00
    0   -9    7      0.43      0.00
    1   -9    7     -0.40      0.00
    2   -9    7     -0.12      0.00
   -4   -8    7      0.09      0.00
   -3   -8    7      0.04      0.00
   -2   -8    7     -0.46      0.00
   -1   -8    7      0.75      0.00
    0   -8    7     -0.50      0.00
    1   -8    7      0.23      0.00
    2   -8    7      0.11      0.00
    3   -8    7      0.14      0.00
   -5   -7    7      0.08      0.00
   -4   -7    7      0.08      0.00
   -3   -7    7     -0.14      0.00
   -2   -7    7      0.80      0.00
   -1   -7    7     -0.82      0.00
    0   -7    7      0.47      0.00
    1   -7    7      0.06      0.00
    2   -7    7     -0.20      0.00
    3   -7    7     -0.16      0.00
    4   -7    7      0.19      0.00
   -5   -6    7     -0.10      0.00
   -4   -6    7     -0.16      0.00
   -3   -6    7      0.20      0.00
   -2   -6    7     -1.15      0.00
   -1   -6    7      0.74      0.00
    0   -6    7     -0.40      0.00
    1   -6    7     -0.56      0.00
    2   -6    7      0.36      0.00
    3   -6    7      0.16      0.00
    4   -6    7     -0.24      0.00
    5   -6    7      0.14      0.00
   -5   -5    7     -0.02      0.00
   -4   -5    7      0.20      0.00
   -3   -5    7     -0.32      0.00
   -2   -5    7      1.20      0.00
   -1   -5    7     -0.73      0.00
    0   -5    7      0.45      0.00
    1   -5    7      1.46      0.00
    2   -5    7     -0.45      0.00
    3   -5    7     -0.29      0.00
    4   -5    7      0.11      0.00
    5   -5    7     -0.28      0.00
   -6   -4    7      0.04      0.00
   -5   -4    7      0.15      0.00
   -4   -4    7     -0.30      0.00
   -3   -4    7      0.61      0.00
   -2   -4    7     -0.92      0.00
   -1   -4    7      0.61      0.00
    0   -4    7     -0.63      0.00
    1   -4    7     -2.66      0.00
    2   -4    7      0.61      0.00
    3   -4    7      0.54      0.00
    4   -4    7      0.16      0.00
    5   -4    7      0.29      0.00
   -6   -3    7     -0.07      0.00
   -5   -3    7     -0.03      0.00
   -4   -3    7      0.32      0.00
   -3   -3    7     -1.07      0.00
   -2   -3    7      0.54      0.00
   -1   -3    7      0.03      0.00
    0   -3    7      0.88      0.00
    1   -3    7      3.85      0.00
    2   -3    7     -0.93      0.00
    3   -3    7     -0.81      0.00
    4   -3    7     -0.35      0.00
    5   -3    7     -0.08      0.00
    6   -3    7     -0.08      0.00
   -6   -2    7     -0.02      0.00
   -5   -2    7     -0.29      0.00
   -4   -2    7     -0.15      0.00
   -3   -2    7      1.50      0.00
   -2   -2    7     -0.13      0.00
   -1   -2    7     -1.18      0.00
    0   -2    7     -1.24      0.00
    1   -2    7     -4.87      0.00
    2   -2    7      1.08      0.00
    3   -2    7      1.10      0.00
    4   -2    7      0.35      0.00
    5   -2    7     -0.14      0.00
    6   -2    7     -0.24      0.00
   -6   -1    7      0.18      0.00
   -5   -1    7      0.43      0.00
   -4   -1    7     -0.06      0.00
   -3   -1    7     -1.74      0.00
   -2   -1    7     -0.39      0.00
   -1   -1    7      2.37      0.00
    0   -1    7      1.70      0.00
    1   -1    7      5.58      0.00
    2   -1    7     -0.76      0.00
    3   -1    7     -1.40      0.00
    4   -1    7     -0.29      0.00
    5   -1    7      0.15      0.00
    6   -1    7      0.44      0.00
   -6    0    7     -0.39      0.00
   -5    0    7     -0.26      0.00
   -4    0    7      0.10      0.00
   -3    0    7      1.77      0.00
   -2    0    7      0.97      0.00
   -1    0    7     -3.14      0.00
    0    0    7     -1.92      0.00
    1    0    7     -5.67      0.00
    2    0    7      0.23      0.00
    3    0    7      1.57      0.00
    4    0    7      0.30      0.00
    5    0    7     -0.01      0.00
    6    0    7     -0.33      0.00
   -6    1    7      0.58      0.00
   -5    1    7      0.06      0.00
   -4    1    7     -0.05      0.00
   -3    1    7     -1.75      0.00
   -2    1    7     -1.41      0.00
   -1    1    7      3.32      0.00
    0    1    7      1.62      0.00
    1    1    7      5.00      0.00
    2    1    7      0.17      0.00
    3    1    7     -1.45      0.00
    4    1    7     -0.26      0.00
    5    1    7     -0.04      0.00
    6    1    7      0.11      0.00
   -6    2    7     -0.57      0.00
   -5    2    7     -0.05      0.00
   -4    2    7      0.14      0.00
   -3    2    7      1.72      0.00
   -2    2    7      1.56      0.00
   -1    2    7     -2.95      0.00
    0    2    7     -1.06      0.00
    1    2    7     -3.76      0.00
    2    2    7     -0.57      0.00
    3    2    7      1.07      0.00
    4    2    7      0.09      0.00
    5    2    7     -0.02      0.00
    6    2    7     -0.03      0.00
   -5    3    7      0.04      0.00
   -4    3    7     -0.37      0.00
   -3    3    7     -1.58      0.00
   -2    3    7     -1.39      0.00
   -1    3    7      2.19      0.00
    0    3    7      0.60      0.00
    1    3    7      2.39      0.00
    2    3    7      1.11      0.00
    3    3    7     -0.62      0.00
    4    3    7      0.13      0.00
    5    3    7      0.11      0.00
    6    3    7      0.13      0.00
   -5    4    7      0.10      0.00
   -4    4    7      0.58      0.00
   -3    4    7      1.28      0.00
   -2    4    7      1.09      0.00
   -1    4    7     -1.43      0.00
    0    4    7     -0.23      0.00
    1    4    7     -1.20      0.00
    2    4    7     -1.43      0.00
    3    4    7      0.32      0.00
    4    4    7     -0.28      0.00
    5    4    7     -0.30      0.00
    6    4    7     -0.35      0.00
   -5    5    7     -0.20      0.00
   -4    5    7     -0.63      0.00
   -3    5    7     -0.94      0.00
   -2    5    7     -0.95      0.00
   -1    5    7      0.95      0.00
    0    5    7     -0.12      0.00
    1    5    7      0.32      0.00
    2    5    7      1.35      0.00
    3    5    7     -0.36      0.00
    4    5    7      0.23      0.00
    5    5    7      0.54      0.00
    6    5    7      0.54      0.00
   -4    6    7      0.48      0.00
   -3    6    7      0.63      0.00
   -2    6    7      0.95      0.00
   -1    6    7     -0.60      0.00
    0    6    7      0.20      0.00
    1    6    7      0.22      0.00
    2    6    7     -1.26      0.00
    3    6    7      0.63      0.00
    4    6    7      0.14      0.00
    5    6    7     -0.58      0.00
    6    6    7     -0.53      0.00
   -4    7    7     -0.22      0.00
   -3    7    7     -0.34      0.00
   -2    7    7     -0.82      0.00
   -1    7    7      0.13      0.00
    0    7    7      0.11      0.00
    1    7    7     -0.42      0.00
    2    7    7      1.38      0.00
    3    7    7     -0.76      0.00
    4    7    7     -0.62      0.00
    5    7    7      0.28      0.00
   -3    8    7      0.17      0.00
   -2    8    7      0.50      0.00
   -1    8    7      0.26      0.00
    0    8    7     -0.33      0.00
    1    8    7      0.35      0.00
    2    8    7     -1.43      0.00
    3    8    7      0.53      0.00
    4    8    7      0.74      0.00
    5    8    7      0.06      0.00
   -2    9    7     -0.20      0.00
   -1    9    7     -0.24      0.00
    0    9    7      0.14      0.00
    1    9    7     -0.17      0.00
    2    9    7      1.17      0.00
    3    9    7     -0.15      0.00
    4    9    7     -0.42      0.00
   -1   10    7      0.00      0.00
    0   10    7      0.18      0.00
    1   10    7      0.07      0.00
    2   10    7     -0.75      0.00
    3   10    7     -0.08      0.00
   -2  -10    8      0.58      0.00
   -1  -10    8      0.03      0.00
    0  -10    8      0.04      0.00
   -3   -9    8      0.10      0.00
   -2   -9    8     -0.61      0.00
   -1   -9    8      0.31      0.00
    0   -9    8     -0.19      0.00
    1   -9    8      0.40      0.00
    2   -9    8      0.40      0.00
   -4   -8    8      0.32      0.00
   -3   -8    8     -0.31      0.00
   -2   -8    8      0.58      0.00
   -1   -8    8     -0.65      0.00
    0   -8    8      0.21      0.00
    1   -8    8     -0.40      0.00
    2   -8    8     -0.64      0.00
    3   -8    8     -0.32      0.00
   -5   -7    8     -0.01      0.00
   -4   -7    8     -0.37      0.00
   -3   -7    8      0.41      0.00
   -2   -7    8     -0.70      0.00
   -1   -7    8      0.75      0.00
    0   -7    8     -0.03      0.00
    1   -7    8      0.25      0.00
    2   -7    8      0.76      0.00
    3   -7    8      0.45      0.00
    4   -7    8     -0.11      0.00
   -5   -6    8     -0.02      0.00
   -4   -6    8      0.30      0.00
   -3   -6    8     -0.40      0.00
   -2   -6    8      0.84      0.00
   -1   -6    8     -0.57      0.00
    0   -6    8     -0.16      0.00
    1   -6    8      0.13      0.00
    2   -6    8     -0.78      0.00
    3   -6    8     -0.41      0.00
    4   -6    8      0.25      0.00
   -5   -5    8      0.06      0.00
   -4   -5    8     -0.24      0.00
   -3   -5    8      0.48      0.00
   -2   -5    8     -0.80      0.00
   -1   -5    8      0.16      0.00
    0   -5    8      0.14      0.00
    1   -5    8     -0.80      0.00
    2   -5    8      0.95      0.00
    3   -5    8      0.42      0.00
    4   -5    8     -0.23      0.00
    5   -5    8      0.21      0.00
   -6   -4    8     -0.19      0.00
   -5   -4    8     -0.01      0.00
   -4   -4    8      0.26      0.00
   -3   -4    8     -0.72      0.00
   -2   -4    8      0.68      0.00
   -1   -4    8      0.57      0.00
    0   -4    8     -0.02      0.00
    1   -4    8      1.46      0.00
    2   -4    8     -1.45      0.00
    3   -4    8     -0.65      0.00
    4   -4    8      0.08      0.00
    5   -4    8     -0.19      0.00
   -6   -3    8      0.06      0.00
   -5   -3    8     -0.15      0.00
   -4   -3    8     -0.20      0.00
   -3   -3    8      1.00      0.00
   -2   -3    8     -0.72      0.00
   -1   -3    8     -1.67      0.00
    0   -3    8      0.00      0.00
    1   -3    8     -1.82      0.00
    2   -3    8      2.07      0.00
    3   -3    8      1.00      0.00
    4   -3    8     -0.06      0.00
    5   -3    8      0.07      0.00
    6   -3    8     -0.10      0.00
   -6   -2    8      0.23      0.00
   -5   -2    8      0.29      0.00
   -4   -2    8     -0.03      0.00
   -3   -2    8     -1.12      0.00
   -2   -2    8      0.83      0.00
   -1   -2    8      3.07      0.00
    0   -2    8      0.10      0.00
    1   -2    8      1.85      0.00
    2   -2    8     -2.30      0.00
    3   -2    8     -1.32      0.00
    4   -2    8      0.20      0.00
    5   -2    8      0.10      0.00
    6   -2    8      0.30      0.00
   -6   -1    8     -0.40      0.00
   -5   -1    8     -0.21      0.00
   -4   -1    8      0.21      0.00
   -3   -1    8      1.05      0.00
   -2   -1    8     -0.75      0.00
   -1   -1    8     -4.36      0.00
    0   -1    8     -0.48      0.00
    1   -1    8     -1.71      0.00
    2   -1    8      1.96      0.00
    3   -1    8      1.53      0.00
    4   -1    8     -0.27      0.00
    5   -1    8     -0.20      0.00
    6   -1    8     -0.46      0.00
   -6    0    8      0.44      0.00
   -5    0    8     -0.07      0.00
   -4    0    8     -0.16      0.00
   -3    0    8     -0.93      0.00
   -2    0    8      0.49      0.00
   -1    0    8      5.08      0.00
    0    0    8      0.91      0.00
    1    0    8      1.47      0.00
    2    0    8     -1.38      0.00
    3    0    8     -1.52      0.00
    4    0    8      0.19      0.00
    5    0    8      0.16      0.00
    6    0    8      0.45      0.00
   -6    1    8     -0.47      0.00
   -5    1    8      0.23      0.00
   -4    1    8      0.06      0.00
   -3    1    8      0.86      0.00
   -2    1    8     -0.32      0.00
   -1    1    8     -5.05      0.00
    0    1    8     -1.05      0.00
    1    1    8     -1.11      0.00
    2    1    8      0.76      0.00
    3    1    8      1.28      0.00
    4    1    8     -0.11      0.00
    5    1    8     -0.05      0.00
    6    1    8     -0.33      0.00
   -5    2    8     -0.15      0.00
   -4    2    8     -0.17      0.00
   -3    2    8     -0.74      0.00
   -2    2    8      0.38      0.00
   -1    2    8      4.40      0.00
    0    2    8      0.95      0.00
    1    2    8      0.63      0.00
    2    2    8      0.01      0.00
    3    2    8     -0.91      0.00
    4    2    8      0.11      0.00
    5    2    8     -0.04      0.00
    6    2    8      0.29      0.00
   -5    3    8      0.03      0.00
   -4    3    8      0.44      0.00
   -3    3    8      0.50      0.00
   -2    3    8     -0.46      0.00
   -1    3    8     -3.36      0.00
    0    3    8     -0.87      0.00
    1    3    8     -0.13      0.00
    2    3    8     -0.85      0.00
    3    3    8      0.56      0.00
    4    3    8     -0.11      0.00
    5    3    8      0.00      0.00
    6    3    8     -0.42      0.00
   -5    4    8     -0.05      0.00
   -4    4    8     -0.65      0.00
   -3    4    8     -0.26      0.00
   -2    4    8      0.33      0.00
   -1    4    8      2.25      0.00
    0    4    8      0.73      0.00
    1    4    8     -0.24      0.00
    2    4    8      1.38      0.00
    3    4    8     -0.26      0.00
    4    4    8      0.12      0.00
    5    4    8      0.20      0.00
    6    4    8      0.59      0.00
   -4    5    8      0.70      0.00
   -3    5    8      0.19      0.00
   -2    5    8     -0.01      0.00
   -1    5    8     -1.41      0.00
    0    5    8     -0.50      0.00
    1    5    8      0.43      0.00
    2    5    8     -1.42      0.00
    3    5    8      0.17      0.00
    4    5    8     -0.10      0.00
    5    5    8     -0.43      0.00
    6    5    8     -0.60      0.00
   -4    6    8     -0.53      0.00
   -3    6    8     -0.21      0.00
   -2    6    8     -0.31      0.00
   -1    6    8      0.89      0.00
    0    6    8      0.42      0.00
    1    6    8     -0.52      0.00
    2    6    8      1.23      0.00
    3    6    8     -0.37      0.00
    4    6    8     -0.15      0.00
    5    6    8      0.47      0.00
    6    6    8      0.41      0.00
   -3    7    8      0.13      0.00
   -2    7    8      0.45      0.00
   -1    7    8     -0.42      0.00
    0    7    8     -0.54      0.00
    1    7    8      0.58      0.00
    2    7    8     -1.03      0.00
    3    7    8      0.62      0.00
    4    7    8      0.56      0.00
    5    7    8     -0.24      0.00
   -3    8    8      0.01      0.00
   -2    8    8     -0.36      0.00
   -1    8    8     -0.02      0.00
    0    8    8      0.42      0.00
    1    8    8     -0.49      0.00
    2    8    8      0.80      0.00
    3    8    8     -0.60      0.00
    4    8    8     -0.74      0.00
    5    8    8     -0.03      0.00
   -2    9    8      0.14      0.00
   -1    9    8      0.16      0.00
    0    9    8      0.13      0.00
    1    9    8      0.26      0.00
    2    9    8     -0.53      0.00
    3    9    8      0.38      0.00
    0   10    8     -0.61      0.00
    1   10    8     -0.07      0.00
    2   10    8      0.35      0.00
    3   10    8     -0.20      0.00
   -1  -10    9      0.15      0.00
   -3   -9    9     -0.40      0.00
   -2   -9    9      0.82      0.00
   -1   -9    9     -0.30      0.00
    0   -9    9      0.01      0.00
    1   -9    9     -0.25      0.00
    2   -9    9     -0.38      0.00
   -4   -8    9     -0.57      0.00
   -3   -8    9      0.62      0.00
   -2   -8    9     -0.74      0.00
   -1   -8    9      0.47      0.00
    0   -8    9      0.02      0.00
    1   -8    9      0.33      0.00
    2   -8    9      0.74      0.00
    3   -8    9      0.17      0.00
   -4   -7    9      0.59      0.00
   -3   -7    9     -0.62      0.00
   -2   -7    9      0.61      0.00
   -1   -7    9     -0.57      0.00
    0   -7    9     -0.29      0.00
    1   -7    9     -0.27      0.00
    2   -7    9     -0.87      0.00
    3   -7    9     -0.38      0.00
    4   -7    9      0.02      0.00
   -5   -6    9      0.06      0.00
   -4   -6    9     -0.41      0.00
   -3   -6    9      0.54      0.00
   -2   -6    9     -0.42      0.00
   -1   -6    9      0.45      0.00
    0   -6    9      0.62      0.00
    1   -6    9      0.05      0.00
    2   -6    9      0.76      0.00
    3   -6    9      0.37      0.00
    4   -6    9     -0.23      0.00
   -5   -5    9     -0.01      0.00
   -4   -5    9      0.17      0.00
   -3   -5    9     -0.60      0.00
   -2   -5    9      0.20      0.00
   -1   -5    9      0.04      0.00
    0   -5    9     -0.83      0.00
    1   -5    9      0.22      0.00
    2   -5    9     -0.84      0.00
    3   -5    9     -0.29      0.00
    4   -5    9      0.32      0.00
    5   -5    9      0.13      0.00
   -5   -4    9     -0.13      0.00
   -4   -4    9     -0.03      0.00
   -3   -4    9      0.76      0.00
   -2   -4    9     -0.16      0.00
   -1   -4    9     -0.83      0.00
    0   -4    9      1.07      0.00
    1   -4    9     -0.28      0.00
    2   -4    9      1.34      0.00
    3   -4    9      0.33      0.00
    4   -4    9     -0.33      0.00
    5   -4    9     -0.16      0.00
   -6   -3    9      0.01      0.00
   -5   -3    9      0.20      0.00
   -4   -3    9     -0.08      0.00
   -3   -3    9     -0.76      0.00
   -2   -3    9      0.46      0.00
   -1   -3    9      1.73      0.00
    0   -3    9     -1.50      0.00
    1   -3    9      0.02      0.00
    2   -3    9     -1.90      0.00
    3   -3    9     -0.51      0.00
    4   -3    9      0.49      0.00
    5   -3    9      0.08      0.00
    6   -3    9      0.24      0.00
   -6   -2    9     -0.34      0.00
   -5   -2    9     -0.12      0.00
   -4   -2    9      0.16      0.00
   -3   -2    9      0.50      0.00
   -2   -2    9     -0.90      0.00
   -1   -2    9     -2.65      0.00
    0   -2    9      1.91      0.00
    1   -2    9      0.51      0.00
    2   -2    9      1.98      0.00
    3   -2    9      0.74      0.00
    4   -2    9     -0.72      0.00
    5   -2    9     -0.05      0.00
    6   -2    9     -0.18      0.00
   -6   -1    9      0.44      0.00
   -5   -1    9     -0.07      0.00
   -4   -1    9     -0.08      0.00
   -3   -1    9     -0.16      0.00
   -2   -1    9      1.14      0.00
   -1   -1    9      3.49      0.00
    0   -1    9     -1.92      0.00
    1   -1    9     -1.14      0.00
    2   -1    9     -1.60      0.00
    3   -1    9     -0.88      0.00
    4   -1    9      0.76      0.00
    5   -1    9      0.15      0.00
    6   -1    9      0.17      0.00
   -6    0    9     -0.31      0.00
   -5    0    9      0.28      0.00
   -4    0    9     -0.13      0.00
   -3    0    9     -0.04      0.00
   -2    0    9     -1.16      0.00
   -1    0    9     -3.98      0.00
    0    0    9      1.55      0.00
    1    0    9      1.63      0.00
    2    0    9      1.08      0.00
    3    0    9      0.78      0.00
    4    0    9     -0.54      0.00
    5    0    9     -0.22      0.00
    6    0    9     -0.22      0.00
   -5    1    9     -0.38      0.00
   -4    1    9      0.23      0.00
   -3    1    9      0.15      0.00
   -2    1    9      1.26      0.00
   -1    1    9      3.94      0.00
    0    1    9     -1.10      0.00
    1    1    9     -1.82      0.00
    2    1    9     -0.50      0.00
    3    1    9     -0.56      0.00
    4    1    9      0.29      0.00
    5    1    9      0.08      0.00
    6    1    9      0.27      0.00
   -5    2    9      0.30      0.00
   -4    2    9     -0.10      0.00
   -3    2    9     -0.38      0.00
   -2    2    9     -1.47      0.00
   -1    2    9     -3.41      0.00
    0    2    9      0.70      0.00
    1    2    9      1.82      0.00
    2    2    9     -0.24      0.00
    3    2    9      0.47      0.00
    4    2    9     -0.13      0.00
    5    2    9      0.13      0.00
    6    2    9     -0.36      0.00
   -5    3    9     -0.11      0.00
   -4    3    9     -0.09      0.00
   -3    3    9      0.73      0.00
   -2    3    9      1.47      0.00
   -1    3    9      2.60      0.00
    0    3    9     -0.29      0.00
    1    3    9     -1.73      0.00
    2    3    9      0.97      0.00
    3    3    9     -0.50      0.00
    4    3    9     -0.03      0.00
    5    3    9     -0.15      0.00
    6    3    9      0.54      0.00
   -5    4    9      0.00      0.00
   -4    4    9      0.23      0.00
   -3    4    9     -0.91      0.00
   -2    4    9     -1.13      0.00
   -1    4    9     -1.78      0.00
    0    4    9     -0.07      0.00
    1    4    9      1.51      0.00
    2    4    9     -1.33      0.00
    3    4    9      0.41      0.00
    4    4    9      0.13      0.00
    5    4    9     -0.04      0.00
    6    4    9     -0.66      0.00
   -4    5    9     -0.33      0.00
   -3    5    9      0.72      0.00
   -2    5    9      0.69      0.00
   -1    5    9      1.18      0.00
    0    5    9      0.33      0.00
    1    5    9     -1.12      0.00
    2    5    9      1.27      0.00
    3    5    9     -0.17      0.00
    4    5    9     -0.13      0.00
    5    5    9      0.22      0.00
    6    5    9      0.53      0.00
   -4    6    9      0.32      0.00
   -3    6    9     -0.34      0.00
   -2    6    9     -0.33      0.00
   -1    6    9     -0.84      0.00
    0    6    9     -0.53      0.00
    1    6    9      0.81      0.00
    2    6    9     -0.99      0.00
    3    6    9      0.07      0.00
    4    6    9      0.12      0.00
    5    6    9     -0.28      0.00
    6    6    9     -0.29      0.00
   -3    7    9      0.11      0.00
   -2    7    9      0.00      0.00
   -1    7    9      0.50      0.00
    0    7    9      0.61      0.00
    1    7    9     -0.70      0.00
    2    7    9      0.66      0.00
    3    7    9     -0.15      0.00
    4    7    9     -0.24      0.00
    5    7    9      0.23      0.00
   -2    8    9      0.22      0.00
   -1    8    9     -0.09      0.00
    0    8    9     -0.31      0.00
    1    8    9      0.57      0.00
    2    8    9     -0.26      0.00
    3    8    9      0.26      0.00
    4    8    9      0.33      0.00
    5    8    9     -0.10      0.00
   -1    9    9     -0.15      0.00
    0    9    9     -0.33      0.00
    1    9    9     -0.28      0.00
    2    9    9     -0.09      0.00
    3    9    9     -0.32      0.00
    0   10    9      0.78      0.00
    1   10    9      0.05      0.00
    2   10    9      0.21      0.00
    3   10    9      0.37      0.00
   -2   -9   10     -1.02      0.00
   -1   -9   10      0.27      0.00
    0   -9   10      0.00      0.00
    1   -9   10     -0.06      0.00
   -3   -8   10     -0.72      0.00
   -2   -8   10      0.97      0.00
   -1   -8   10     -0.25      0.00
    0   -8   10     -0.03      0.00
    1   -8   10      0.09      0.00
    2   -8   10     -0.44      0.00
    3   -8   10      0.16      0.00
   -4   -7   10     -0.62      0.00
   -3   -7   10      0.62      0.00
   -2   -7   10     -0.65      0.00
   -1   -7   10      0.29      0.00
    0   -7   10      0.30      0.00
    1   -7   10     -0.16      0.00
    2   -7   10      0.52      0.00
    3   -7   10      0.02      0.00
    4   -7   10      0.00      0.00
   -5   -6   10     -0.07      0.00
   -4   -6   10      0.45      0.00
   -3   -6   10     -0.48      0.00
   -2   -6   10      0.21      0.00
   -1   -6   10     -0.21      0.00
    0   -6   10     -0.69      0.00
    1   -6   10      0.24      0.00
    2   -6   10     -0.37      0.00
    3   -6   10     -0.14      0.00
    4   -6   10      0.24      0.00
   -5   -5   10     -0.03      0.00
   -4   -5   10     -0.08      0.00
   -3   -5   10      0.51      0.00
   -2   -5   10      0.17      0.00
   -1   -5   10     -0.16      0.00
    0   -5   10      1.14      0.00
    1   -5   10     -0.18      0.00
    2   -5   10      0.27      0.00
    3   -5   10      0.13      0.00
    4   -5   10     -0.34      0.00
    5   -5   10     -0.48      0.00
   -5   -4   10      0.16      0.00
   -4   -4   10     -0.24      0.00
   -3   -4   10     -0.61      0.00
   -2   -4   10     -0.28      0.00
   -1   -4   10      0.64      0.00
    0   -4   10     -1.70      0.00
    1   -4   10     -0.11      0.00
    2   -4   10     -0.43      0.00
    3   -4   10     -0.03      0.00
    4   -4   10      0.41      0.00
    5   -4   10      0.51      0.00
   -5   -3   10     -0.09      0.00
   -4   -3   10      0.34      0.00
   -3   -3   10      0.49      0.00
   -2   -3   10      0.06      0.00
   -1   -3   10     -0.96      0.00
    0   -3   10      2.37      0.00
    1   -3   10      0.58      0.00
    2   -3   10      0.60      0.00
    3   -3   10     -0.03      0.00
    4   -3   10     -0.63      0.00
    5   -3   10     -0.22      0.00
    6   -3   10     -0.21      0.00
   -5   -2   10     -0.08      0.00
   -4   -2   10     -0.16      0.00
   -3   -2   10     -0.09      0.00
   -2   -2   10      0.29      0.00
   -1   -2   10      1.12      0.00
    0   -2   10     -2.96      0.00
    1   -2   10     -1.20      0.00
    2   -2   10     -0.45      0.00
    3   -2   10     -0.08      0.00
    4   -2   10      0.89      0.00
    5   -2   10     -0.05      0.00
    6   -2   10     -0.08      0.00
   -5   -1   10      0.16      0.00
   -4   -1   10     -0.20      0.00
   -3   -1   10     -0.33      0.00
   -2   -1   10     -0.56      0.00
   -1   -1   10     -1.34      0.00
    0   -1   10      3.23      0.00
    1   -1   10      1.93      0.00
    2   -1   10      0.06      0.00
    3   -1   10      0.18      0.00
    4   -1   10     -0.85      0.00
    5   -1   10      0.00      0.00
    6   -1   10      0.32      0.00
   -5    0   10     -0.18      0.00
   -4    0   10      0.53      0.00
   -3    0   10      0.58      0.00
   -2    0   10      0.74      0.00
   -1    0   10      1.56      0.00
    0    0   10     -3.05      0.00
    1    0   10     -2.55      0.00
    2    0   10      0.31      0.00
    3    0   10     -0.08      0.00
    4    0   10      0.49      0.00
    5    0   10      0.18      0.00
    6    0   10     -0.29      0.00
   -5    1   10      0.26      0.00
   -4    1   10     -0.59      0.00
   -3    1   10     -0.76      0.00
   -2    1   10     -0.99      0.00
   -1    1   10     -1.51      0.00
    0    1   10      2.57      0.00
    1    1   10      2.77      0.00
    2    1   10     -0.65      0.00
    3    1   10     -0.03      0.00
    4    1   10     -0.11      0.00
    5    1   10     -0.12      0.00
    6    1   10      0.06      0.00
   -5    2   10     -0.30      0.00
   -4    2   10      0.44      0.00
   -3    2   10      1.02      0.00
   -2    2   10      1.19      0.00
   -1    2   10      1.15      0.00
    0    2   10     -1.98      0.00
    1    2   10     -2.65      0.00
    2    2   10      1.03      0.00
    3    2   10     -0.19      0.00
    4    2   10     -0.08      0.00
    5    2   10     -0.13      0.00
    6    2   10      0.23      0.00
   -5    3   10      0.17      0.00
   -4    3   10     -0.34      0.00
   -3    3   10     -1.32      0.00
   -2    3   10     -1.10      0.00
   -1    3   10     -0.72      0.00
    0    3   10      1.37      0.00
    1    3   10      2.41      0.00
    2    3   10     -1.29      0.00
    3    3   10      0.57      0.00
    4    3   10      0.19      0.00
    5    3   10      0.21      0.00
    6    3   10     -0.44      0.00
   -5    4   10      0.00      0.00
   -4    4   10      0.28      0.00
   -3    4   10      1.43      0.00
   -2    4   10      0.82      0.00
   -1    4   10      0.45      0.00
    0    4   10     -0.74      0.00
    1    4   10     -2.02      0.00
    2    4   10      1.22      0.00
    3    4   10     -0.62      0.00
    4    4   10     -0.29      0.00
    5    4   10     -0.07      0.00
    6    4   10      0.46      0.00
   -4    5   10     -0.13      0.00
   -3    5   10     -1.21      0.00
   -2    5   10     -0.68      0.00
   -1    5   10     -0.38      0.00
    0    5   10      0.15      0.00
    1    5   10      1.44      0.00
    2    5   10     -0.94      0.00
    3    5   10      0.24      0.00
    4    5   10      0.26      0.00
    5    5   10     -0.06      0.00
    6    5   10     -0.31      0.00
   -4    6   10     -0.04      0.00
   -3    6   10      0.75      0.00
   -2    6   10      0.60      0.00
   -1    6   10      0.37      0.00
    0    6   10      0.26      0.00
    1    6   10     -0.94      0.00
    2    6   10      0.68      0.00
    3    6   10      0.18      0.00
    4    6   10     -0.08      0.00
    5    6   10      0.14      0.00
    6    6   10      0.15      0.00
   -3    7   10     -0.30      0.00
   -2    7   10     -0.28      0.00
   -1    7   10     -0.28      0.00
    0    7   10     -0.40      0.00
    1    7   10      0.67      0.00
    2    7   10     -0.45      0.00
    3    7   10     -0.35      0.00
    4    7   10     -0.09      0.00
    5    7   10     -0.21      0.00
   -2    8   10     -0.18      0.00
   -1    8   10      0.07      0.00
    0    8   10      0.20      0.00
    1    8   10     -0.45      0.00
    2    8   10      0.10      0.00
    3    8   10      0.28      0.00
    4    8   10      0.15      0.00
    5    8   10      0.19      0.00
   -1    9   10      0.10      0.00
    0    9   10      0.25      0.00
    1    9   10      0.16      0.00
    2    9   10      0.31      0.00
    3    9   10     -0.05      0.00
    1   10   10      0.00      0.00
    2   10   10     -0.46      0.00
   -2   -9   11      1.10      0.00
   -1   -9   11     -0.23      0.00
    0   -9   11      0.12      0.00
    1   -9   11      0.27      0.00
   -3   -8   11      0.50      0.00
   -2   -8   11     -1.09      0.00
   -1   -8   11      0.09      0.00
    0   -8   11     -0.15      0.00
    1   -8   11     -0.50      0.00
    2   -8   11      0.14      0.00
   -4   -7   11      0.47      0.00
   -3   -7   11     -0.39      0.00
   -2   -7   11      0.70      0.00
   -1   -7   11     -0.02      0.00
    0   -7   11     -0.05      0.00
    1   -7   11      0.63      0.00
    2   -7   11     -0.13      0.00
    3   -7   11      0.27      0.00
   -4   -6   11     -0.43      0.00
   -3   -6   11      0.21      0.00
   -2   -6   11     -0.22      0.00
   -1   -6   11     -0.09      0.00
    0   -6   11      0.42      0.00
    1   -6   11     -0.62      0.00
    2   -6   11     -0.02      0.00
    3   -6   11     -0.07      0.00
    4   -6   11     -0.23      0.00
   -5   -5   11      0.04      0.00
   -4   -5   11      0.07      0.00
   -3   -5   11     -0.15      0.00
   -2   -5   11     -0.14      0.00
   -1   -5   11      0.34      0.00
    0   -5   11     -0.94      0.00
    1   -5   11      0.43      0.00
    2   -5   11      0.26      0.00
    3   -5   11     -0.10      0.00
    4   -5   11      0.30      0.00
    5   -5   11      0.62      0.00
   -5   -4   11     -0.14      0.00
   -4   -4   11      0.32      0.00
   -3   -4   11      0.18      0.00
   -2   -4   11      0.32      0.00
   -1   -4   11     -0.55      0.00
    0   -4   11      1.50      0.00
    1   -4   11     -0.15      0.00
    2   -4   11     -0.53      0.00
    3   -4   11      0.04      0.00
    4   -4   11     -0.31      0.00
    5   -4   11     -0.65      0.00
   -5   -3   11     -0.02      0.00
   -4   -3   11     -0.38      0.00
   -3   -3   11     -0.14      0.00
   -2   -3   11     -0.39      0.00
   -1   -3   11      0.39      0.00
    0   -3   11     -1.98      0.00
    1   -3   11     -0.18      0.00
    2   -3   11      0.84      0.00
    3   -3   11      0.13      0.00
    4   -3   11      0.45      0.00
    5   -3   11      0.24      0.00
   -5   -2   11      0.16      0.00
   -4   -2   11      0.06      0.00
   -3   -2   11     -0.06      0.00
   -2   -2   11      0.41      0.00
   -1   -2   11      0.03      0.00
    0   -2   11      2.35      0.00
    1   -2   11      0.62      0.00
    2   -2   11     -1.20      0.00
    3   -2   11     -0.13      0.00
    4   -2   11     -0.62      0.00
    5   -2   11      0.20      0.00
    6   -2   11      0.34      0.00
   -5   -1   11     -0.03      0.00
   -4   -1   11      0.41      0.00
   -3   -1   11      0.32      0.00
   -2   -1   11     -0.40      0.00
   -1   -1   11     -0.33      0.00
    0   -1   11     -2.62      0.00
    1   -1   11     -1.23      0.00
    2   -1   11      1.54      0.00
    3   -1   11      0.07      0.00
    4   -1   11      0.50      0.00
    5   -1   11     -0.18      0.00
    6   -1   11     -0.75      0.00
   -5    0   11     -0.15      0.00
   -4    0   11     -0.73      0.00
   -3    0   11     -0.55      0.00
   -2    0   11      0.31      0.00
   -1    0   11      0.43      0.00
    0    0   11      2.64      0.00
    1    0   11      1.81      0.00
    2    0   11     -1.73      0.00
    3    0   11     -0.16      0.00
    4    0   11     -0.08      0.00
    5    0   11     -0.15      0.00
    6    0   11      0.80      0.00
   -5    1   11      0.07      0.00
   -4    1   11      0.76      0.00
   -3    1   11      0.77      0.00
   -2    1   11     -0.14      0.00
   -1    1   11     -0.59      0.00
    0    1   11     -2.32      0.00
    1    1   11     -2.10      0.00
    2    1   11      1.75      0.00
    3    1   11      0.19      0.00
    4    1   11     -0.27      0.00
    5    1   11      0.26      0.00
    6    1   11     -0.44      0.00
   -4    2   11     -0.63      0.00
   -3    2   11     -0.94      0.00
   -2    2   11      0.05      0.00
   -1    2   11      0.88      0.00
    0    2   11      1.81      0.00
    1    2   11      2.09      0.00
    2    2   11     -1.64      0.00
    3    2   11      0.14      0.00
    4    2   11      0.31      0.00
    5    2   11     -0.04      0.00
    6    2   11      0.00      0.00
   -5    3   11     -0.16      0.00
   -4    3   11      0.52      0.00
   -3    3   11      1.01      0.00
   -2    3   11     -0.14      0.00
   -1    3   11     -1.02      0.00
    0    3   11     -1.28      0.00
    1    3   11     -1.95      0.00
    2    3   11      1.38      0.00
    3    3   11     -0.57      0.00
    4    3   11     -0.21      0.00
    5    3   11     -0.12      0.00
    6    3   11      0.20      0.00
   -4    4   11     -0.43      0.00
   -3    4   11     -1.05      0.00
   -2    4   11      0.19      0.00
   -1    4   11      0.85      0.00
    0    4   11      0.79      0.00
    1    4   11      1.70      0.00
    2    4   11     -0.92      0.00
    3    4   11      0.59      0.00
    4    4   11      0.21      0.00
    5    4   11      0.07      0.00
    6    4   11     -0.11      0.00
   -4    5   11      0.27      0.00
   -3    5   11      1.04      0.00
   -2    5   11      0.06      0.00
   -1    5   11     -0.56      0.00
    0    5   11     -0.35      0.00
    1    5   11     -1.28      0.00
    2    5   11      0.47      0.00
    3    5   11     -0.16      0.00
    4    5   11     -0.23      0.00
    5    5   11     -0.01      0.00
    6    5   11     -0.02      0.00
   -3    6   11     -0.83      0.00
   -2    6   11     -0.36      0.00
   -1    6   11      0.35      0.00
    0    6   11      0.04      0.00
    1    6   11      0.85      0.00
    2    6   11     -0.27      0.00
    3    6   11     -0.29      0.00
    4    6   11      0.06      0.00
    5    6   11     -0.01      0.00
   -3    7   11      0.40      0.00
   -2    7   11      0.26      0.00
   -1    7   11     -0.18      0.00
    0    7   11      0.11      0.00
    1    7   11     -0.54      0.00
    2    7   11      0.24      0.00
    3    7   11      0.51      0.00
    4    7   11      0.20      0.00
    5    7   11      0.07      0.00
   -2    8   11      0.14      0.00
   -1    8   11      0.01      0.00
    0    8   11     -0.11      0.00
    1    8   11      0.27      0.00
    2    8   11     -0.08      0.00
    3    8   11     -0.52      0.00
    4    8   11     -0.34      0.00
   -1    9   11      0.04      0.00
    0    9   11     -0.02      0.00
    1    9   11     -0.02      0.00
    2    9   11     -0.20      0.00
    3    9   11      0.37      0.00
   -1   -9   12      0.21      0.00
    0   -9   12     -0.23      0.00
   -3   -8   12     -0.14      0.00
   -2   -8   12      0.81      0.00
   -1   -8   12     -0.04      0.00
    0   -8   12      0.31      0.00
    1   -8   12      0.43      0.00
    2   -8   12     -0.12      0.00
   -4   -7   12     -0.27      0.00
   -3   -7   12      0.13      0.00
   -2   -7   12     -0.47      0.00
   -1   -7   12     -0.09      0.00
    0   -7   12     -0.17      0.00
    1   -7   12     -0.57      0.00
    2   -7   12      0.00      0.00
    3   -7   12     -0.25      0.00
   -4   -6   12      0.38      0.00
   -3   -6   12      0.03      0.00
   -2   -6   12      0.14      0.00
   -1   -6   12      0.23      0.00
    0   -6   12     -0.15      0.00
    1   -6   12      0.53      0.00
    2   -6   12      0.16      0.00
    3   -6   12      0.10      0.00
    4   -6   12      0.16      0.00
   -4   -5   12     -0.15      0.00
   -3   -5   12     -0.25      0.00
   -2   -5   12      0.02      0.00
   -1   -5   12     -0.47      0.00
    0   -5   12      0.54      0.00
    1   -5   12     -0.43      0.00
    2   -5   12     -0.45      0.00
    3   -5   12      0.17      0.00
    4   -5   12     -0.23      0.00
   -5   -4   12      0.16      0.00
   -4   -4   12     -0.16      0.00
   -3   -4   12      0.35      0.00
   -2   -4   12     -0.14      0.00
   -1   -4   12      0.65      0.00
    0   -4   12     -0.78      0.00
    1   -4   12      0.37      0.00
    2   -4   12      0.95      0.00
    3   -4   12     -0.26      0.00
    4   -4   12      0.16      0.00
    5   -4   12      0.53      0.00
   -5   -3   12      0.00      0.00
   -4   -3   12      0.17      0.00
   -3   -3   12     -0.29      0.00
   -2   -3   12      0.38      0.00
   -1   -3   12     -0.42      0.00
    0   -3   12      0.78      0.00
    1   -3   12     -0.32      0.00
    2   -3   12     -1.53      0.00
    3   -3   12      0.17      0.00
    4   -3   12     -0.11      0.00
    5   -3   12     -0.16      0.00
   -5   -2   12     -0.10      0.00
   -4   -2   12      0.12      0.00
   -3   -2   12      0.16      0.00
   -2   -2   12     -0.72      0.00
   -1   -2   12     -0.17      0.00
    0   -2   12     -0.72      0.00
    1   -2   12      0.14      0.00
    2   -2   12      1.99      0.00
    3   -2   12     -0.12      0.00
    4   -2   12      0.11      0.00
    5   -2   12     -0.29      0.00
    6   -2   12     -0.41      0.00
   -5   -1   12     -0.16      0.00
   -4   -1   12     -0.42      0.00
   -3   -1   12     -0.10      0.00
   -2   -1   12      1.06      0.00
   -1   -1   12      0.74      0.00
    0   -1   12      0.79      0.00
    1   -1   12      0.19      0.00
    2   -1   12     -2.25      0.00
    3   -1   12      0.12      0.00
    4   -1   12      0.05      0.00
    5   -1   12      0.25      0.00
    6   -1   12      0.90      0.00
   -5    0   12      0.44      0.00
   -4    0   12      0.59      0.00
   -3    0   12      0.20      0.00
   -2    0   12     -1.26      0.00
   -1    0   12     -1.09      0.00
    0    0   12     -0.87      0.00
    1    0   12     -0.55      0.00
    2    0   12      2.26      0.00
    3    0   12     -0.01      0.00
    4    0   12     -0.39      0.00
    5    0   12      0.21      0.00
    6    0   12     -1.09      0.00
   -5    1   12     -0.36      0.00
   -4    1   12     -0.62      0.00
   -3    1   12     -0.38      0.00
   -2    1   12      1.30      0.00
   -1    1   12      1.37      0.00
    0    1   12      0.69      0.00
    1    1   12      0.83      0.00
    2    1   12     -2.01      0.00
    3    1   12     -0.08      0.00
    4    1   12      0.57      0.00
    5    1   12     -0.48      0.00
    6    1   12      0.75      0.00
   -5    2   12      0.07      0.00
   -4    2   12      0.53      0.00
   -3    2   12      0.40      0.00
   -2    2   12     -1.27      0.00
   -1    2   12     -1.65      0.00
    0    2   12     -0.29      0.00
    1    2   12     -0.98      0.00
    2    2   12      1.58      0.00
    3    2   12     -0.06      0.00
    4    2   12     -0.37      0.00
    5    2   12      0.33      0.00
    6    2   12     -0.23      0.00
   -4    3   12     -0.35      0.00
   -3    3   12     -0.25      0.00
   -2    3   12      1.21      0.00
   -1    3   12      1.66      0.00
    0    3   12     -0.02      0.00
    1    3   12      1.03      0.00
    2    3   12     -1.03      0.00
    3    3   12      0.24      0.00
    4    3   12      0.05      0.00
    5    3   12     -0.07      0.00
    6    3   12      0.04      0.00
   -4    4   12      0.17      0.00
   -3    4   12      0.23      0.00
   -2    4   12     -1.04      0.00
   -1    4   12     -1.36      0.00
    0    4   12      0.10      0.00
    1    4   12     -0.97      0.00
    2    4   12      0.43      0.00
    3    4   12     -0.12      0.00
    4    4   12      0.02      0.00
    5    4   12     -0.02      0.00
    6    4   12     -0.19      0.00
   -4    5   12     -0.04      0.00
   -3    5   12     -0.45      0.00
   -2    5   12      0.64      0.00
   -1    5   12      1.07      0.00
    0    5   12     -0.02      0.00
    1    5   12      0.81      0.00
    2    5   12      0.06      0.00
    3    5   12     -0.17      0.00
    4    5   12      0.08      0.00
    5    5   12      0.04      0.00
    6    5   12      0.30      0.00
   -3    6   12      0.59      0.00
   -2    6   12     -0.19      0.00
   -1    6   12     -0.90      0.00
    0    6   12     -0.06      0.00
    1    6   12     -0.62      0.00
    2    6   12     -0.24      0.00
    3    6   12      0.32      0.00
    4    6   12     -0.06      0.00
    5    6   12     -0.11      0.00
   -3    7   12     -0.37      0.00
   -2    7   12     -0.02      0.00
   -1    7   12      0.60      0.00
    0    7   12      0.06      0.00
    1    7   12      0.45      0.00
    2    7   12      0.17      0.00
    3    7   12     -0.29      0.00
    4    7   12     -0.08      0.00
    5    7   12      0.18      0.00
   -2    8   12     -0.06      0.00
   -1    8   12     -0.14      0.00
    0    8   12      0.02      0.00
    1    8   12     -0.26      0.00
    2    8   12     -0.13      0.00
    3    8   12      0.32      0.00
    4    8   12      0.19      0.00
    0    9   12     -0.09      0.00
    1    9   12      0.08      0.00
    2    9   12      0.15      0.00
    3    9   12     -0.37      0.00
   -2   -8   13     -0.18      0.00
   -1   -8   13      0.05      0.00
    0   -8   13     -0.26      0.00
    1   -8   13      0.14      0.00
    2   -8   13      0.23      0.00
   -3   -7   13     -0.09      0.00
   -2   -7   13     -0.05      0.00
   -1   -7   13      0.05      0.00
    0   -7   13      0.15      0.00
    1   -7   13     -0.05      0.00
    2   -7   13     -0.03      0.00
    3   -7   13      0.01      0.00
   -4   -6   13     -0.27      0.00
   -3   -6   13      0.02      0.00
   -2   -6   13      0.19      0.00
   -1   -6   13     -0.15      0.00
    0   -6   13      0.07      0.00
    1   -6   13      0.03      0.00
    2   -6   13     -0.16      0.00
    3   -6   13     -0.03      0.00
    4   -6   13     -0.06      0.00
   -4   -5   13      0.15      0.00
   -3   -5   13      0.31      0.00
   -2   -5   13     -0.16      0.00
   -1   -5   13      0.43      0.00
    0   -5   13     -0.23      0.00
    1   -5   13      0.02      0.00
    2   -5   13      0.40      0.00
    3   -5   13     -0.18      0.00
    4   -5   13      0.16      0.00
   -4   -4   13      0.00      0.00
   -3   -4   13     -0.62      0.00
   -2   -4   13      0.14      0.00
   -1   -4   13     -0.75      0.00
    0   -4   13      0.13      0.00
    1   -4   13     -0.16      0.00
    2   -4   13     -0.80      0.00
    3   -4   13      0.40      0.00
    4   -4   13     -0.07      0.00
    5   -4   13     -0.26      0.00
   -5   -3   13      0.09      0.00
   -4   -3   13      0.11      0.00
   -3   -3   13      0.60      0.00
   -2   -3   13     -0.29      0.00
   -1   -3   13      0.74      0.00
    0   -3   13      0.29      0.00
    1   -3   13      0.27      0.00
    2   -3   13      1.29      0.00
    3   -3   13     -0.49      0.00
    4   -3   13     -0.14      0.00
    5   -3   13      0.06      0.00
   -5   -2   13     -0.02      0.00
   -4   -2   13     -0.30      0.00
   -3   -2   13     -0.29      0.00
   -2   -2   13      0.66      0.00
   -1   -2   13     -0.32      0.00
    0   -2   13     -0.77      0.00
    1   -2   13     -0.29      0.00
    2   -2   13     -1.64      0.00
    3   -2   13      0.50      0.00
    4   -2   13      0.30      0.00
    5   -2   13      0.22      0.00
   -5   -1   13      0.23      0.00
   -4   -1   13      0.30      0.00
   -3   -1   13     -0.01      0.00
   -2   -1   13     -1.13      0.00
   -1   -1   13     -0.17      0.00
    0   -1   13      1.01      0.00
    1   -1   13      0.28      0.00
    2   -1   13      1.75      0.00
    3   -1   13     -0.44      0.00
    4   -1   13     -0.45      0.00
    5   -1   13     -0.13      0.00
    6   -1   13     -0.74      0.00
   -5    0   13     -0.46      0.00
   -4    0   13     -0.22      0.00
   -3    0   13      0.07      0.00
   -2    0   13      1.54      0.00
   -1    0   13      0.50      0.00
    0    0   13     -1.04      0.00
    1    0   13     -0.23      0.00
    2    0   13     -1.62      0.00
    3    0   13      0.24      0.00
    4    0   13      0.63      0.00
    5    0   13     -0.33      0.00
    6    0   13      1.09      0.00
   -5    1   13      0.40      0.00
   -4    1   13      0.24      0.00
   -3    1   13      0.01      0.00
   -2    1   13     -1.72      0.00
   -1    1   13     -0.78      0.00
    0    1   13      1.18      0.00
    1    1   13      0.05      0.00
    2    1   13      1.29      0.00
    3    1   13      0.00      0.00
    4    1   13     -0.61      0.00
    5    1   13      0.63      0.00
    6    1   13     -0.91      0.00
   -4    2   13     -0.23      0.00
   -3    2   13      0.07      0.00
   -2    2   13      1.59      0.00
   -1    2   13      1.04      0.00
    0    2   13     -1.49      0.00
    1    2   13      0.22      0.00
    2    2   13     -0.84      0.00
    3    2   13     -0.16      0.00
    4    2   13      0.26      0.00
    5    2   13     -0.50      0.00
    6    2   13      0.42      0.00
   -4    3   13      0.04      0.00
   -3    3   13     -0.32      0.00
   -2    3   13     -1.30      0.00
   -1    3   13     -1.10      0.00
    0    3   13      1.60      0.00
    1    3   13     -0.39      0.00
    2    3   13      0.37      0.00
    3    3   13      0.32      0.00
    4    3   13      0.14      0.00
    5    3   13      0.19      0.00
    6    3   13     -0.19      0.00
   -4    4   13      0.19      0.00
   -3    4   13      0.37      0.00
   -2    4   13      1.06      0.00
   -1    4   13      0.93      0.00
    0    4   13     -1.28      0.00
    1    4   13      0.40      0.00
    2    4   13      0.10      0.00
    3    4   13     -0.55      0.00
    4    4   13     -0.21      0.00
    5    4   13     -0.01      0.00
    6    4   13      0.31      0.00
   -3    5   13     -0.08      0.00
   -2    5   13     -0.88      0.00
   -1    5   13     -0.84      0.00
    0    5   13      0.71      0.00
    1    5   13     -0.36      0.00
    2    5   13     -0.50      0.00
    3    5   13      0.62      0.00
    4    5   13      0.06      0.00
    5    5   13     -0.06      0.00
   -3    6   13     -0.23      0.00
   -2    6   13      0.60      0.00
   -1    6   13      0.88      0.00
    0    6   13     -0.22      0.00
    1    6   13      0.38      0.00
    2    6   13      0.68      0.00
    3    6   13     -0.36      0.00
    4    6   13      0.04      0.00
    5    6   13      0.20      0.00
   -2    7   13     -0.23      0.00
   -1    7   13     -0.70      0.00
    0    7   13     -0.03      0.00
    1    7   13     -0.42      0.00
    2    7   13     -0.63      0.00
    3    7   13      0.03      0.00
    4    7   13     -0.05      0.00
    5    7   13     -0.35      0.00
   -1    8   13      0.25      0.00
    0    8   13      0.08      0.00
    1    8   13      0.40      0.00
    2    8   13      0.48      0.00
    3    8   13      0.00      0.00
    4    8   13      0.04      0.00
    0    9   13      0.00      0.00
    1    9   13     -0.29      0.00
    2    9   13     -0.29      0.00
    3    9   13      0.18      0.00
   -2   -8   14     -0.43      0.00
   -1   -8   14     -0.03      0.00
    0   -8   14      0.03      0.00
    1   -8   14     -0.73      0.00
   -3   -7   14      0.29      0.00
   -2   -7   14      0.54      0.00
   -1   -7   14      0.01      0.00
    0   -7   14      0.00      0.00
    1   -7   14      0.70      0.00
    2   -7   14     -0.04      0.00
    3   -7   14      0.16      0.00
   -3   -6   14     -0.35      0.00
   -2   -6   14     -0.57      0.00
   -1   -6   14      0.02      0.00
    0   -6   14     -0.05      0.00
    1   -6   14     -0.57      0.00
    2   -6   14      0.24      0.00
    3   -6   14      0.01      0.00
   -4   -5   14      0.02      0.00
   -3   -5   14     -0.02      0.00
   -2   -5   14      0.49      0.00
   -1   -5   14     -0.29      0.00
    0   -5   14      0.03      0.00
    1   -5   14      0.44      0.00
    2   -5   14     -0.36      0.00
    3   -5   14      0.02      0.00
    4   -5   14     -0.09      0.00
   -4   -4   14     -0.03      0.00
   -3   -4   14      0.48      0.00
   -2   -4   14     -0.39      0.00
   -1   -4   14      0.69      0.00
    0   -4   14      0.20      0.00
    1   -4   14     -0.31      0.00
    2   -4   14      0.45      0.00
    3   -4   14     -0.26      0.00
    4   -4   14      0.02      0.00
    5   -4   14      0.00      0.00
   -4   -3   14     -0.23      0.00
   -3   -3   14     -0.60      0.00
   -2   -3   14      0.37      0.00
   -1   -3   14     -0.85      0.00
    0   -3   14     -0.73      0.00
    1   -3   14      0.25      0.00
    2   -3   14     -0.56      0.00
    3   -3   14      0.50      0.00
    4   -3   14      0.22      0.00
    5   -3   14     -0.01      0.00
   -5   -2   14      0.07      0.00
   -4   -2   14      0.37      0.00
   -3   -2   14      0.37      0.00
   -2   -2   14     -0.49      0.00
   -1   -2   14      0.68      0.00
    0   -2   14      1.40      0.00
    1   -2   14     -0.20      0.00
    2   -2   14      0.62      0.00
    3   -2   14     -0.57      0.00
    4   -2   14     -0.40      0.00
    5   -2   14     -0.05      0.00
   -5   -1   14     -0.15      0.00
   -4   -1   14     -0.13      0.00
   -3   -1   14     -0.09      0.00
   -2   -1   14      0.74      0.00
   -1   -1   14     -0.51      0.00
    0   -1   14     -1.85      0.00
    1   -1   14      0.05      0.00
    2   -1   14     -0.52      0.00
    3   -1   14      0.46      0.00
    4   -1   14      0.45      0.00
    5   -1   14     -0.07      0.00
   -5    0   14      0.25      0.00
   -4    0   14     -0.18      0.00
   -3    0   14      0.00      0.00
   -2    0   14     -1.04      0.00
   -1    0   14      0.48      0.00
    0    0   14      1.99      0.00
    1    0   14      0.13      0.00
    2    0   14      0.28      0.00
    3    0   14     -0.22      0.00
    4    0   14     -0.47      0.00
    5    0   14      0.39      0.00
    6    0   14     -0.86      0.00
   -4    1   14      0.17      0.00
   -3    1   14     -0.01      0.00
   -2    1   14      1.14      0.00
   -1    1   14     -0.39      0.00
    0    1   14     -2.08      0.00
    1    1   14     -0.07      0.00
    2    1   14     -0.03      0.00
    3    1   14     -0.09      0.00
    4    1   14      0.38      0.00
    5    1   14     -0.57      0.00
    6    1   14      0.87      0.00
   -4    2   14     -0.04      0.00
   -3    2   14     -0.11      0.00
   -2    2   14     -0.87      0.00
   -1    2   14      0.13      0.00
    0    2   14      2.30      0.00
    1    2   14     -0.19      0.00
    2    2   14     -0.16      0.00
    3    2   14      0.40      0.00
    4    2   14     -0.07      0.00
    5    2   14      0.40      0.00
    6    2   14     -0.49      0.00
   -4    3   14      0.13      0.00
   -3    3   14      0.32      0.00
   -2    3   14      0.44      0.00
   -1    3   14      0.05      0.00
    0    3   14     -2.33      0.00
    1    3   14      0.37      0.00
    2    3   14      0.31      0.00
    3    3   14     -0.71      0.00
    4    3   14     -0.21      0.00
    5    3   14     -0.11      0.00
    6    3   14      0.22      0.00
   -4    4   14     -0.31      0.00
   -3    4   14     -0.40      0.00
   -2    4   14     -0.28      0.00
   -1    4   14     -0.06      0.00
    0    4   14      1.85      0.00
    1    4   14     -0.30      0.00
    2    4   14     -0.51      0.00
    3    4   14      0.96      0.00
    4    4   14      0.25      0.00
    5    4   14     -0.04      0.00
   -3    5   14      0.24      0.00
   -2    5   14      0.46      0.00
   -1    5   14      0.10      0.00
    0    5   14     -1.10      0.00
    1    5   14      0.17      0.00
    2    5   14      0.74      0.00
    3    5   14     -0.89      0.00
    4    5   14     -0.13      0.00
    5    5   14      0.09      0.00
   -3    6   14     -0.03      0.00
   -2    6   14     -0.54      0.00
   -1    6   14     -0.28      0.00
    0    6   14      0.48      0.00
    1    6   14     -0.19      0.00
    2    6   14     -0.86      0.00
    3    6   14      0.46      0.00
    4    6   14      0.05      0.00
    5    6   14     -0.20      0.00
   -2    7   14      0.27      0.00
   -1    7   14      0.37      0.00
    0    7   14     -0.12      0.00
    1    7   14      0.33      0.00
    2    7   14      0.81      0.00
    3    7   14     -0.02      0.00
    4    7   14     -0.01      0.00
   -1    8   14     -0.25      0.00
    0    8   14     -0.07      0.00
    1    8   14     -0.43      0.00
    2    8   14     -0.64      0.00
    3    8   14     -0.05      0.00
    4    8   14     -0.08      0.00
    2    9   14      0.40      0.00
   -1   -8   15     -0.04      0.00
    0   -8   15      0.15      0.00
   -2   -7   15     -0.64      0.00
   -1   -7   15      0.00      0.00
    0   -7   15     -0.02      0.00
    1   -7   15     -0.88      0.00
    2   -7   15      0.23      0.00
   -3   -6   15      0.63      0.00
   -2   -6   15      0.63      0.00
   -1   -6   15     -0.01      0.00
    0   -6   15     -0.16      0.00
    1   -6   15      0.71      0.00
    2   -6   15     -0.39      0.00
    3   -6   15     -0.12      0.00
   -4   -5   15     -0.25      0.00
   -3   -5   15     -0.28      0.00
   -2   -5   15     -0.63      0.00
   -1   -5   15      0.21      0.00
    0   -5   15      0.26      0.00
    1   -5   15     -0.59      0.00
    2   -5   15      0.38      0.00
    3   -5   15      0.22      0.00
    4   -5   15      0.00      0.00
   -4   -4   15      0.19      0.00
   -3   -4   15     -0.20      0.00
   -2   -4   15      0.60      0.00
   -1   -4   15     -0.50      0.00
    0   -4   15     -0.36      0.00
    1   -4   15      0.62      0.00
    2   -4   15     -0.17      0.00
    3   -4   15     -0.07      0.00
    4   -4   15      0.06      0.00
   -4   -3   15      0.15      0.00
   -3   -3   15      0.38      0.00
   -2   -3   15     -0.50      0.00
   -1   -3   15      0.58      0.00
    0   -3   15      0.72      0.00
    1   -3   15     -0.76      0.00
    2   -3   15     -0.10      0.00
    3   -3   15     -0.15      0.00
    4   -3   15     -0.21      0.00
    5   -3   15     -0.03      0.00
   -4   -2   15     -0.29      0.00
   -3   -2   15     -0.32      0.00
   -2   -2   15      0.33      0.00
   -1   -2   15     -0.51      0.00
    0   -2   15     -1.29      0.00
    1   -2   15      0.87      0.00
    2   -2   15      0.31      0.00
    3   -2   15      0.18      0.00
    4   -2   15      0.27      0.00
    5   -2   15     -0.04      0.00
   -4   -1   15     -0.06      0.00
   -3   -1   15      0.31      0.00
   -2   -1   15     -0.18      0.00
   -1   -1   15      0.58      0.00
    0   -1   15      1.67      0.00
    1   -1   15     -0.80      0.00
    2   -1   15     -0.57      0.00
    3   -1   15     -0.03      0.00
    4   -1   15     -0.19      0.00
    5   -1   15      0.12      0.00
   -4    0   15      0.44      0.00
   -3    0   15     -0.39      0.00
   -2    0   15      0.14      0.00
   -1    0   15     -0.84      0.00
    0    0   15     -1.65      0.00
    1    0   15      0.58      0.00
    2    0   15      0.85      0.00
    3    0   15     -0.16      0.00
    4    0   15      0.10      0.00
    5    0   15     -0.26      0.00
   -4    1   15     -0.38      0.00
   -3    1   15      0.38      0.00
   -2    1   15     -0.08      0.00
   -1    1   15      0.97      0.00
    0    1   15      1.56      0.00
    1    1   15     -0.48      0.00
    2    1   15     -0.99      0.00
    3    1   15      0.31      0.00
    4    1   15     -0.01      0.00
    5    1   15      0.29      0.00
   -4    2   15      0.13      0.00
   -3    2   15     -0.23      0.00
   -2    2   15     -0.24      0.00
   -1    2   15     -0.77      0.00
    0    2   15     -1.69      0.00
    1    2   15      0.60      0.00
    2    2   15      0.90      0.00
    3    2   15     -0.46      0.00
    4    2   15     -0.12      0.00
    5    2   15     -0.12      0.00
   -4    3   15     -0.07      0.00
   -3    3   15      0.05      0.00
   -2    3   15      0.65      0.00
   -1    3   15      0.53      0.00
    0    3   15      1.75      0.00
    1    3   15     -0.69      0.00
    2    3   15     -0.74      0.00
    3    3   15      0.68      0.00
    4    3   15      0.22      0.00
    5    3   15     -0.09      0.00
   -3    4   15      0.05      0.00
   -2    4   15     -0.68      0.00
   -1    4   15     -0.49      0.00
    0    4   15     -1.39      0.00
    1    4   15      0.50      0.00
    2    4   15      0.71      0.00
    3    4   15     -0.87      0.00
    4    4   15     -0.19      0.00
    5    4   15      0.15      0.00
   -3    5   15     -0.09      0.00
   -2    5   15      0.27      0.00
   -1    5   15      0.53      0.00
    0    5   15      0.81      0.00
    1    5   15     -0.18      0.00
    2    5   15     -0.76      0.00
    3    5   15      0.82      0.00
    4    5   15      0.15      0.00
    5    5   15     -0.12      0.00
   -2    6   15      0.09      0.00
   -1    6   15     -0.41      0.00
    0    6   15     -0.41      0.00
    1    6   15      0.02      0.00
    2    6   15      0.73      0.00
    3    6   15     -0.50      0.00
    4    6   15     -0.20      0.00
    5    6   15      0.14      0.00
   -1    7   15      0.14      0.00
    0    7   15      0.23      0.00
    1    7   15     -0.08      0.00
    2    7   15     -0.61      0.00
    3    7   15      0.22      0.00
    4    7   15      0.21      0.00
    0    8   15     -0.07      0.00
    1    8   15      0.19      0.00
    2    8   15      0.44      0.00
    3    8   15     -0.19      0.00
   -2   -7   16      0.34      0.00
   -1   -7   16     -0.08      0.00
    0   -7   16     -0.19      0.00
    1   -7   16      0.64      0.00
    2   -7   16     -0.35      0.00
   -3   -6   16     -0.57      0.00
   -2   -6   16     -0.32      0.00
   -1   -6   16      0.11      0.00
    0   -6   16      0.54      0.00
    1   -6   16     -0.52      0.00
    2   -6   16      0.40      0.00
    3   -6   16      0.24      0.00
   -3   -5   16      0.23      0.00
   -2   -5   16      0.40      0.00
   -1   -5   16     -0.21      0.00
    0   -5   16     -0.60      0.00
    1   -5   16      0.49      0.00
    2   -5   16     -0.32      0.00
    3   -5   16     -0.36      0.00
   -4   -4   16     -0.24      0.00
   -3   -4   16      0.13      0.00
   -2   -4   16     -0.49      0.00
   -1   -4   16      0.26      0.00
    0   -4   16      0.50      0.00
    1   -4   16     -0.65      0.00
    2   -4   16     -0.01      0.00
    3   -4   16      0.35      0.00
    4   -4   16     -0.20      0.00
   -4   -3   16     -0.02      0.00
   -3   -3   16     -0.20      0.00
   -2   -3   16      0.41      0.00
   -1   -3   16     -0.13      0.00
    0   -3   16     -0.64      0.00
    1   -3   16      0.94      0.00
    2   -3   16      0.38      0.00
    3   -3   16     -0.32      0.00
    4   -3   16      0.27      0.00
   -4   -2   16      0.08      0.00
   -3   -2   16      0.26      0.00
   -2   -2   16     -0.12      0.00
   -1   -2   16     -0.08      0.00
    0   -2   16      0.99      0.00
    1   -2   16     -1.25      0.00
    2   -2   16     -0.61      0.00
    3   -2   16      0.41      0.00
    4   -2   16     -0.24      0.00
    5   -2   16     -0.05      0.00
   -4   -1   16      0.23      0.00
   -3   -1   16     -0.56      0.00
   -2   -1   16     -0.25      0.00
   -1   -1   16      0.09      0.00
    0   -1   16     -1.03      0.00
    1   -1   16      1.37      0.00
    2   -1   16      0.81      0.00
    3   -1   16     -0.57      0.00
    4   -1   16      0.07      0.00
    5   -1   16      0.08      0.00
   -4    0   16     -0.50      0.00
   -3    0   16      0.85      0.00
   -2    0   16      0.48      0.00
   -1    0   16      0.17      0.00
    0    0   16      0.63      0.00
    1    0   16     -1.18      0.00
    2    0   16     -1.07      0.00
    3    0   16      0.62      0.00
    4    0   16      0.13      0.00
    5    0   16     -0.07      0.00
   -4    1   16      0.36      0.00
   -3    1   16     -0.81      0.00
   -2    1   16     -0.62      0.00
   -1    1   16     -0.40      0.00
    0    1   16     -0.26      0.00
    1    1   16      0.91      0.00
    2    1   16      1.21      0.00
    3    1   16     -0.50      0.00
    4    1   16     -0.26      0.00
    5    1   16      0.06      0.00
   -4    2   16     -0.04      0.00
   -3    2   16      0.54      0.00
   -2    2   16      0.87      0.00
   -1    2   16      0.38      0.00
    0    2   16      0.31      0.00
    1    2   16     -0.85      0.00
    2    2   16     -1.06      0.00
    3    2   16      0.35      0.00
    4    2   16      0.32      0.00
    5    2   16     -0.15      0.00
   -3    3   16     -0.35      0.00
   -2    3   16     -1.15      0.00
   -1    3   16     -0.28      0.00
    0    3   16     -0.47      0.00
    1    3   16      0.86      0.00
    2    3   16      0.80      0.00
    3    3   16     -0.35      0.00
    4    3   16     -0.28      0.00
    5    3   16      0.23      0.00
   -3    4   16      0.26      0.00
   -2    4   16      1.11      0.00
   -1    4   16      0.39      0.00
    0    4   16      0.33      0.00
    1    4   16     -0.60      0.00
    2    4   16     -0.66      0.00
    3    4   16      0.46      0.00
    4    4   16      0.17      0.00
    5    4   16     -0.20      0.00
   -2    5   16     -0.71      0.00
   -1    5   16     -0.64      0.00
    0    5   16     -0.07      0.00
    1    5   16      0.11      0.00
    2    5   16      0.61      0.00
    3    5   16     -0.51      0.00
    4    5   16     -0.17      0.00
   -2    6   16      0.31      0.00
   -1    6   16      0.70      0.00
    0    6   16      0.04      0.00
    1    6   16      0.24      0.00
    2    6   16     -0.48      0.00
    3    6   16      0.43      0.00
    4    6   16      0.31      0.00
   -1    7   16     -0.47      0.00
    0    7   16     -0.20      0.00
    1    7   16     -0.29      0.00
    2    7   16      0.26      0.00
    3    7   16     -0.37      0.00
    4    7   16     -0.36      0.00
    0    8   16      0.24      0.00
    1    8   16      0.21      0.00
    2    8   16     -0.11      0.00
   -1   -7   17      0.15      0.00
    0   -7   17      0.45      0.00
    1   -7   17     -0.32      0.00
   -2   -6   17     -0.08      0.00
   -1   -6   17     -0.20      0.00
    0   -6   17     -0.79      0.00
    1   -6   17      0.34      0.00
    2   -6   17     -0.21      0.00
   -3   -5   17      0.11      0.00
   -2   -5   17     -0.04      0.00
   -1   -5   17      0.16      0.00
    0   -5   17      0.75      0.00
    1   -5   17     -0.38      0.00
    2   -5   17      0.12      0.00
    3   -5   17      0.30      0.00
   -3   -4   17     -0.30      0.00
   -2   -4   17      0.15      0.00
   -1   -4   17     -0.01      0.00
    0   -4   17     -0.54      0.00
    1   -4   17      0.52      0.00
    2   -4   17      0.10      0.00
    3   -4   17     -0.41      0.00
    4   -4   17      0.30      0.00
   -3   -3   17      0.21      0.00
   -2   -3   17     -0.08      0.00
   -1   -3   17     -0.28      0.00
    0   -3   17      0.59      0.00
    1   -3   17     -0.80      0.00
    2   -3   17     -0.29      0.00
    3   -3   17      0.57      0.00
    4   -3   17     -0.39      0.00
   -4   -2   17      0.11      0.00
   -3   -2   17     -0.28      0.00
   -2   -2   17     -0.13      0.00
   -1   -2   17      0.68      0.00
    0   -2   17     -0.78      0.00
    1   -2   17      1.16      0.00
    2   -2   17      0.27      0.00
    3   -2   17     -0.71      0.00
    4   -2   17      0.43      0.00
    5   -2   17      0.19      0.00
   -4   -1   17     -0.33      0.00
   -3   -1   17      0.74      0.00
   -2   -1   17      0.33      0.00
   -1   -1   17     -1.00      0.00
    0   -1   17      0.57      0.00
    1   -1   17     -1.35      0.00
    2   -1   17     -0.21      0.00
    3   -1   17      0.77      0.00
    4   -1   17     -0.29      0.00
    5   -1   17     -0.36      0.00
   -4    0   17      0.41      0.00
   -3    0   17     -1.08      0.00
   -2    0   17     -0.41      0.00
   -1    0   17      1.01      0.00
    0    0   17      0.11      0.00
    1    0   17      1.13      0.00
    2    0   17      0.38      0.00
    3    0   17     -0.69      0.00
    4    0   17     -0.02      0.00
    5    0   17      0.40      0.00
   -3    1   17      0.91      0.00
   -2    1   17      0.48      0.00
   -1    1   17     -0.77      0.00
    0    1   17     -0.65      0.00
    1    1   17     -0.73      0.00
    2    1   17     -0.64      0.00
    3    1   17      0.45      0.00
    4    1   17      0.34      0.00
    5    1   17     -0.32      0.00
   -3    2   17     -0.51      0.00
   -2    2   17     -0.68      0.00
   -1    2   17      0.53      0.00
    0    2   17      0.69      0.00
    1    2   17      0.57      0.00
    2    2   17      0.68      0.00
    3    2   17     -0.17      0.00
    4    2   17     -0.48      0.00
    5    2   17      0.25      0.00
   -3    3   17      0.33      0.00
   -2    3   17      0.89      0.00
   -1    3   17     -0.34      0.00
    0    3   17     -0.52      0.00
    1    3   17     -0.58      0.00
    2    3   17     -0.51      0.00
    3    3   17      0.03      0.00
    4    3   17      0.39      0.00
    5    3   17     -0.19      0.00
   -3    4   17     -0.32      0.00
   -2    4   17     -0.85      0.00
   -1    4   17      0.06      0.00
    0    4   17      0.52      0.00
    1    4   17      0.34      0.00
    2    4   17      0.38      0.00
    3    4   17     -0.09      0.00
    4    4   17     -0.21      0.00
    5    4   17      0.13      0.00
   -2    5   17      0.58      0.00
   -1    5   17      0.32      0.00
    0    5   17     -0.54      0.00
    1    5   17      0.18      0.00
    2    5   17     -0.36      0.00
    3    5   17      0.21      0.00
    4    5   17      0.17      0.00
   -1    6   17     -0.53      0.00
    0    6   17      0.28      0.00
    1    6   17     -0.56      0.00
    2    6   17      0.27      0.00
    3    6   17     -0.29      0.00
    4    6   17     -0.30      0.00
    0    7   17      0.11      0.00
    1    7   17      0.58      0.00
    2    7   17     -0.06      0.00
    3    7   17      0.34      0.00
   -1   -6   18      0.16      0.00
    0   -6   18      0.66      0.00
    1   -6   18     -0.30      0.00
    2   -6   18     -0.03      0.00
   -2   -5   18     -0.14      0.00
   -1   -5   18      0.00      0.00
    0   -5   18     -0.53      0.00
    1   -5   18      0.30      0.00
    3   -5   18     -0.12      0.00
   -3   -4   18      0.44      0.00
   -2   -4   18      0.13      0.00
   -1   -4   18     -0.26      0.00
    0   -4   18      0.32      0.00
    1   -4   18     -0.28      0.00
    2   -4   18     -0.11      0.00
    3   -4   18      0.29      0.00
   -3   -3   18     -0.28      0.00
   -2   -3   18     -0.26      0.00
   -1   -3   18      0.56      0.00
    0   -3   18     -0.40      0.00
    1   -3   18      0.41      0.00
    2   -3   18      0.06      0.00
    3   -3   18     -0.49      0.00
    4   -3   18      0.44      0.00
   -3   -2   18      0.34      0.00
   -2   -2   18      0.30      0.00
   -1   -2   18     -0.97      0.00
    0   -2   18      0.61      0.00
    1   -2   18     -0.67      0.00
    2   -2   18      0.25      0.00
    3   -2   18      0.47      0.00
    4   -2   18     -0.64      0.00
   -2   -1   18     -0.08      0.00
   -1   -1   18      1.46      0.00
    0   -1   18     -0.48      0.00
    1   -1   18      0.76      0.00
    2   -1   18     -0.59      0.00
    3   -1   18     -0.31      0.00
    4   -1   18      0.58      0.00
   -3    0   18      0.92      0.00
   -2    0   18     -0.18      0.00
   -1    0   18     -1.68      0.00
    0    0   18     -0.06      0.00
    1    0   18     -0.46      0.00
    2    0   18      0.54      0.00
    3    0   18      0.18      0.00
    4    0   18     -0.19      0.00
    5    0   18     -0.52      0.00
   -3    1   18     -0.59      0.00
   -2    1   18      0.17      0.00
   -1    1   18      1.46      0.00
    0    1   18      0.57      0.00
    1    1   18      0.07      0.00
    2    1   18     -0.15      0.00
    3    1   18     -0.11      0.00
    4    1   18     -0.29      0.00
    5    1   18      0.41      0.00
   -3    2   18      0.15      0.00
   -2    2   18      0.08      0.00
   -1    2   18     -1.03      0.00
    0    2   18     -0.75      0.00
    1    2   18      0.02      0.00
    2    2   18     -0.10      0.00
    3    2   18     -0.02      0.00
    4    2   18      0.55      0.00
    5    2   18     -0.22      0.00
   -3    3   18     -0.07      0.00
   -2    3   18     -0.29      0.00
   -1    3   18      0.66      0.00
    0    3   18      0.73      0.00
    1    3   18      0.05      0.00
    2    3   18      0.05      0.00
    3    3   18      0.14      0.00
    4    3   18     -0.46      0.00
    5    3   18      0.05      0.00
   -2    4   18      0.26      0.00
   -1    4   18     -0.32      0.00
    0    4   18     -0.73      0.00
    1    4   18      0.15      0.00
    2    4   18      0.00      0.00
    3    4   18     -0.13      0.00
    4    4   18      0.21      0.00
   -2    5   18     -0.11      0.00
   -1    5   18     -0.03      0.00
    0    5   18      0.62      0.00
    1    5   18     -0.59      0.00
    2    5   18      0.12      0.00
    3    5   18     -0.01      0.00
    4    5   18     -0.09      0.00
   -1    6   18      0.22      0.00
    0    6   18     -0.31      0.00
    1    6   18      0.80      0.00
    2    6   18     -0.17      0.00
    3    6   18      0.15      0.00
    0    7   18     -0.05      0.00
    1    7   18     -0.64      0.00
    2    7   18      0.04      0.00
    0   -6   19     -0.26      0.00
   -1   -5   19     -0.23      0.00
    0   -5   19      0.11      0.00
    1   -5   19     -0.11      0.00
   -2   -4   19     -0.18      0.00
   -1   -4   19      0.50      0.00
    0   -4   19      0.04      0.00
    1   -4   19     -0.10      0.00
    2   -4   19      0.10      0.00
    3   -4   19     -0.12      0.00
   -2   -3   19      0.39      0.00
   -1   -3   19     -0.68      0.00
    0   -3   19      0.04      0.00
    1   -3   19      0.14      0.00
    2   -3   19      0.02      0.00
    3   -3   19      0.18      0.00
   -3   -2   19     -0.30      0.00
   -2   -2   19     -0.26      0.00
   -1   -2   19      0.88      0.00
    0   -2   19     -0.33      0.00
    1   -2   19     -0.01      0.00
    2   -2   19     -0.40      0.00
    3   -2   19      0.10      0.00
    4   -2   19      0.59      0.00
   -2   -1   19     -0.28      0.00
   -1   -1   19     -1.16      0.00
    0   -1   19      0.54      0.00
    1   -1   19      0.04      0.00
    2   -1   19      0.84      0.00
    3   -1   19     -0.49      0.00
    4   -1   19     -0.53      0.00
   -3    0   19     -0.46      0.00
   -2    0   19      0.72      0.00
   -1    0   19      1.29      0.00
    0    0   19     -0.43      0.00
    1    0   19     -0.31      0.00
    2    0   19     -0.90      0.00
    3    0   19      0.56      0.00
    4    0   19      0.13      0.00
   -3    1   19      0.10      0.00
   -2    1   19     -0.65      0.00
   -1    1   19     -1.09      0.00
    0    1   19      0.10      0.00
    1    1   19      0.52      0.00
    2    1   19      0.55      0.00
    3    1   19     -0.33      0.00
    4    1   19      0.32      0.00
   -2    2   19      0.29      0.00
   -1    2   19      0.74      0.00
    0    2   19      0.24      0.00
    1    2   19     -0.45      0.00
    2    2   19     -0.27      0.00
    3    2   19      0.18      0.00
    4    2   19     -0.54      0.00
   -2    3   19     -0.10      0.00
   -1    3   19     -0.46      0.00
    0    3   19     -0.44      0.00
    1    3   19      0.35      0.00
    2    3   19      0.28      0.00
    3    3   19     -0.25      0.00
    4    3   19      0.41      0.00
   -2    4   19      0.16      0.00
   -1    4   19      0.21      0.00
    0    4   19      0.48      0.00
    1    4   19     -0.54      0.00
    2    4   19     -0.25      0.00
    3    4   19      0.28      0.00
    4    4   19     -0.13      0.00
   -1    5   19      0.01      0.00
    0    5   19     -0.36      0.00
    1    5   19      0.83      0.00
    2    5   19      0.01      0.00
    3    5   19     -0.12      0.00
    4    5   19     -0.04      0.00
    0    6   19      0.13      0.00
    1    6   19     -0.81      0.00
    2    6   19      0.17      0.00
    3    6   19     -0.07      0.00
    0   -5   20      0.15      0.00
    1   -5   20     -0.16      0.00
   -1   -4   20     -0.59      0.00
    0   -4   20     -0.24      0.00
    1   -4   20      0.48      0.00
    2   -4   20     -0.17      0.00
   -2   -3   20     -0.28      0.00
   -1   -3   20      0.64      0.00
    0   -3   20      0.24      0.00
    1   -3   20     -0.62      0.00
    2   -3   20      0.22      0.00
    3   -3   20      0.09      0.00
   -2   -2   20      0.09      0.00
   -1   -2   20     -0.52      0.00
    0   -2   20      0.01      0.00
    1   -2   20      0.58      0.00
    2   -2   20     -0.03      0.00
    3   -2   20     -0.51      0.00
   -2   -1   20      0.46      0.00
   -1   -1   20      0.35      0.00
    0   -1   20     -0.44      0.00
    1   -1   20     -0.59      0.00
    2   -1   20     -0.33      0.00
    3   -1   20      0.96      0.00
    4   -1   20      0.08      0.00
   -2    0   20     -0.79      0.00
   -1    0   20     -0.20      0.00
    0    0   20      0.70      0.00
    1    0   20      0.67      0.00
    2    0   20      0.51      0.00
    3    0   20     -0.95      0.00
    4    0   20      0.23      0.00
   -2    1   20      0.58      0.00
   -1    1   20      0.10      0.00
    0    1   20     -0.53      0.00
    1    1   20     -0.62      0.00
    2    1   20     -0.38      0.00
    3    1   20      0.53      0.00
    4    1   20     -0.45      0.00
   -2    2   20     -0.22      0.00
   -1    2   20     -0.09      0.00
    0    2   20      0.11      0.00
    1    2   20      0.45      0.00
    2    2   20      0.27      0.00
    3    2   20     -0.25      0.00
    4    2   20      0.48      0.00
   -2    3   20      0.13      0.00
   -1    3   20      0.09      0.00
    0    3   20      0.19      0.00
    1    3   20     -0.43      0.00
    2    3   20     -0.32      0.00
    3    3   20      0.34      0.00
    4    3   20     -0.31      0.00
   -1    4   20      0.00      0.00
    0    4   20     -0.24      0.00
    1    4   20      0.63      0.00
    2    4   20      0.26      0.00
    3    4   20     -0.42      0.00
    0    5   20      0.12      0.00
    1    5   20     -0.76      0.00
    2    5   20      0.01      0.00
    3    5   20      0.22      0.00
    1    6   20      0.59      0.00
    2    6   20     -0.17      0.00
    0   -4   21      0.15      0.00
    1   -4   21     -0.58      0.00
   -1   -3   21     -0.44      0.00
    0   -3   21     -0.26      0.00
    1   -3   21      0.73      0.00
    2   -3   21     -0.63      0.00
   -2   -2   21      0.05      0.00
   -1   -2   21      0.10      0.00
    0   -2   21      0.20      0.00
    1   -2   21     -0.72      0.00
    2   -2   21      0.71      0.00
    3   -2   21      0.46      0.00
   -2   -1   21     -0.37      0.00
   -1   -1   21      0.39      0.00
    0   -1   21      0.15      0.00
    1   -1   21      0.63      0.00
    2   -1   21     -0.50      0.00
    3   -1   21     -0.78      0.00
   -2    0   21      0.45      0.00
   -1    0   21     -0.69      0.00
    0    0   21     -0.45      0.00
    1    0   21     -0.48      0.00
    2    0   21      0.22      0.00
    3    0   21      0.73      0.00
   -2    1   21     -0.19      0.00
   -1    1   21      0.62      0.00
    0    1   21      0.36      0.00
    1    1   21      0.28      0.00
    2    1   21     -0.05      0.00
    3    1   21     -0.36      0.00
   -1    2   21     -0.32      0.00
    0    2   21     -0.02      0.00
    1    2   21     -0.16      0.00
    2    2   21     -0.07      0.00
    3    2   21      0.17      0.00
   -1    3   21      0.10      0.00
    0    3   21     -0.18      0.00
    1    3   21      0.26      0.00
    2    3   21      0.16      0.00
    3    3   21     -0.34      0.00
    0    4   21      0.16      0.00
    1    4   21     -0.45      0.00
    2    4   21     -0.10      0.00
    3    4   21      0.45      0.00
    1    5   21      0.48      0.00
    2    5   21     -0.09      0.00
    0   -3   22      0.09      0.00
    1   -3   22     -0.39      0.00
   -1   -2   22      0.16      0.00
    0   -2   22     -0.22      0.00
    1   -2   22      0.38      0.00
    2   -2   22     -1.07      0.00
   -1   -1   22     -0.64      0.00
    0   -1   22      0.16      0.00
    1   -1   22     -0.24      0.00
    2   -1   22      1.00      0.00
   -1    0   22      0.87      0.00
    0    0   22     -0.05      0.00
    1    0   22      0.02      0.00
    2    0   22     -0.68      0.00
    3    0   22     -0.22      0.00
   -1    1   22     -0.66      0.00
    0    1   22      0.11      0.00
    1    1   22      0.13      0.00
    2    1   22      0.32      0.00
    3    1   22      0.05      0.00
   -1    2   22      0.29      0.00
    0    2   22     -0.23      0.00
    1    2   22     -0.10      0.00
    2    2   22     -0.06      0.00
    3    2   22     -0.01      0.00
    0    3   22      0.22      0.00
    1    3   22     -0.07      0.00
    2    3   22     -0.02      0.00
    1    4   22      0.21      0.00
    0   -1   23     -0.29      0.00
    1   -1   23     -0.20      0.00
    0    0   23      0.36      0.00
    1    0   23      0.33      0.00
    2    0   23      0.63      0.00
    0    1   23     -0.37      0.00
    1    1   23     -0.32      0.00
    2    1   23     -0.27      0.00
    1    2   23      0.17      0.00
    7    3    0      0.37      0.00
   -4    8    0      0.16      0.00
   -2   10    0     -0.43      0.00
    4   10    0     -0.17      0.00
    2   11    0      0.07      0.00
    2  -10    1      0.08      0.00
    4   -8    1     -0.14      0.00
   -6   -7    1      0.18      0.00
   -7   -2    1      0.14      0.00
   -7   -1    1     -0.09      0.00
    0    0    1    -19.54      0.00
    7    0    1     -0.39      0.00
   -4    8    1     -0.06      0.00
    5    9    1     -0.22      0.00
   -2   10    1      0.60      0.00
    4   10    1      0.17      0.00
    2   11    1      0.10      0.00
   -1  -11    2     -0.38      0.00
    2  -10    2      0.15      0.00
    7    0    2      0.57      0.00
   -6    4    2     -0.60      0.00
    5    9    2     -0.02      0.00
   -2   10    2     -0.40      0.00
    4   10    2     -0.12      0.00
    2   11    2     -0.36      0.00
   -3    9    3     -0.43      0.00
    5    9    3      0.13      0.00
    4   10    3      0.07      0.00
    2   11    3      0.39      0.00
    4   -8    4     -0.20      0.00
    7    0    4      0.36      0.00
   -5    6    4     -0.04      0.00
    5    9    4     -0.12      0.00
    4   10    4     -0.01      0.00
    1   11    4     -0.15      0.00
    3   -9    5      0.22      0.00
   -6   -6    5      0.12      0.00
    7    0    5     -0.29      0.00
   -6    3    5      0.04      0.00
   -3  -10    6      0.01      0.00
    7    3    6     -0.50      0.00
   -6   -5    7      0.07      0.00
    6   -4    7      0.21      0.00
    7    1    7      0.42      0.00
    7    2    7     -0.38      0.00
    6    7    7      0.28      0.00
    5   -6    8     -0.19      0.00
   -5    5    8      0.09      0.00
    4    9    8      0.49      0.00
    0  -10    9      0.12      0.00
   -3    8    9     -0.11      0.00
   -2    9    9     -0.18      0.00
    4    9    9     -0.24      0.00
   -3   -9   10      0.58      0.00
    2   -9   10      0.17      0.00
   -4   -8   10      0.52      0.00
    4    9   10     -0.15      0.00
    0   10   10     -0.57      0.00
    3   -8   11     -0.30      0.00
   -5    2   11      0.14      0.00
    6    6   11      0.03      0.00
    4    9   11      0.35      0.00
    1   10   11     -0.04      0.00
    1   -9   12     -0.15      0.00
   -5   -5   12     -0.07      0.00
    5   -5   12     -0.48      0.00
   -1    9   12     -0.14      0.00
    0   -9   13      0.19      0.00
   -5   -4   13     -0.22      0.00
   -5    2   13     -0.16      0.00
   -4    5   13     -0.26      0.00
    6    5   13     -0.39      0.00
   -4   -6   14      0.08      0.00
    6   -1   14      0.43      0.00
    6    4   14     -0.25      0.00
    1    9   14      0.40      0.00
    1   -8   15      0.89      0.00
    6    1   15     -0.59      0.00
    6    2   15      0.36      0.00
   -2    7   15     -0.08      0.00
    4   -5   16      0.13      0.00
    5   -3   16      0.06      0.00
   -3    5   16     -0.13      0.00
    5    5   16      0.14      0.00
    3    8   16      0.40      0.00
   -4    1   17     -0.21      0.00
   -2    6   17     -0.33      0.00
   -1    7   17      0.44      0.00
    2   -5   18      0.06      0.00
   -3   -1   18     -0.73      0.00
    5   -1   18      0.43      0.00
    4    6   18      0.15      0.00
    3    7   18     -0.21      0.00
    1   -6   19      0.23      0.00
   -2   -5   19      0.09      0.00
    2   -5   19     -0.11      0.00
   -3   -3   19      0.24      0.00
    4   -3   19     -0.33      0.00
   -3   -1   19      0.50      0.00
   -3    2   19      0.19      0.00
   -1   -5   20      0.35      0.00
   -2   -4   20      0.09      0.00
    4    4   20      0.05      0.00
   -1    5   20     -0.11      0.00
   -1   -4   21      0.45      0.00
    4    1   21      0.50      0.00
    4    2   21     -0.35      0.00
    3   -1   22      0.21      0.00
    3    3   22      0.21      0.00
    2    4   22     -0.04      0.00
    2   -1   23     -0.86      0.00
    0    2   23      0.29      0.00
    2    2   23      0.01      0.00
    0    0    0      0.00      0.00
# SQUEEZE RESULTS (Version = 160617)
# Note: Data are Listed for all Voids in the P1 Unit Cell
# i.e. Centre of Gravity, Solvent Accessible Volume,
# Recovered number of Electrons in the Void and
# Details about the Squeezed Material
loop_
  _platon_squeeze_void_nr
  _platon_squeeze_void_average_x
  _platon_squeeze_void_average_y
  _platon_squeeze_void_average_z
  _platon_squeeze_void_volume
  _platon_squeeze_void_count_electrons
  _platon_squeeze_void_content
   1  0.174  0.500  0.500       130        24 ' '
# Missing Reflections Below sin(th)/lambda = 0.25
loop_
  _platon_missing_refln_index_h
  _platon_missing_refln_index_k
  _platon_missing_refln_index_l
  _platon_missing_refln_theta
    0    0    1     1.141
_platon_squeeze_void_probe_radius                  1.20
_platon_squeeze_details
)
TITL 2      in    P-1
CELL    5.4607    8.5135   18.0158     87.68     82.17     81.03
SPGR P-1
# Solvent Accessible Volume =       130
# Electrons Found in S.A.V. =        24
# Note: Atoms in Void are Labelled as Cxxx and Qxxx for all Others
C101 0.847 0.505 0.360 !       3.33 eA-3
C102 0.348 0.465 0.434 !       3.09 eA-3
Q103 0.251 0.467 0.155 !       0.53 eA-3
)
;
_shelx_fab_checksum              12817
loop_
_space_group_symop_operation_xyz
'x, y, z'
'-x, -y, -z'
loop_
_atom_site_label
_atom_site_type_symbol
_atom_site_fract_x
_atom_site_fract_y
_atom_site_fract_z
_atom_site_U_iso_or_equiv
_atom_site_adp_type
_atom_site_occupancy
_atom_site_site_symmetry_order
_atom_site_calc_flag
_atom_site_refinement_flags_posn
_atom_site_refinement_flags_adp
O6 O -0.2284(3) 0.93277(16) 0.83667(8) 0.0159(3) Uani 1 1 d . .
C3 C 0.2213(4) -0.0338(3) 0.69075(12) 0.0166(4) Uani 1 1 d . .
H3 H 0.095626 -0.100603 0.696104 0.020 Uiso 1 1 calc R U
C4 C 0.4043(4) -0.0528(3) 0.62952(12) 0.0192(5) Uani 1 1 d . .
H4 H 0.402592 -0.130871 0.593436 0.023 Uiso 1 1 calc R U
C5 C 0.5908(4) 0.0426(3) 0.62092(12) 0.0184(4) Uani 1 1 d . .
C6 C 0.5814(4) 0.1559(3) 0.67494(13) 0.0233(5) Uani 1 1 d . .
H6 H 0.704722 0.224217 0.670868 0.028 Uiso 1 1 calc R U
C7 C 0.3919(4) 0.1689(3) 0.73469(13) 0.0213(5) Uani 1 1 d . .
H7 H 0.387792 0.247008 0.771203 0.026 Uiso 1 1 calc R U
C8 C 0.7990(4) 0.0215(3) 0.55801(12) 0.0210(5) Uani 1 1 d . .
C1 C -0.2228(4) 0.6180(2) 0.82424(11) 0.0103(4) Uani 1 1 d . .
C2 C -0.3665(4) 0.6624(2) 0.75778(12) 0.0170(4) Uani 1 1 d . .
H2A H -0.301084 0.750952 0.729404 0.025 Uiso 1 1 calc R U
H2B H -0.544184 0.694273 0.775909 0.025 Uiso 1 1 calc R U
H2C H -0.346749 0.570528 0.725244 0.025 Uiso 1 1 calc R U
C10 C 0.9116(5) 0.1495(3) 0.52836(13) 0.0272(5) Uani 1 1 d . .
H10 H 0.851967 0.252735 0.547547 0.033 Uiso 1 1 calc R U
C9 C 0.8896(4) -0.1287(3) 0.52897(13) 0.0257(5) Uani 1 1 d . .
H9 H 0.814697 -0.217710 0.548602 0.031 Uiso 1 1 calc R U
N1 N 0.2140(3) 0.0752(2) 0.74295(9) 0.0138(3) Uani 1 1 d . .
O1 O 0.1751(3) 0.09593(17) 0.91379(8) 0.0185(3) Uani 1 1 d D .
H1A H 0.163412 0.148279 0.946326 0.022 Uiso 1 1 d DR U
H1B H 0.272769 0.005120 0.918679 0.022 Uiso 1 1 d DR U
O2 O -0.2421(3) 0.30493(16) 0.81748(8) 0.0140(3) Uani 1 1 d . .
O8 O -0.5420(2) 0.80982(15) 0.92511(8) 0.0117(3) Uani 1 1 d . .
O3 O -0.1931(3) 0.41313(17) 0.94121(8) 0.0154(3) Uani 1 1 d . .
O7 O -0.0896(2) 0.75911(16) 0.94485(8) 0.0128(3) Uani 1 1 d . .
O4 O -0.6091(3) 0.47589(16) 0.88928(8) 0.0126(3) Uani 1 1 d . .
O5 O 0.0387(3) 0.58677(17) 0.79349(8) 0.0168(3) Uani 1 1 d D .
H5B H 0.127505 0.532885 0.827117 0.020 Uiso 1 1 d DR U
P1 P -0.32424(9) 0.44046(5) 0.87209(3) 0.00875(10) Uani 1 1 d . .
P2 P -0.27074(9) 0.79008(5) 0.88709(3) 0.00851(10) Uani 1 1 d . .
Zn1 Zn -0.04458(4) 0.10490(2) 0.83564(2) 0.01047(7) Uani 1 1 d . .
Zn2 Zn -0.23939(4) 0.35161(2) 1.04411(2) 0.00997(7) Uani 1 1 d . .
loop_
_atom_site_aniso_label
_atom_site_aniso_U_11
_atom_site_aniso_U_22
_atom_site_aniso_U_33
_atom_site_aniso_U_23
_atom_site_aniso_U_13
_atom_site_aniso_U_12
O6 0.0185(8) 0.0112(7) 0.0196(8) 0.0035(6) -0.0041(6) -0.0070(6)
C3 0.0135(10) 0.0200(10) 0.0157(10) -0.0010(8) -0.0009(8) -0.0014(8)
C4 0.0172(11) 0.0254(11) 0.0136(10) -0.0037(9) -0.0003(8) 0.0006(9)
C5 0.0123(10) 0.0289(12) 0.0117(10) 0.0016(8) 0.0012(8) 0.0014(9)
C6 0.0153(11) 0.0337(13) 0.0210(12) -0.0022(10) 0.0036(9) -0.0086(9)
C7 0.0175(11) 0.0276(12) 0.0191(11) -0.0068(9) 0.0021(9) -0.0070(9)
C8 0.0122(10) 0.0387(13) 0.0100(10) 0.0003(9) 0.0009(8) -0.0001(9)
C1 0.0074(9) 0.0097(9) 0.0134(9) 0.0013(7) -0.0002(7) -0.0015(7)
C2 0.0233(11) 0.0144(10) 0.0149(10) 0.0041(8) -0.0089(9) -0.0036(8)
C10 0.0234(12) 0.0351(13) 0.0196(12) -0.0006(10) 0.0057(10) -0.0013(10)
C9 0.0210(12) 0.0350(13) 0.0183(12) 0.0016(10) 0.0060(9) -0.0034(10)
N1 0.0109(8) 0.0164(8) 0.0128(8) -0.0002(7) 0.0004(7) -0.0004(7)
O1 0.0209(8) 0.0136(7) 0.0196(8) -0.0073(6) -0.0072(6) 0.0073(6)
O2 0.0162(7) 0.0087(6) 0.0161(7) -0.0020(5) -0.0016(6) 0.0015(5)
O8 0.0057(6) 0.0085(6) 0.0203(7) -0.0006(5) -0.0003(5) -0.0002(5)
O3 0.0158(7) 0.0187(7) 0.0115(7) 0.0047(6) -0.0039(6) -0.0017(6)
O7 0.0072(6) 0.0135(7) 0.0171(7) -0.0035(5) -0.0028(5) 0.0020(5)
O4 0.0087(7) 0.0104(6) 0.0181(7) -0.0014(5) 0.0014(6) -0.0017(5)
O5 0.0093(7) 0.0205(7) 0.0187(8) 0.0009(6) 0.0025(6) -0.0002(6)
P1 0.0083(2) 0.0066(2) 0.0107(2) 0.00041(17) -0.00072(18) 0.00001(17)
P2 0.0059(2) 0.0066(2) 0.0130(2) 0.00065(18) -0.00130(18) -0.00075(17)
Zn1 0.00974(12) 0.00757(11) 0.01301(12) -0.00037(8) 0.00182(9) -0.00077(8)
Zn2 0.00681(12) 0.01030(11) 0.01167(12) 0.00144(8) -0.00017(8) 0.00087(8)
loop_
_atom_type_symbol
_atom_type_description
_atom_type_scat_dispersion_real
_atom_type_scat_dispersion_imag
_atom_type_scat_source
C C 0.0033 0.0016 'International Tables Vol C Tables 4.2.6.8 and 6.1.1.4'
H H 0.0000 0.0000 'International Tables Vol C Tables 4.2.6.8 and 6.1.1.4'
N N 0.0061 0.0033 'International Tables Vol C Tables 4.2.6.8 and 6.1.1.4'
O O 0.0106 0.0060 'International Tables Vol C Tables 4.2.6.8 and 6.1.1.4'
P P 0.1023 0.0942 'International Tables Vol C Tables 4.2.6.8 and 6.1.1.4'
Zn Zn 0.2839 1.4301 'International Tables Vol C Tables 4.2.6.8 and 6.1.1.4'
loop_
_geom_angle_atom_site_label_1
_geom_angle_atom_site_label_2
_geom_angle_atom_site_label_3
_geom_angle
_geom_angle_site_symmetry_1
_geom_angle_site_symmetry_3
P2 O6 Zn1 136.66(9) . 1_565
N1 C3 C4 122.5(2) . .
N1 C3 H3 118.7 . .
C4 C3 H3 118.7 . .
C3 C4 C5 119.7(2) . .
C3 C4 H4 120.2 . .
C5 C4 H4 120.2 . .
C4 C5 C6 117.49(19) . .
C4 C5 C8 121.7(2) . .
C6 C5 C8 120.7(2) . .
C5 C6 C7 119.7(2) . .
C5 C6 H6 120.1 . .
C7 C6 H6 120.1 . .
N1 C7 C6 122.4(2) . .
N1 C7 H7 118.8 . .
C6 C7 H7 118.8 . .
C10 C8 C9 118.6(2) . .
C10 C8 C5 121.0(2) . .
C9 C8 C5 120.5(2) . .
O5 C1 C2 106.07(16) . .
O5 C1 P1 110.90(12) . .
C2 C1 P1 109.51(13) . .
O5 C1 P2 108.67(13) . .
C2 C1 P2 109.11(13) . .
P1 C1 P2 112.37(10) . .
C1 C2 H2A 109.5 . .
C1 C2 H2B 109.5 . .
H2A C2 H2B 109.5 . .
C1 C2 H2C 109.5 . .
H2A C2 H2C 109.5 . .
H2B C2 H2C 109.5 . .
C9 C10 C8 120.8(2) 2_756 .
C9 C10 H10 119.6 2_756 .
C8 C10 H10 119.6 . .
C10 C9 C8 120.6(2) 2_756 .
C10 C9 H9 119.7 2_756 .
C8 C9 H9 119.7 . .
C7 N1 C3 118.16(18) . .
C7 N1 Zn1 117.44(14) . .
C3 N1 Zn1 124.38(14) . .
Zn1 O1 H1A 128.6 . .
Zn1 O1 H1B 115.6 . .
H1A O1 H1B 113.3 . .
P1 O2 Zn1 126.85(9) . .
P2 O8 Zn2 130.08(8) . 2_467
P1 O3 Zn2 143.02(10) . .
P2 O7 Zn2 140.35(9) . 2_567
P1 O4 Zn2 119.24(8) . 2_467
C1 O5 H5B 109.9 . .
O3 P1 O2 111.70(8) . .
O3 P1 O4 113.72(8) . .
O2 P1 O4 111.41(8) . .
O3 P1 C1 106.48(9) . .
O2 P1 C1 106.43(8) . .
O4 P1 C1 106.56(8) . .
O7 P2 O6 112.68(8) . .
O7 P2 O8 110.84(8) . .
O6 P2 O8 110.24(8) . .
O7 P2 C1 109.41(8) . .
O6 P2 C1 105.79(9) . .
O8 P2 C1 107.63(8) . .
O6 Zn1 O2 112.30(6) 1_545 .
O6 Zn1 O1 115.45(6) 1_545 .
O2 Zn1 O1 117.24(6) . .
O6 Zn1 N1 105.48(7) 1_545 .
O2 Zn1 N1 103.70(6) . .
O1 Zn1 N1 100.31(7) . .
O3 Zn2 O7 100.56(6) . 2_567
O3 Zn2 O4 114.13(6) . 2_467
O7 Zn2 O4 119.84(6) 2_567 2_467
O3 Zn2 O8 118.10(6) . 2_467
O7 Zn2 O8 103.35(6) 2_567 2_467
O4 Zn2 O8 101.32(6) 2_467 2_467
loop_
_geom_bond_atom_site_label_1
_geom_bond_atom_site_label_2
_geom_bond_distance
_geom_bond_site_symmetry_2
O6 P2 1.5151(14) .
O6 Zn1 1.8990(14) 1_565
C3 N1 1.340(3) .
C3 C4 1.381(3) .
C3 H3 0.9500 .
C4 C5 1.388(3) .
C4 H4 0.9500 .
C5 C6 1.388(3) .
C5 C8 1.487(3) .
C6 C7 1.383(3) .
C6 H6 0.9500 .
C7 N1 1.339(3) .
C7 H7 0.9500 .
C8 C10 1.387(3) .
C8 C9 1.393(3) .
C1 O5 1.447(2) .
C1 C2 1.523(3) .
C1 P1 1.8329(19) .
C1 P2 1.852(2) .
C2 H2A 0.9800 .
C2 H2B 0.9800 .
C2 H2C 0.9800 .
C10 C9 1.388(3) 2_756
C10 H10 0.9500 .
C9 H9 0.9500 .
N1 Zn1 2.0315(17) .
O1 Zn1 1.9621(15) .
O1 H1A 0.7405 .
O1 H1B 0.8768 .
O2 P1 1.5202(14) .
O2 Zn1 1.9102(13) .
O8 P2 1.5319(14) .
O8 Zn2 1.9725(13) 2_467
O3 P1 1.5114(15) .
O3 Zn2 1.9000(14) .
O7 P2 1.5192(14) .
O7 Zn2 1.9260(13) 2_567
O4 P1 1.5285(14) .
O4 Zn2 1.9429(14) 2_467
O5 H5B 0.8950 .
loop_
_geom_torsion_atom_site_label_1
_geom_torsion_atom_site_label_2
_geom_torsion_atom_site_label_3
_geom_torsion_atom_site_label_4
_geom_torsion
_geom_torsion_site_symmetry_1
_geom_torsion_site_symmetry_4
N1 C3 C4 C5 0.5(3) . .
C3 C4 C5 C6 -0.8(3) . .
C3 C4 C5 C8 177.0(2) . .
C4 C5 C6 C7 0.6(3) . .
C8 C5 C6 C7 -177.3(2) . .
C5 C6 C7 N1 0.1(4) . .
C4 C5 C8 C10 149.8(2) . .
C6 C5 C8 C10 -32.5(3) . .
C4 C5 C8 C9 -32.0(3) . .
C6 C5 C8 C9 145.7(2) . .
C9 C8 C10 C9 0.0(4) . 2_756
C5 C8 C10 C9 178.2(2) . 2_756
C10 C8 C9 C10 0.0(4) . 2_756
C5 C8 C9 C10 -178.2(2) . 2_756
C6 C7 N1 C3 -0.4(3) . .
C6 C7 N1 Zn1 178.08(18) . .
C4 C3 N1 C7 0.1(3) . .
C4 C3 N1 Zn1 -178.26(16) . .
Zn2 O3 P1 O2 -103.98(16) . .
Zn2 O3 P1 O4 23.19(18) . .
Zn2 O3 P1 C1 140.23(15) . .
Zn1 O2 P1 O3 10.18(14) . .
Zn1 O2 P1 O4 -118.22(11) . .
Zn1 O2 P1 C1 126.01(11) . .
Zn2 O4 P1 O3 54.25(11) 2_467 .
Zn2 O4 P1 O2 -178.44(8) 2_467 .
Zn2 O4 P1 C1 -62.75(11) 2_467 .
O5 C1 P1 O3 68.63(15) . .
C2 C1 P1 O3 -174.65(13) . .
P2 C1 P1 O3 -53.23(12) . .
O5 C1 P1 O2 -50.66(15) . .
C2 C1 P1 O2 66.06(15) . .
P2 C1 P1 O2 -172.51(9) . .
O5 C1 P1 O4 -169.66(12) . .
C2 C1 P1 O4 -52.94(15) . .
P2 C1 P1 O4 68.49(12) . .
Zn2 O7 P2 O6 -86.96(15) 2_567 .
Zn2 O7 P2 O8 148.97(12) 2_567 .
Zn2 O7 P2 C1 30.43(16) 2_567 .
Zn1 O6 P2 O7 -12.62(17) 1_565 .
Zn1 O6 P2 O8 111.78(13) 1_565 .
Zn1 O6 P2 C1 -132.12(13) 1_565 .
Zn2 O8 P2 O7 -86.69(12) 2_467 .
Zn2 O8 P2 O6 147.85(10) 2_467 .
Zn2 O8 P2 C1 32.91(14) 2_467 .
O5 C1 P2 O7 -53.71(14) . .
C2 C1 P2 O7 -168.95(13) . .
P1 C1 P2 O7 69.40(12) . .
O5 C1 P2 O6 67.92(14) . .
C2 C1 P2 O6 -47.31(15) . .
P1 C1 P2 O6 -168.96(10) . .
O5 C1 P2 O8 -174.22(12) . .
C2 C1 P2 O8 70.54(15) . .
P1 C1 P2 O8 -51.11(12) . .
