#------------------------------------------------------------------------------
#$Date: 2019-11-07 22:35:26 +0200 (Thu, 07 Nov 2019) $
#$Revision: 223818 $
#$URL: file:///home/coder/svn-repositories/cod/cif/7/04/98/7049884.cif $
#------------------------------------------------------------------------------
#
# This file is available in the Crystallography Open Database (COD),
# http://www.crystallography.net/
#
# All data on this site have been placed in the public domain by the
# contributors.
#
data_7049884
loop_
_publ_author_name
'Kani\<Zaj, Lidija'
'Mol\<canov, Kre\<simir'
'Tori\'c, Filip'
'Paji\'c, Damir'
'Lon\<cari\'c, Ivor'
'\<Santi\'c, Ana'
'Juri\'c, Marijana'
_publ_section_title
;
 Ladder-like [CrCu] coordination polymers containing unique bridging modes
 of [Cr(C<sub>2</sub>O<sub>4</sub>)<sub>3</sub>]<sup>3-</sup> and
 Cr<sub>2</sub>O<sub>7</sub><sup>2</sup>.
;
_journal_issue                   22
_journal_name_full
'Dalton transactions (Cambridge, England : 2003)'
_journal_page_first              7891
_journal_page_last               7898
_journal_paper_doi               10.1039/c9dt01195a
_journal_volume                  48
_journal_year                    2019
_chemical_formula_moiety         'C13 H7 Cr1 Cu1 N2 O5.5'
_chemical_formula_sum            'C13 H8 Cr Cu N2 O5.5'
_chemical_formula_weight         395.75
_space_group_IT_number           2
_space_group_name_Hall           '-P 1'
_space_group_name_H-M_alt        'P -1'
_symmetry_cell_setting           triclinic
_symmetry_space_group_name_Hall  '-P 1'
_symmetry_space_group_name_H-M   'P -1'
_atom_sites_solution_hydrogens   geom
_audit_creation_date             2019-01-22T13:28:50-00:00
_audit_creation_method           'WinGX routine CIF_UPDATE'
_audit_update_record
;
2019-02-08 deposited with the CCDC.    2019-04-29 downloaded from the CCDC.
;
_cell_angle_alpha                91.630(6)
_cell_angle_beta                 109.709(7)
_cell_angle_gamma                95.890(7)
_cell_formula_units_Z            2
_cell_length_a                   7.2322(6)
_cell_length_b                   9.7882(8)
_cell_length_c                   10.0034(6)
_cell_measurement_reflns_used    1701
_cell_measurement_temperature    293(2)
_cell_measurement_theta_max      75.8996
_cell_measurement_theta_min      4.5479
_cell_volume                     661.63(9)
_computing_cell_refinement
;
        CrysAlisPro, Agilent Technologies,
        Version 1.171.36.20 (release 27-06-2012 CrysAlis171 .NET)
        (compiled Jul 11 2012,15:38:31)
;
_computing_data_collection
;
        CrysAlisPro, Agilent Technologies,
        Version 1.171.36.20 (release 27-06-2012 CrysAlis171 .NET)
        (compiled Jul 11 2012,15:38:31)
;
_computing_data_reduction
;
        CrysAlisPro, Agilent Technologies,
        Version 1.171.36.20 (release 27-06-2012 CrysAlis171 .NET)
        (compiled Jul 11 2012,15:38:31)
;
_computing_molecular_graphics    'Ortep-3 for Windows (Farrugia, 1997)'
_computing_publication_material  'WinGX publication routines (Farrugia, 1999)'
_computing_structure_refinement  'SHELXL-2017/1 (Sheldrick, 2017)'
_computing_structure_solution    'SHELXS-97 (Sheldrick, 1997)'
_diffrn_ambient_temperature      100(2)
_diffrn_detector_area_resol_mean 10.4323
_diffrn_measured_fraction_theta_full 0.972
_diffrn_measured_fraction_theta_max 0.939
_diffrn_measurement_device_type  'Xcalibur, Ruby, Nova'
_diffrn_measurement_method       '\w scans'
_diffrn_radiation_monochromator  mirror
_diffrn_radiation_type           CuK\a
_diffrn_radiation_wavelength     1.54184
_diffrn_reflns_av_R_equivalents  0.0603
_diffrn_reflns_av_unetI/netI     0.0872
_diffrn_reflns_Laue_measured_fraction_full 0.972
_diffrn_reflns_Laue_measured_fraction_max 0.939
_diffrn_reflns_limit_h_max       6
_diffrn_reflns_limit_h_min       -9
_diffrn_reflns_limit_k_max       12
_diffrn_reflns_limit_k_min       -12
_diffrn_reflns_limit_l_max       12
_diffrn_reflns_limit_l_min       -9
_diffrn_reflns_number            4683
_diffrn_reflns_point_group_measured_fraction_full 0.972
_diffrn_reflns_point_group_measured_fraction_max 0.939
_diffrn_reflns_theta_full        67.684
_diffrn_reflns_theta_max         76.09
_diffrn_reflns_theta_min         4.552
_exptl_absorpt_coefficient_mu    9.057
_exptl_absorpt_correction_T_max  1
_exptl_absorpt_correction_T_min  0.75634
_exptl_absorpt_correction_type   multi-scan
_exptl_absorpt_process_details
;
        CrysAlisPro, Agilent Technologies,
        Version 1.171.36.20 (release 27-06-2012 CrysAlis171 .NET)
        (compiled Jul 11 2012,15:38:31)
        Empirical absorption correction using spherical harmonics,
 implemented in SCALE3 ABSPACK scaling algorithm.
;
_exptl_crystal_colour            yellow
_exptl_crystal_density_diffrn    1.986
_exptl_crystal_density_method    'not measured'
_exptl_crystal_description       prism
_exptl_crystal_F_000             394
_exptl_crystal_size_max          0.12
_exptl_crystal_size_mid          0.04
_exptl_crystal_size_min          0.02
_refine_diff_density_max         1.225
_refine_diff_density_min         -1.079
_refine_diff_density_rms         0.143
_refine_ls_extinction_method     none
_refine_ls_goodness_of_fit_ref   1.059
_refine_ls_hydrogen_treatment    constr
_refine_ls_matrix_type           full
_refine_ls_number_parameters     217
_refine_ls_number_reflns         2593
_refine_ls_number_restraints     14
_refine_ls_restrained_S_all      1.065
_refine_ls_R_factor_all          0.0721
_refine_ls_R_factor_gt           0.0619
_refine_ls_shift/su_max          0
_refine_ls_shift/su_mean         0
_refine_ls_structure_factor_coef Fsqd
_refine_ls_weighting_details
'w=1/[\s^2^(Fo^2^)+(0.1031P)^2^] where P=(Fo^2^+2Fc^2^)/3'
_refine_ls_weighting_scheme      calc
_refine_ls_wR_factor_ref         0.1772
_reflns_number_gt                2144
_reflns_number_total             2593
_reflns_threshold_expression     'I > 2\s(I)'
_iucr_refine_instructions_details
;
TITL lidija_p7_zuti_100K in P-1
    shelx.res
    created by SHELXL-2017/1 at 13:27:31 on 22-Jan-2019
CELL  1.54184   7.2322   9.7882  10.0034   91.630  109.709   95.890
ZERR     2.00   0.0006   0.0008   0.0006    0.006    0.007    0.007
LATT   1
SFAC  C    H    CL   CR   K    N    O    S    CU
UNIT  26 16 0 2 0 4 11 0 2
MERG   2
OMIT    -4.00 180.00
DFIX  1.600 0.020 CR1 O4A
DFIX  1.600 0.020 CR1 O4B
ISOR  0.03 0.0001 O4A O4B
FMAP   2
PLAN   20
ACTA
BOND   $H
CONF
L.S.  10
WGHT    0.103100
FVAR       4.82067
MOLE    1
CU1   9    0.173052    0.179199    0.708786    11.00000    0.02679    0.02910 =
         0.02014    0.00521    0.00784    0.00327
O5    7    0.092850   -0.021894    0.682988    11.00000    0.03052    0.03188 =
         0.01865    0.00417    0.00727    0.00343
O6    7    0.073727    0.175053    0.498109    11.00000    0.03269    0.03014 =
         0.02127    0.00497    0.00881    0.00290
C1    1    0.004713   -0.057279    0.552700    11.00000    0.02114    0.02746 =
         0.02745    0.00694    0.01293    0.00432
N2    6    0.216009    0.383127    0.730602    11.00000    0.02453    0.03239 =
         0.02344    0.00362    0.00638    0.00362
N1    6    0.216402    0.197582    0.917577    11.00000    0.02310    0.04063 =
         0.02051    0.00727    0.00978    0.00517
C11   1    0.220751    0.472551    0.635444    11.00000    0.02596    0.03989 =
         0.02380    0.00573    0.00626    0.00153
AFIX  43
H11   2    0.214101    0.439903    0.545521    11.00000   -1.20000
AFIX   0
C10   1    0.235509    0.615740    0.664669    11.00000    0.02498    0.03268 =
         0.03708    0.01148    0.00891    0.00182
AFIX  43
H10   2    0.238583    0.676308    0.595280    11.00000   -1.20000
AFIX   0
C9    1    0.245309    0.664515    0.797782    11.00000    0.02192    0.02907 =
         0.03558    0.00408    0.00504    0.00153
AFIX  43
H9    2    0.251061    0.758432    0.818391    11.00000   -1.20000
AFIX   0
C8    1    0.246544    0.570557    0.902718    11.00000    0.01930    0.03449 =
         0.02879    0.00230    0.00464    0.00147
C7    1    0.231292    0.432109    0.862862    11.00000    0.01275    0.03989 =
         0.02103    0.00485    0.00329    0.00080
C6    1    0.228931    0.329753    0.963126    11.00000    0.02164    0.03506 =
         0.02064    0.00636    0.00607    0.00448
C5    1    0.240896    0.371099    1.102028    11.00000    0.01650    0.04483 =
         0.02492    0.00385    0.00483    0.00280
C4    1    0.235082    0.263610    1.193669    11.00000    0.02743    0.05499 =
         0.01884    0.00886    0.00914    0.00349
AFIX  43
H4    2    0.240275    0.284521    1.286234    11.00000   -1.20000
AFIX   0
C3    1    0.221983    0.130766    1.146229    11.00000    0.03587    0.04862 =
         0.02981    0.01671    0.01483    0.01187
AFIX  43
H3    2    0.217915    0.060484    1.206174    11.00000   -1.20000
AFIX   0
C2    1    0.214528    0.099048    1.006358    11.00000    0.03092    0.04119 =
         0.02749    0.01135    0.01170    0.00476
AFIX  43
H2    2    0.208178    0.007655    0.975325    11.00000   -1.20000
AFIX   0
C13   1    0.259301    0.610833    1.045500    11.00000    0.02749    0.03694 =
         0.03294   -0.00488    0.00542    0.00451
AFIX  43
H13   2    0.269126    0.703713    1.072625    11.00000   -1.20000
AFIX   0
C12   1    0.257230    0.515569    1.141098    11.00000    0.02449    0.04828 =
         0.02358   -0.00103    0.00677    0.00565
AFIX  43
H12   2    0.266470    0.543993    1.232868    11.00000   -1.20000
AFIX   0
MOLE    2
CR1   4    0.572607    0.150161    0.607026    11.00000    0.04593    0.03642 =
         0.03625    0.00331    0.02645    0.00421
O1    7    0.481143    0.135428    0.734121    11.00000    0.02447    0.04284 =
         0.02749    0.00586    0.00899    0.00602
O2    7    0.498687    0.279126    0.517169    11.00000    0.03825    0.08117 =
         0.04422    0.03383    0.01579    0.01043
O4A   7    0.816663    0.201049    0.696817    10.50000    0.03260    0.04574 =
         0.05179   -0.00291    0.02718    0.01227
O4B   7    0.793766    0.146565    0.647249    10.50000    0.04081    0.05678 =
         0.05581    0.01539    0.03645    0.02193
O3    7    0.583362   -0.013457    0.528839    10.50000    0.06245    0.04450 =
         0.04884   -0.02001    0.02085    0.00681
HKLF    4
 
 
 
 
REM  lidija_p7_zuti_100K in P-1
REM R1 =  0.0619 for    2144 Fo > 4sig(Fo)  and  0.0721 for all    2593 data
REM    217 parameters refined using     14 restraints
 
END
 
WGHT      0.1031      0.0000
 
REM Highest difference peak  1.225,  deepest hole -1.079,  1-sigma level  0.143
Q1    1   0.1858  0.2598  0.7613  11.00000  0.05    1.23
Q2    1   0.1946  0.2834  0.7207  11.00000  0.05    1.16
Q3    1   0.1399  0.0829  0.6994  11.00000  0.05    1.12
Q4    1   0.5796  0.0725  0.5326  11.00000  0.05    0.83
Q5    1   0.5949  0.2481  0.5829  11.00000  0.05    0.64
Q6    1   0.2590  0.6246  0.8653  11.00000  0.05    0.59
Q7    1   0.1624  0.1362  0.8280  11.00000  0.05    0.57
Q8    1   0.5519  0.0470  0.6336  11.00000  0.05    0.56
Q9    1   0.5861  0.2243  0.6775  11.00000  0.05    0.55
;
_cod_data_source_file            c9dt01195a2.cif
_cod_data_source_block           lidija_p7_zuti_100k
_cod_depositor_comments
'Adding full bibliography for 7049883--7049885.cif.'
_cod_original_formula_sum        'C13 H8 Cr1 Cu1 N2 O5.5'
_cod_database_code               7049884
_iucr_refine_reflections_details
;
   0   0   1 32903.9 773.621   2
   0   0  -1 30610.1 1089.86   3
   0   0  -2 12253.0 966.247   3
   0   0   2 13766.2 528.174   4
   0   0  -3 29127.2 1810.00   3
   0   0  -4 941.598 366.683   3
   0   0  -5 51735.4 3013.15   3
   0   0  -6 949.362 430.659   3
   0   0   6 245.668 140.755   6
   0   0   7 9818.46 989.796   6
   0   0   8 599.099 302.438  22
   0   0   8 674.813 298.035   6
   0   0   8 221.857 151.447  23
   0   0   9 16333.5 1337.40  22
   0   0  10 10531.2 1024.33  22
   0   0  10 9732.73 939.381   9
   0   0  11 10.4465 97.3075  22
   0  -1  11 3844.48 527.285  22
   0  -1  10 21753.0 1429.46  22
   0  -1   9 474.251 245.294  23
   0  -1   9 998.942 339.865  22
   0  -1   8 35657.5 1835.50  14
   0  -1   8 35321.8 1851.42  22
   0  -1   8 35798.0 1944.30   6
   0  -1   8 37261.0 2150.36  23
   0  -1   7 15286.9 1179.85   6
   0  -1   6 8155.35 758.986   6
   0   1  -6 9259.17 1482.92   3
   0   1  -5 21185.6 2142.03   3
   0   1  -4 18353.1 1858.14   3
   0   1  -3 17609.1 1686.12   3
   0  -1   2 99599.2 2401.81   1
   0   1  -2 106084. 3724.65   3
   0  -1   1 475289. 3907.50   1
   0   1  -1 551573. 4981.98   4
   0   1   0 24665.4 1112.13   4
   0   1   1 392.954 161.108   4
   0   1   1 296.451 65.5444   2
   0  -1  -2 112450. 2797.70   3
   0   1   2 109576. 2781.02   4
   0   1   2 112125. 1685.84   2
   0   1   3 16789.3 1167.35   4
   0  -1  -3 19430.5 1388.22   3
   0  -1  -4 117853. 3976.86   3
   0  -1  -5 14354.3 1535.45   3
   0   1   5 11136.0 854.279   6
   0   1   6 4858.21 650.168   6
   0   1   7 228.948 180.290   6
   0   1   7 308.589 202.380  22
   0   1   8 20250.1 1580.40   6
   0   1   8 17562.7 1394.80  23
   0   1   8 17186.3 1377.17  22
   0   1   9 4471.44 722.122  22
   0   1  10 233.677 214.045   9
   0   1  10 57.9070 93.5871  22
   0   1  11 3364.63 446.557   9
   0  -2  11 5509.69 468.558  13
   0  -2  11 6452.89 656.047  22
   0  -2  10 1030.14 302.796  22
   0  -2   9 50163.5 2196.34  14
   0  -2   9 52648.7 2305.35  22
   0  -2   9 54812.3 2720.04  23
   0  -2   8 515.059 240.725  14
   0  -2   8 693.362 267.120  22
   0  -2   8 511.547 249.850  23
   0  -2   7 15308.3 1309.11  23
   0  -2   7 12777.1 1004.83  14
   0  -2   7 13422.0 1033.04  22
   0  -2   7 13271.7 1049.81   6
   0   2  -6 2066.85 768.959   3
   0  -2   6 2332.33 381.484   6
   0   2  -5 8229.57 1504.05   3
   0   2  -4 71296.6 4309.75   3
   0  -2   3 312.408 215.731   1
   0   2  -3 586.454 363.500   3
   0  -2   2 135558. 3023.49   1
   0   2  -2 136972. 3620.32   4
   0   2  -1 80544.8 2813.52   4
   0   2   0 31592.0 1797.49   4
   0   2   1 199092. 4722.16   4
   0   2   2 32215.1 870.910   2
   0   2   2 35939.0 2142.29   4
   0   2   3 1984.71 250.359   2
   0   2   3 2620.37 630.114   4
   0   2   4 163.743 173.913   4
   0   2   5 521.281 207.861   6
   0   2   6-59.0572 125.181   6
   0   2   7 14204.2 1292.59   6
   0   2   7 12987.9 1148.27  22
   0   2   8 6711.34 941.753   6
   0   2   8 4992.29 772.912  22
   0   2   9 321.699 176.965  22
   0   2  10 21490.9 1493.57   9
   0   2  10 16897.8 1299.42  22
   0   2  11 2932.54 427.314   9
   0  -3  11 140.118 119.169  22
   0  -3  11 100.335 94.4986  13
   0  -3  10 5688.17 695.554  22
   0  -3   9 12463.0 1072.12  14
   0  -3   9 11872.7 1265.51  23
   0  -3   9 12204.8 1087.07  22
   0  -3   8 16861.1 1266.47  14
   0  -3   8 17491.9 1279.93  22
   0  -3   8 19538.8 1615.77  23
   0  -3   7 3167.06 515.853  22
   0  -3   7 3175.72 500.675  14
   0  -3   7 3997.30 688.911  23
   0   3  -6 2499.58 950.668   3
   0   3  -5 10489.3 1930.15   3
   0   3  -4 33459.4 3402.85   3
   0  -3   4 35427.2 2232.67   1
   0  -3   3 5387.68 780.104   1
   0   3  -3 5430.78 859.462   4
   0   3  -2 24244.3 2002.00   4
   0  -3   2 27868.4 1512.55   1
   0   3  -1 24227.7 1979.83   4
   0   3   0 124344. 4541.73   4
   0   3   1 30210.3 2365.09   4
   0   3   2 15605.9 753.862   2
   0   3   2 16851.2 1796.01   4
   0   3   3 25788.3 2328.06   4
   0   3   4-98.3292 289.899   4
   0   3   5 2788.91 475.414   6
   0   3   6 21635.5 1470.95   6
   0  -3  -7 18235.5 1130.04  17
   0   3   7 18837.7 1473.43  22
   0  -3  -8 237.774 123.328  17
   0   3   8 290.614 266.645   6
   0   3   8 91.7486 154.050  22
   0   3   9 22759.6 1644.86  22
   0   3   9 32830.7 2080.68   9
   0   3  10 8880.19 948.761   9
   0   3  11 48.1180 83.8100   9
   0  -4  11 2566.16 345.543  22
   0  -4  10 4485.49 577.387  22
   0  -4   9 140.765 129.710  23
   0  -4   9 162.877 120.158  14
   0  -4   9 385.514 176.045  22
   0  -4   8 1781.57 512.573  23
   0  -4   8 1966.18 422.056  22
   0  -4   8 1953.87 424.745  14
   0  -4   7 5110.84 793.112  23
   0  -4   7 4858.51 645.165  14
   0  -4   7 4784.70 661.829  22
   0   4  -6 1503.19 810.022   3
   0   4  -5 1677.55 837.454   3
   0  -4   4 15839.9 1552.34   1
   0   4  -4 14718.0 2514.02   3
   0   4  -3 41369.1 2924.65   4
   0  -4   3 44995.3 2318.73   1
   0  -4   2 24422.4 1560.53   1
   0   4  -2 21002.7 2159.74   4
   0   4  -1 124872. 5301.90   4
   0   4   0 52745.3 3619.33   4
   0   4   1 142690. 5885.29   4
   0   4   2 34456.3 3038.15   4
   0   4   3 4911.35 1186.56   4
   0   4   4 2775.56 943.136   4
   0   4   4 2293.85 376.688   6
   0   4   5 2043.55 429.775   6
   0  -4  -6 27986.8 1418.39  17
   0   4   6 29130.4 1721.77   6
   0   4   6 25761.2 1712.15  22
   0  -4  -7 893.202 303.229  17
   0   4   7 1257.93 416.008   6
   0  -4  -8 18570.2 1181.13  17
   0   4   9 14757.7 1360.48   9
   0  -4  -9 10681.6 793.777  17
   0   4  10 159.692 159.915   9
   0  -5  11 1933.47 252.949  13
   0  -5  10 250.695 110.839  22
   0  -5   9 9621.24 861.657  14
   0  -5   9 10199.9 1067.17  23
   0  -5   9 11418.7 974.141  22
   0  -5   8 1226.57 412.630  23
   0  -5   8 1684.67 406.354  14
   0  -5   8 1658.19 401.759  22
   0  -5   7 187.231 272.543  23
   0  -5   7 375.511 201.489  22
   0  -5   7 274.712 154.915  14
   0  -5   6 1098.72 288.707  14
   0  -5   6 1766.92 470.109  23
   0   5  -6 1257.79 797.118   3
   0  -5   6 917.330 299.451  22
   0  -5   6 1167.13 397.631   5
   0  -5   5 17411.1 1663.51   5
   0   5  -5 18429.5 3110.07   3
   0  -5   4 16789.7 1639.76   1
   0  -5   4 14465.8 1448.95   5
   0  -5   3 15927.9 1477.34   1
   0  -5   3 11554.6 1241.10   5
   0   5  -3 13784.0 1952.62   4
   0  -5   2 123010. 3822.64   1
   0   5  -2 99230.9 5560.04   4
   0   5  -1 21455.8 2564.05   4
   0   5   0 35204.1 3344.80   4
   0   5   1 52169.6 4107.20   4
   0   5   2 9465.79 1818.96   4
   0   5   3 9542.32 1860.42   4
   0   5   4 617.538 491.871   4
   0  -5  -5 65718.8 2198.98  17
   0   5   5 53911.5 2123.62   6
   0   5   6 178.928 112.413   6
   0  -5  -6 631.102 259.216  17
   0   5   7 4354.26 812.675   9
   0  -5  -7 3565.04 575.931  17
   0  -5  -8 16332.6 1127.80  17
   0   5   8 18442.6 1577.99   9
   0   5   9 314.168 227.781   9
   0  -5  -9 10.9138 56.6061  17
   0   5  10 7759.62 738.279   9
   0  -6  10 7507.74 597.012  22
   0  -6   9 3489.23 465.093  14
   0  -6   9 3587.98 506.654  22
   0  -6   8 2720.04 459.275  14
   0  -6   8 2510.42 516.015  23
   0  -6   8 2851.49 525.456  22
   0  -6   7 521.132 215.723  14
   0  -6   7 489.750 221.796  23
   0  -6   7 558.762 259.070  22
   0  -6   6 1171.74 358.669  22
   0  -6   6 1462.14 581.901   5
   0  -6   6 1127.28 317.638  14
   0   6  -6 329.485 428.101   3
   0  -6   5 7805.27 895.183  10
   0  -6   5 12784.4 1555.13   5
   0  -6   5 13357.6 964.938  14
   0   6  -5 10110.5 2562.84   3
   0  -6   4 7620.94 1177.30   5
   0   6  -3 47151.3 4080.54   4
   0  -6   3 56568.2 3105.69   5
   0   6  -2 37878.5 3791.81   4
   0  -6   2 43150.9 2466.29   1
   0   6  -1 13174.1 2347.26   4
   0   6   0 57277.7 4843.04   4
   0   6   1 19449.9 2838.50   4
   0   6   2 54.1008 331.087   4
   0   6   3-160.938 309.683   4
   0  -6  -4 7088.04 749.375  17
   0   6   4 5888.20 1661.38   4
   0   6   4 6400.27 836.987   9
   0   6   5-164.702 135.744   9
   0  -6  -5 212.878 186.644  17
   0  -6  -6 2248.24 475.349  17
   0   6   6 1715.84 461.305   9
   0   6   7 4367.61 779.004   9
   0  -6  -7 3626.93 572.306  17
   0  -6  -8 967.188 255.576  17
   0   6   8 1082.08 364.358   9
   0  -6  -9 12782.5 732.491  17
   0   6   9 13387.9 1064.68   9
   0  -7  10 1789.03 224.982  22
   0  -7   9 340.246 160.651  22
   0  -7   9 156.749 76.3599  14
   0  -7   8 443.793 179.664  14
   0  -7   8 404.042 184.264  22
   0  -7   7 128.202 133.172  14
   0  -7   7-79.3463 124.575  22
   0  -7   6 1574.41 401.023  22
   0  -7   6 1771.55 380.327  14
   0  -7   5 3612.31 531.237  14
   0  -7   5 2925.49 586.003  10
   0  -7   4 19670.6 1505.65  10
   0   7  -4 19208.7 3658.60   3
   0  -7   3 89.2655 107.395  10
   0   7  -3 413.844 429.928   4
   0   7  -2 2630.45 1145.20   4
   0   7  -1 41610.4 4529.39   4
   0   7   0 9680.11 2238.56   4
   0   7   1 337.714 447.297   4
   0  -7  -2 1605.24 491.013  21
   0  -7  -2 1402.66 370.056  17
   0   7   2 1394.32 1001.24   4
   0   7   3 324.606 439.513   4
   0  -7  -3-199.595 93.6930  17
   0  -7  -3 585.603 355.147  21
   0  -7  -4 787.481 294.886  17
   0   7   4 1705.28 915.076   4
   0   7   5 469.476 267.469  25
   0  -7  -5 146.744 92.6777  17
   0   7   5 459.785 311.862   9
   0   7   6 3715.32 646.798  25
   0  -7  -6 3281.30 557.988  17
   0   7   6 3365.76 675.688   9
   0   7   7-16.8677 112.972   9
   0  -7  -7 82.8260 166.866  17
   0   7   8 7395.37 798.768   9
   0  -7  -8 7994.10 674.231  17
   0   7   9 2015.81 310.107   9
   0  -8   9 614.784 152.967  22
   0  -8   8 99.1696 99.6681  22
   0  -8   8 216.361 98.1145  14
   0  -8   7 111.918 100.763  22
   0  -8   7 38.6023 104.975  14
   0  -8   6 27.8712 85.3993  22
   0  -8   6 84.9265 114.391  14
   0  -8   5 2371.80 550.732  10
   0  -8   5 4953.17 615.004  14
   0  -8   4 1133.19 386.123  10
   0  -8   3 801.877 385.345  10
   0  -8   2 10068.8 1128.71  10
   0   8  -2 5463.04 822.149  25
   0   8  -2 7054.73 1880.08   4
   0  -8   2 7293.99 1215.65  21
   0  -8   1 2227.31 425.883  17
   0   8  -1 1924.97 1012.69   4
   0   8  -1 1957.71 526.345  25
   0  -8   1 2429.37 648.868  21
   0   8   0 2205.73 539.898  25
   0   8   0 2124.79 1083.08   4
   0  -8   0 2072.50 631.651  21
   0  -8   0 2008.73 427.526  17
   0   8   1 4519.24 1546.16   4
   0  -8  -1 3325.89 575.507  17
   0  -8  -1 5034.04 1026.02  21
   0   8   1 4229.26 805.848  25
   0   8   2 2170.74 633.523  25
   0  -8  -2 2107.20 447.625  17
   0  -8  -2 2253.02 615.270  21
   0  -8  -3 47.5433 201.912  21
   0   8   3 479.783 290.533  25
   0  -8  -3 213.048 213.361  17
   0   8   4 4185.46 755.119  25
   0  -8  -4 4523.66 690.457  17
   0  -8  -4 3795.45 745.963  21
   0   8   5 11086.5 1159.92  25
   0  -8  -5 10643.0 1019.34  17
   0   8   6 193.967 188.683   9
   0   8   6 483.832 260.348  25
   0  -8  -6 322.012 198.599  17
   0  -8  -7 6544.89 644.486  17
   0   8   7 4436.89 560.437   9
   0  -8  -8 6486.40 489.735  17
   0  -9   8 14.0501 47.3822  22
   0  -9   7 1626.86 263.456  14
   0  -9   7 1606.38 308.022  22
   0  -9   6 5607.74 671.357  22
   0  -9   6 5270.50 542.276  14
   0  -9   5 3821.97 507.589  14
   0  -9   5 2161.47 492.682  10
   0  -9   4 1713.71 475.865  10
   0  -9   4 2955.91 471.338  14
   0  -9   3 8916.56 1082.46  10
   0  -9   2 6922.82 978.414  10
   0  -9   1 13993.3 1697.57  21
   0   9  -1 11615.0 1292.23  25
   0  -9   1 11613.4 1005.47  17
   0   9   0 11134.8 1326.99  25
   0  -9   0 11274.3 1488.48  21
   0  -9   0 11441.9 1019.11  17
   0  -9  -1 3421.50 815.556  21
   0  -9  -1 2938.22 514.878  17
   0   9   1 2442.67 596.602  25
   0  -9  -2-66.9595 108.123  17
   0  -9  -2 76.4980 209.855  21
   0   9   2-145.354 253.938  25
   0  -9  -3 89.8087 90.2470  17
   0   9   3 84.1596 137.551  25
   0   9   4 4689.84 760.984  25
   0  -9  -4 4763.86 658.042  17
   0  -9  -4 3723.87 693.390  21
   0   9   5 483.007 256.772  25
   0  -9  -5 261.862 162.840  17
   0  -9  -6 7490.83 677.525  17
   0   9   6 7317.52 675.596  25
   0  -9  -7 5841.36 474.053  17
   0 -10   7 569.934 142.928  22
   0 -10   6 667.797 149.580  14
   0 -10   6 756.551 197.236  22
   0 -10   5 4620.40 550.155  22
   0 -10   5 4572.05 454.545  14
   0 -10   4 15295.8 902.479  14
   0 -10   4 8807.86 931.023  10
   0 -10   3 310.762 230.906  10
   0 -10   2 2376.88 555.931  10
   0 -10   1 18745.8 1488.86  10
   0 -10   0 617.236 207.701  17
   0 -10   0 1174.72 450.350  10
   0  10   0 502.087 331.356  25
   0 -10  -1 540.381 300.120  21
   0  10   1 756.813 332.177  25
   0 -10  -1 914.739 312.964  17
   0 -10  -2 322.694 206.546  17
   0 -10  -2 431.982 238.939  21
   0  10   2 470.073 243.608  25
   0 -10  -3 2668.68 472.309  17
   0  10   3 2623.73 561.521  25
   0 -10  -4 166.276 175.535  17
   0  10   4-272.813 203.117  25
   0 -10  -5 4909.14 504.014  17
   0 -10  -6 3879.47 354.830  17
   0 -11   5 11292.0 637.489  22
   0 -11   4 3781.60 425.905  22
   0 -11   4 3470.42 305.300  14
   0 -11   3 1636.81 250.068  14
   0 -11   3 820.048 240.551  10
   0 -11   2 7615.31 568.679  14
   0 -11   2 5383.24 680.431  10
   0 -11   1 204.389 157.049  10
   0 -11   0 1178.42 343.003  10
   0 -11  -1 344.408 243.563  10
   0 -11  -1 160.175 118.846  17
   0 -11  -2 121.862 68.9577  17
   0 -11  -2 280.375 181.665  10
   0 -11  -3 81.4158 110.039  10
   0 -11  -3 132.328 108.909  17
   0 -11  -4 1538.29 229.277  17
   0 -12   2 200.573 128.994  10
   0 -12   1-48.5711 97.7080  10
   0 -12   0 428.371 142.747  10
   0 -12  -1 61.3951 69.9896  10
   1 -12  -1-51.2967 81.1405  10
  -1  12   0 3048.79 431.210  26
   1 -12   0 3119.16 394.749  10
   1 -12   1 101.636 96.8670  10
   1 -12   2 526.694 126.082  22
   1 -12   3 44.9149 42.2958  22
   1 -11  -5 208.619 79.6205  17
   1 -11  -4 4162.38 433.545  17
   1 -11  -3 4202.80 497.798  10
   1 -11  -3 4770.77 522.023  17
   1 -11  -2 67.7308 87.4121  17
   1 -11  -2 161.448 139.768  10
   1 -11  -1 3884.51 496.600  17
   1 -11  -1 4479.50 615.815  10
   1 -11   0 4190.48 618.701  10
   1 -11   1 35.4200 149.868  10
   1 -11   2 756.401 277.539  10
  -1  11  -2 986.049 275.221  26
   1 -11   3 508.604 222.058  10
   1 -11   4 2837.61 375.584  22
   1 -11   5 36.8739 31.4041  22
   1 -10  -6 652.017 169.173  17
   1 -10  -5 6374.20 628.921  17
   1 -10  -4 10885.7 919.116  17
   1 -10  -4 11141.1 854.486  10
   1 -10  -3 1649.84 413.706  10
  -1  10   3 1179.80 361.244  25
   1 -10  -3 1129.97 340.819  17
  -1  10   2 10065.1 1129.87  25
   1 -10  -2 9571.43 936.832  17
   1 -10  -2 11289.0 1077.20  10
   1 -10  -1 5267.35 797.877  10
   1 -10  -1 3719.01 595.842  17
   1 -10   0 671.557 257.147  17
   1 -10   0 531.876 321.234  10
   1 -10   1 7224.82 938.168  10
   1 -10   2 32.1154 232.423  10
   1 -10   3 768.190 333.802  10
   1 -10   4-113.208 185.098  10
   1 -10   5 5001.65 560.197  22
   1 -10   6 991.509 212.018  22
   1 -10   7 489.322 114.186  22
   1  -9  -7 294.490 142.995  17
   1  -9  -6 6838.52 690.557  17
  -1   9   5 6124.40 814.423  25
   1  -9  -5 7120.23 776.855  17
  -1   9   4 743.708 317.324  25
   1  -9  -4 1096.33 354.243  17
   1  -9  -3 10382.0 1041.88  17
  -1   9   3 11553.8 1272.43  25
   1  -9  -3 7911.29 1116.07  21
  -1   9   2 1632.45 450.104  25
   1  -9  -2 1546.28 413.335  17
   1  -9  -2 755.338 408.174  21
   1  -9  -1 164.327 185.060  21
  -1   9   1 481.249 206.945  25
   1  -9  -1 269.862 163.006  17
  -1   9   0 7038.15 1034.25  25
   1  -9   0 6534.54 815.654  17
   1  -9   0 7972.21 1024.28  10
   1  -9   1 7124.27 1001.43  10
   1  -9   1 4609.20 668.977  17
   1  -9   2 2329.32 600.986  10
   1  -9   3 1147.59 385.697  10
   1  -9   4 6283.79 888.509  10
   1  -9   5 4506.07 631.337  22
   1  -9   6 2826.38 467.315  22
   1  -9   7 7570.58 631.880  22
   1  -9   8 1433.21 214.000  22
   1  -8  -8 156.195 115.588  17
  -1   8   8-85.3003 128.857   9
  -1   8   7 1354.34 377.204   9
   1  -8  -7 1726.29 351.685  17
  -1   8   6 2259.36 511.265   9
   1  -8  -6 2849.46 506.787  17
  -1   8   6 2412.91 487.869  25
   1  -8  -5 333.339 211.061  17
  -1   8   5 496.425 264.401  25
  -1   8   5 133.326 139.426   9
   1  -8  -4 7704.65 888.242  17
  -1   8   4 7219.95 1023.85  25
   1  -8  -3 8577.17 928.409  17
   1  -8  -3 8398.14 1124.26  21
  -1   8   3 9980.37 1205.64  25
   1  -8  -2 897.162 290.482  17
   1  -8  -2 1020.68 415.405  21
  -1   8   2 867.955 403.651  25
  -1   8   2 1330.03 866.710   4
   1  -8  -1 10949.6 1422.49  21
  -1   8   1 9548.17 2352.73   4
   1  -8  -1 10737.4 1013.75  17
  -1   8   1 9943.51 1194.59  25
  -1   8   0 13702.7 2713.80   4
  -1   8   0 12138.4 1294.81  25
   1  -8   0 13781.4 1616.90  21
   1  -8   0 10987.3 1053.93  17
   1  -8   1 359.550 177.978  17
   1  -8   1 512.833 332.424  10
  -1   8  -1 339.332 268.680  25
  -1   8  -1-478.374 519.681   4
  -1   8  -2 25800.0 3566.64   4
   1  -8   2 22618.3 1433.67  17
   1  -8   3 1417.48 446.312  10
   1  -8   4 2574.36 419.441  14
   1  -8   4 1748.67 490.058  10
   1  -8   5 672.826 261.806  22
   1  -8   6 11646.5 1043.42  22
   1  -8   7 438.048 204.735  22
   1  -8   8 3716.04 446.242  22
   1  -8   9 1609.42 210.024  22
  -1   7   9 304.652 163.695   9
  -1   7   8 1357.17 411.913   9
   1  -7  -8 628.111 191.771  17
  -1   7   7 131.493 128.714   9
   1  -7  -7 488.892 240.944  17
  -1   7   6 4022.19 743.973   9
   1  -7  -6 4725.74 682.208  17
  -1   7   5 12551.6 1232.30  25
  -1   7   5 11576.8 1224.11   9
   1  -7  -5 12342.9 1097.35  17
   1  -7  -4 6656.56 818.832  17
  -1   7   4 7266.37 963.076  25
  -1   7   4 6763.41 1810.36   4
  -1   7   4 6172.92 857.393   9
  -1   7   3 598.743 573.352   4
   1  -7  -3 895.605 309.287  17
  -1   7   3 817.190 337.839  25
   1  -7  -2 9144.58 875.161  17
  -1   7   2 7794.79 2119.41   4
  -1   7   2 9152.22 1070.57  25
  -1   7   1 11574.8 2441.87   4
  -1   7   0 1533.51 876.298   4
  -1   7  -1-332.906 435.500   4
  -1   7  -2-56.9499 227.282   4
   1  -7   2 313.899 324.952   5
   1  -7   2 58.9748 128.505  10
   1  -7   3 18013.6 1479.96  10
   1  -7   3 14595.0 1810.36   5
  -1   7  -3 11991.9 2977.06   3
   1  -7   4 1213.38 280.236  14
   1  -7   4 1116.09 620.056   5
   1  -7   4 385.897 204.992  10
   1  -7   5 24920.4 1302.84  14
   1  -7   5 23713.1 1553.03  22
   1  -7   5 25594.3 2435.81   5
   1  -7   6 1165.80 295.344  14
   1  -7   6 1153.09 345.398  22
   1  -7   6 1487.59 639.328   5
   1  -7   6 1565.97 406.312  23
   1  -7   7-40.0293 61.9275  14
   1  -7   7-43.9014 150.072  22
   1  -7   7 71.3715 266.751   5
   1  -7   7 342.955 244.480  23
   1  -7   8 7561.17 765.345  23
   1  -7   8 8763.63 804.420  22
   1  -7   9 88.4485 83.2591  22
  -1   6  10 1054.53 263.368   9
  -1   6   9 553.442 185.802   9
  -1   6   8 234.918 243.978   9
   1  -6  -8 214.839 137.572  17
   1  -6  -7 8048.59 829.429  17
  -1   6   7 8258.64 1094.39   9
   1  -6  -6 203.858 146.441  17
  -1   6   6 105.693 151.274   9
  -1   6   5 47377.4 2256.76  25
  -1   6   5 47284.7 2432.63   9
   1  -6  -5 45330.4 1963.85  17
  -1   6   4 243.319 349.713   4
  -1   6   3 14459.8 2570.69   4
  -1   6   2 7025.10 1755.79   4
  -1   6   1 15.2076 258.175   4
  -1   6   0 3442.81 1244.46   4
   1  -6   1-116.429 267.214   5
  -1   6  -1 62.5905 366.683   4
  -1   6  -2 1407.19 791.059   4
   1  -6   2 1667.51 523.824   5
  -1   6  -3 10703.8 2689.60   3
   1  -6   3 10948.2 1438.41   5
  -1   6  -4 30182.0 4444.85   3
   1  -6   4 36123.1 2710.13   5
   1  -6   4 29653.2 1859.29  10
   1  -6   5 21127.4 1190.89  14
   1  -6   5 22891.9 1438.17  22
   1  -6   5 21274.7 2154.73   5
   1  -6   6 1453.00 372.980  22
   1  -6   6 1096.75 291.100  14
   1  -6   6 1707.91 613.886   5
   1  -6   7 16746.7 1097.86  14
   1  -6   7 18180.7 1337.15  22
   1  -6   7 16581.3 1781.59   5
   1  -6   7 20496.1 1558.71  23
   1  -6   8 549.839 281.542  23
   1  -6   8 569.538 200.422  14
   1  -6   8 632.856 239.173  22
   1  -6   9 8724.15 747.031  22
   1  -6   9 7557.41 768.360  23
   1  -6  10 6093.09 473.945  22
  -1   5  10 286.901 186.127   9
  -1   5   9 1093.53 389.563   9
  -1   5   8 230.658 233.959   6
  -1   5   8 86.0897 167.128   9
   1  -5  -8 16.1106 134.328  17
  -1   5   7 21892.8 1522.97   6
  -1   5   7 20837.5 1731.33   9
   1  -5  -7 16360.2 1165.70  17
  -1   5   6 47785.3 2134.18   6
   1  -5  -6 47929.7 1950.16  17
  -1   5   6 53857.2 2619.96   9
  -1   5   5 2477.81 472.540   6
  -1   5   4 34667.0 3586.05   4
  -1   5   3 23225.9 2929.02   4
  -1   5   2 6763.82 1556.49   4
  -1   5   1 70000.3 5029.23   4
  -1   5   0 6767.83 1531.87   4
  -1   5  -1 754.546 529.893   4
   1  -5   2 730.415 360.503   5
  -1   5  -2 434.812 471.936   4
  -1   5  -3 20017.3 3314.08   3
   1  -5   3 22125.1 1828.71   5
  -1   5  -4 12986.9 2777.25   3
   1  -5   5 6507.22 731.279  22
  -1   5  -5 5109.47 1677.73   3
   1  -5   6 33429.5 1554.72  14
   1  -5   6 34136.4 1787.96  22
   1  -5   7 1429.89 379.845  22
   1  -5   7 1427.20 338.055  14
   1  -5   7 2060.36 575.563  23
   1  -5   7 718.284 473.644   5
   1  -5   8 608.178 235.741  22
   1  -5   8 966.073 368.755  23
   1  -5   8 856.454 282.379  14
   1  -5   9 4666.46 611.554  22
   1  -5   9 3958.87 633.465  23
   1  -5  10 114.949 95.8545  22
  -1   4  11 1076.33 260.133   9
  -1   4  10 602.086 274.716   9
  -1   4   9 1156.27 378.685   6
  -1   4   9 782.797 306.771   9
  -1   4   8 4406.76 727.480   6
  -1   4   8 4598.11 822.051   9
  -1   4   7 8453.85 975.231   6
   1  -4  -7 6788.09 701.098  17
  -1   4   7 8687.24 1126.14   9
  -1   4   6 648.511 254.919   6
  -1   4   5 48745.4 1988.65   6
  -1   4   4 60851.1 4216.09   4
  -1   4   3 731.603 526.550   4
  -1   4   3 313.742 133.562   2
  -1   4   2 8959.73 1648.43   4
  -1   4   1 437.256 495.830   4
  -1   4   0 1855.12 762.153   4
  -1   4  -1 2810.63 886.423   4
   1  -4   1 3661.17 442.581   1
   1  -4   2 3025.65 463.914   1
  -1   4  -2 1698.58 691.223   4
  -1   4  -3 27792.7 3563.93   3
  -1   4  -4 5110.04 1579.69   3
  -1   4  -5 44924.1 4721.83   3
   1  -4   6 15680.4 1161.17  22
   1  -4   6 14508.6 1011.88  14
  -1   4  -6 12570.9 2459.85   3
   1  -4   7 177.379 151.490  14
   1  -4   7 467.907 285.574  23
   1  -4   7 180.232 162.664  22
   1  -4   8 675.779 228.213  14
   1  -4   8 1008.86 384.712  23
   1  -4   8 1126.36 332.423  22
   1  -4   9 569.154 218.824  22
   1  -4   9 411.378 264.861  23
   1  -4  10 666.269 214.675  22
  -1   3  11 282.505 127.061   9
  -1   3  10 7640.34 944.239   9
  -1   3   9 1042.42 342.679   9
  -1   3   9 1170.02 382.635   6
  -1   3   9 365.161 186.423  22
  -1   3   8 3771.50 691.072   6
  -1   3   8 3999.25 763.554   9
  -1   3   8 2522.46 581.885  22
  -1   3   7 4436.04 692.508  22
  -1   3   7 5628.73 787.436   6
  -1   3   6 39725.7 1944.43   6
  -1   3   5 66973.4 2245.94   6
  -1   3   4 388.952 375.434   4
  -1   3   4 198.358 125.849   2
  -1   3   3 667.582 389.240   4
  -1   3   3 875.075 281.357   2
  -1   3   2 5558.46 1103.22   4
  -1   3   2 4323.47 618.480   2
  -1   3   1 9560.36 1381.59   4
  -1   3   0 776.307 379.139   4
   1  -3   1 7658.19 543.678   1
  -1   3  -1 8205.48 1299.15   4
  -1   3  -2 13702.6 2113.40   3
  -1   3  -2 14485.2 1594.93   4
   1  -3   2 12432.1 894.042   1
  -1   3  -3 16564.8 2453.97   3
  -1   3  -4 53574.6 4582.89   3
  -1   3  -5 13648.8 2387.08   3
  -1   3  -6 1250.10 728.901   3
   1  -3   7 1974.01 537.575  23
   1  -3   7 1572.86 400.064  22
   1  -3   7 1023.95 262.630  14
   1  -3   8 8865.85 887.809  14
   1  -3   8 10209.9 1173.49  23
   1  -3   8 10261.3 1023.51  22
   1  -3   9 4236.62 637.601  22
   1  -3   9 3709.85 692.310  23
   1  -3  10 271.882 158.466  22
   1  -3  11 926.255 190.623  22
  -1   2  11 324.221 124.778   9
  -1   2  10 194.604 202.449   9
  -1   2  10 48.4046 142.816  22
  -1   2  10 209.334 184.379   6
  -1   2   9 808.581 402.415   9
  -1   2   9 765.940 340.643  22
  -1   2   9 499.904 271.888   6
  -1   2   8 1622.26 433.780   6
  -1   2   8 1768.71 446.735  22
  -1   2   7 20988.5 1501.49   6
  -1   2   6 12999.5 1074.13   6
  -1   2   5 555.584 220.247   2
  -1   2   5 683.838 246.106   6
  -1   2   4 52633.5 2025.78   2
  -1   2   4 54626.8 2777.29   4
  -1   2   3 27373.3 2014.17   4
  -1   2   3 22848.7 1247.63   2
  -1   2   2 50003.8 2740.24   4
  -1   2   2 40395.9 1641.44   2
  -1   2   1 4835.92 852.611   4
  -1   2   0 68633.7 3024.30   4
  -1   2  -1 12474.4 1336.33   4
  -1   2  -2 33804.1 2908.10   3
  -1   2  -3 40817.8 3398.01   3
  -1   2  -4 7594.36 1563.83   3
  -1   2  -5 19821.4 2621.92   3
  -1   2  -6 41039.8 3910.56   3
   1  -2   7 4038.67 593.284  14
   1  -2   7 4930.26 673.029  22
   1  -2   7 5371.12 834.139  23
   1  -2   8 6079.59 897.780  23
   1  -2   8 5559.04 767.735  22
   1  -2   9 3228.78 597.854  22
   1  -2   9 2915.92 598.724  23
   1  -2  10 1156.49 340.876  22
   1  -2  11 195.119 85.1567  22
  -1   1  11 169.022 143.509  22
  -1   1  11 56.8554 37.0409  16
  -1   1  10 2199.69 481.568  22
  -1   1  10 2891.72 551.947   9
  -1   1  10 3300.81 582.636   6
  -1   1   9 97.7459 173.136  22
  -1   1   9 543.497 314.728   9
  -1   1   9 209.503 114.469   6
  -1   1   8 13157.4 1231.90   6
  -1   1   8 12497.5 1113.11  22
  -1   1   7 22794.5 1507.65   6
  -1   1   6 7031.90 760.914   6
  -1   1   5 145737. 3953.88   2
  -1   1   4 82261.8 2649.64   2
  -1   1   3 3565.40 490.058   2
  -1   1   3 4147.04 595.064   4
  -1   1   2 2841.26 393.646   2
  -1   1   2 3105.88 547.287   4
  -1   1   1 43409.4 1912.64   4
  -1   1   0 97960.4 3108.64   3
  -1   1  -1 16466.4 1538.55   3
  -1   1  -2 16513.1 1762.88   3
  -1   1  -3 3131.63 870.318   3
  -1   1  -4 32088.0 2883.22   3
   1  -1   5 52646.7 1879.68   6
  -1   1  -5 53491.8 3987.27   3
  -1   1  -6 6565.77 1462.17   3
   1  -1   6 5535.70 706.544   6
   1  -1   7 11089.4 1025.18  22
   1  -1   7 12483.9 1178.33  23
   1  -1   8 3863.86 660.255  22
   1  -1   8 4357.96 745.291  23
   1  -1   9 944.620 312.527  23
   1  -1   9 1211.69 338.013  22
   1  -1  10 1455.75 368.108  22
   1  -1  11 709.865 193.376  22
  -1   0  11 388.881 180.352  22
  -1   0  10 1013.98 361.605  22
  -1   0  10 1433.70 354.090  13
  -1   0  10 1266.49 379.781   6
  -1   0   9 11577.3 1164.05   6
  -1   0   9 11227.5 1101.67  22
  -1   0   8 17036.3 1239.29  22
  -1   0   8 15696.3 1313.12   6
  -1   0   8 17443.4 1430.79  23
  -1   0   8 17335.1 1252.64  14
  -1   0   7 2.42493 125.145   6
  -1   0   6 62976.0 2164.68   6
  -1   0   5 84310.5 3235.66   2
  -1   0   4 29039.1 1658.86   2
   1   0  -4 29235.1 1388.24   3
  -1   0   3 73158.8 2538.39   1
  -1   0   3 71762.2 2274.50   2
   1   0  -3 67688.2 1667.08   3
  -1   0   2 266.132 147.624   1
  -1   0   2 329.472 145.648   2
  -1   0   1 24258.3 705.751   3
  -1   0   1 23240.0 945.185   2
  -1   0   0 1831.76 330.358   3
  -1   0  -1 119948. 3524.54   3
  -1   0  -2 44166.0 2542.29   3
   1   0   3 16772.1 1197.47   4
  -1   0  -3 15771.0 1719.93   3
  -1   0  -4 116069. 5144.14   3
  -1   0  -5 11146.6 1705.26   3
   1   0   5 9288.95 831.140   6
  -1   0  -6 1708.95 708.593   3
   1   0   6 2299.43 476.940   6
   1   0   7 7530.57 885.121  23
   1   0   7 6442.28 798.194  22
   1   0   8 2314.10 509.600  23
   1   0   8 2598.07 574.220  22
   1   0   9 534.545 254.629  22
   1   0  10 422.134 209.052  22
  -1  -1  11 1910.94 395.747  22
  -1  -1  11 2167.49 348.276  13
  -1  -1  10 3084.02 569.359  22
  -1  -1   9 33625.5 1837.75  14
  -1  -1   9 34205.9 1821.40  22
  -1  -1   9 33709.6 1902.18   6
  -1  -1   8 4642.82 615.738  22
  -1  -1   8 4574.01 650.175  14
  -1  -1   8 4831.60 696.479   6
  -1  -1   8 4698.97 760.892  23
  -1  -1   7 38237.0 1805.03   6
  -1  -1   6 56247.6 1953.96   6
   1   1  -5 857.486 361.131   3
  -1  -1   4 111579. 3550.76   2
  -1  -1   4 117725. 3936.17   1
   1   1  -4 117676. 3778.09   3
   1   1  -3 64563.1 1546.08   4
  -1  -1   3 66322.1 2334.62   2
  -1  -1   3 70762.0 2557.43   1
  -1  -1   2 7981.62 725.426   1
  -1  -1   2 7722.28 691.501   2
   1   1  -2 8491.34 686.443   4
  -1  -1   1 220.813 93.3978   2
  -1  -1   0 68185.5 1240.37   2
  -1  -1   0 68983.8 2248.14   3
  -1  -1  -1 49068.1 2200.62   3
  -1  -1  -1 32982.7 624.614   2
  -1  -1  -2 60003.0 2807.37   3
   1   1   2 64092.1 2694.61   4
   1   1   3 63508.4 2793.86   4
  -1  -1  -3 57710.7 3091.78   3
  -1  -1  -4 20847.7 2105.87   3
  -1  -1  -5 13873.1 1895.42   3
   1   1   5 11483.7 958.981   6
  -1  -1  -6 6339.68 1465.53   3
   1   1   6 7122.77 856.396   6
   1   1   7 209.726 178.177  23
   1   1   7 224.247 115.838  22
  -1  -1  -7 273.236 131.936  17
  -1  -1  -8-107.942 101.750  17
   1   1   8 179.882 196.177  22
   1   1   8 336.353 238.168  23
   1   1   9-54.2441 99.0319  22
   1   1  10 729.599 281.843  22
   1   1  10 1360.03 349.400   9
  -1  -2  11 149.000 125.010  13
  -1  -2  11 8.68094 61.5230  22
  -1  -2  10 5836.29 732.192  22
  -1  -2   9 911.777 296.707  22
  -1  -2   9 559.566 244.424  14
  -1  -2   9 1227.73 369.309   6
  -1  -2   9 812.805 331.353  23
  -1  -2   8 33035.4 1644.25  22
  -1  -2   8 30502.3 1632.48   6
  -1  -2   8 32614.1 1720.73  14
  -1  -2   8 32899.9 2034.97  23
  -1  -2   7 21111.2 1248.40   6
  -1  -2   6 2085.25 352.039   6
  -1  -2   5 87502.8 3953.13   1
   1   2  -5 84476.7 4180.41   3
  -1  -2   4 61437.5 2895.18   1
   1   2  -4 54879.0 3367.33   3
  -1  -2   3 2865.85 561.416   1
   1   2  -3 2198.54 448.177   4
   1   2  -2 2434.18 534.346   4
  -1  -2   2 2444.85 453.623   2
   1   2  -1 6181.25 804.441   4
  -1  -2   1 4664.45 527.893   2
   1   2   0 12805.3 1219.85   4
   1   2   1 99352.0 3634.27   4
  -1  -2  -2 21032.6 1862.81   3
   1   2   2 23814.3 1909.42   4
   1   2   3 2645.20 664.208   4
  -1  -2  -3 2436.10 728.049   3
  -1  -2  -4 18968.8 2176.60   3
   1   2   4 16501.6 1760.34   4
   1   2   5 6950.75 774.118   6
   1   2   6 2994.50 569.029   6
   1   2   6 2930.13 564.099  22
   1   2   7 37.6150 99.8109  22
  -1  -2  -7 58.3741 74.8878  17
  -1  -2  -8 240.665 183.123  17
   1   2   8 79.9169 184.823  22
   1   2   9 220.486 166.502  22
  -1  -2  -9 393.460 156.905  17
   1   2  10 570.133 228.091   9
  -1  -3  11 567.626 198.242  22
  -1  -3  10 1267.55 323.043  14
  -1  -3  10 1666.43 365.070  22
  -1  -3   9 11363.6 1036.01  14
  -1  -3   9 10634.1 1209.98  23
  -1  -3   9 11354.7 997.596  22
  -1  -3   8 63.3423 71.4040  14
  -1  -3   8 13.7933 103.272  23
  -1  -3   8-94.8765 136.098  22
  -1  -3   7 5355.18 736.945  23
  -1  -3   7 5022.91 618.444  14
  -1  -3   7 4258.29 553.840  22
  -1  -3   5 66931.1 3553.24   1
   1   3  -5 66126.2 4534.66   3
  -1  -3   4 166.436 212.543   1
  -1  -3   3 8430.68 1049.01   1
   1   3  -3 6115.20 974.110   4
   1   3  -2 9640.14 1223.60   4
   1   3  -1 4099.44 831.830   4
   1   3   0 8799.43 1244.54   4
   1   3   1 22895.9 2117.19   4
   1   3   2-58.8006 247.785   4
   1   3   3 32779.7 2765.78   4
   1   3   4 57550.4 1993.10   6
   1   3   4 77374.9 4400.28   4
   1   3   5 1838.29 430.254   6
  -1  -3  -6 822.847 245.751  17
   1   3   6 860.479 334.265  22
   1   3   6 882.135 292.468   6
  -1  -3  -7 783.630 260.896  17
   1   3   7 568.077 328.132  22
  -1  -3  -8 2919.06 488.494  17
   1   3   8 2255.15 588.352  22
  -1  -3  -9 2728.05 391.576  17
   1   3  10 2781.84 463.364   9
  -1  -4  11 373.127 124.624  22
  -1  -4  10 2169.57 414.228  14
  -1  -4  10 2099.43 394.652  22
  -1  -4   9 13606.8 1077.56  22
  -1  -4   9 13521.8 1124.00  14
  -1  -4   8 1286.19 422.831  23
  -1  -4   8 1340.47 338.180  22
  -1  -4   8 1079.58 326.966  14
  -1  -4   7 47355.3 2295.57  23
  -1  -4   7 47471.8 1983.30  14
  -1  -4   7 47751.7 1920.62  22
  -1  -4   6 71383.0 4164.05   1
   1   4  -5 95.7043 409.676   3
  -1  -4   5-5.34210 108.919   1
  -1  -4   4 1550.14 524.200   1
  -1  -4   3 16248.4 1530.93   1
   1   4  -3 12335.6 1617.16   4
   1   4  -2 37619.6 2884.84   4
   1   4  -1-36.2745 225.783   4
   1   4   0 39980.8 3133.84   4
   1   4   1 39119.6 3198.46   4
   1   4   2 44034.7 3531.78   4
   1   4   3 79802.5 4941.89   4
   1   4   4 4089.21 561.337   6
   1   4   4 4926.17 1268.60   4
   1   4   5 11866.6 1178.42  22
  -1  -4  -5 12780.3 943.449  17
  -1  -4  -6 7997.50 806.870  17
   1   4   6 6683.21 963.362  22
  -1  -4  -7 468.419 198.305  17
  -1  -4  -8 762.051 284.277  17
   1   4   9 807.342 283.658   9
  -1  -4  -9 665.251 202.156  17
   1   4  10 2141.12 360.067   9
  -1  -5  11 533.173 133.154  22
  -1  -5  11 758.229 202.788  13
  -1  -5  10 8582.25 761.982  14
  -1  -5  10 8966.02 739.160  22
  -1  -5   9 823.649 265.711  22
  -1  -5   9 916.315 297.395  14
  -1  -5   8 17055.2 1217.58  22
  -1  -5   8 15982.0 1213.17  14
  -1  -5   8 16443.5 1416.34  23
  -1  -5   7 45355.3 1950.99  22
  -1  -5   7 48501.2 2343.60  23
  -1  -5   7 47065.5 2006.83  14
  -1  -5   6 1837.14 745.326   1
  -1  -5   6 2181.32 421.634  14
  -1  -5   6 2931.04 447.093  19
  -1  -5   6 2283.19 416.581  22
  -1  -5   5 71638.2 3922.92   1
   1   5  -5 58413.5 5471.50   3
  -1  -5   4 14718.5 1368.17   5
  -1  -5   4 15877.9 1766.24   1
  -1  -5   3 2896.70 693.594   1
   1   5  -3 2838.31 882.165   4
   1   5  -2 1512.47 680.788   4
   1   5  -1 31009.1 3085.73   4
   1   5   0 25383.8 2874.46   4
   1   5   1 33671.1 3408.28   4
   1   5   2 19016.1 2671.17   4
   1   5   3 4110.51 1293.90   4
  -1  -5  -4 19341.9 1174.78  17
   1   5   4 18017.9 2666.50   4
  -1  -5  -5 52236.4 2075.21  17
  -1  -5  -6 925.015 336.312  17
  -1  -5  -7 224.715 130.516  17
   1   5   8 1275.45 415.931   9
  -1  -5  -8 1160.68 295.569  17
  -1  -5  -9 2071.16 302.182  17
   1   5   9 2119.31 436.223   9
  -1  -6  10 649.573 174.707  22
  -1  -6  10 633.292 182.850  14
  -1  -6   9 7744.86 726.927  22
  -1  -6   9 7500.35 751.744  14
  -1  -6   8 17056.1 1184.85  22
  -1  -6   8 16725.6 1206.47  14
  -1  -6   7 1983.06 405.016  22
  -1  -6   7 1830.84 415.515  14
  -1  -6   6 37749.9 1787.75  22
  -1  -6   6 38942.4 1790.87  14
  -1  -6   5 29761.5 2579.43   1
  -1  -6   5 30387.6 1520.87  14
  -1  -6   5 30640.1 1333.55  19
  -1  -6   4 291.556 260.304   1
  -1  -6   3 14561.8 1709.09   1
   1   6  -3 11095.2 2037.39   4
   1   6  -2 2245.72 925.910   4
   1   6  -1 10983.6 2103.27   4
   1   6   0 922.824 639.908   4
   1   6   1 23213.9 3165.00   4
   1   6   2 4591.67 1541.22   4
  -1  -6  -3 8294.59 1267.18  20
  -1  -6  -3 8342.58 813.370  17
   1   6   3 8332.42 1949.55   4
  -1  -6  -4 21369.4 1342.87  17
   1   6   4 16279.9 2774.14   4
  -1  -6  -5 821.417 322.530  17
   1   6   5 961.630 373.221   9
   1   6   6 6988.35 977.019   9
  -1  -6  -6 8348.44 871.263  17
   1   6   7 187.325 170.183   9
  -1  -6  -7 235.833 163.695  17
   1   6   8 842.143 294.962   9
  -1  -6  -8 901.819 243.942  17
   1   6   9 347.725 141.371   9
  -1  -6  -9 328.487 104.677  17
  -1  -7  10 1090.98 193.210  14
  -1  -7   9 9529.02 708.827  22
  -1  -7   9 8531.88 708.089  14
  -1  -7   8 124.002 146.672  14
  -1  -7   8 48.2481 102.693  22
  -1  -7   7 2791.75 483.576  14
  -1  -7   7 2889.65 503.611  22
  -1  -7   6 22071.1 1417.27  22
  -1  -7   6 21282.1 1372.69  14
  -1  -7   5 2150.05 432.753  14
   1   7  -5 961.051 777.467   3
  -1  -7   4 8625.04 978.818  10
  -1  -7   3 1696.80 337.411  19
   1   7  -3 1838.16 885.378   4
  -1  -7   3 640.727 447.351  21
   1   7  -2 4094.59 1453.45   4
  -1  -7   2 7251.81 1080.32  21
  -1  -7   1 17923.7 1715.38  21
   1   7  -1 8544.81 2050.87   4
  -1  -7   0 33451.4 2273.74  21
  -1  -7   0 26844.2 2430.96  20
   1   7   0 24281.8 3509.05   4
  -1  -7  -1 7638.89 1324.95  20
  -1  -7  -1 10264.7 892.546  17
   1   7   1 8363.48 2086.81   4
  -1  -7  -2 2117.08 656.793  20
   1   7   2 2390.17 1141.76   4
  -1  -7  -2 3317.57 552.854  17
  -1  -7  -3 16922.4 1239.11  17
  -1  -7  -3 13815.1 1792.82  20
   1   7   3 13876.7 2791.12   4
  -1  -7  -4 1599.85 399.969  17
  -1  -7  -5 2566.62 505.003  17
   1   7   6 1657.92 426.069   9
  -1  -7  -6 1477.86 384.688  17
   1   7   6 2121.77 474.621  25
   1   7   7 120.415 130.901   9
  -1  -7  -7 136.841 143.544  17
   1   7   8 100.734 81.5718   9
  -1  -7  -8 342.857 147.985  17
  -1  -8   9 372.768 102.308  22
  -1  -8   9 297.006 99.1649  14
  -1  -8   8 5975.62 583.552  14
  -1  -8   8 6532.70 602.706  22
  -1  -8   7 8850.10 806.673  14
  -1  -8   7 9116.75 821.918  22
  -1  -8   6 165.901 136.305  22
  -1  -8   6 286.384 171.560  14
  -1  -8   5 8490.61 846.034  14
  -1  -8   5 5399.36 734.995  10
  -1  -8   4 4053.29 717.338  10
  -1  -8   3 13641.7 1615.88  21
  -1  -8   3 17271.1 1483.11  10
   1   8  -2 2973.83 605.820  25
   1   8  -2 2465.69 1119.32   4
  -1  -8   2 2286.23 707.412  21
   1   8  -1 36753.8 2163.19  25
  -1  -8   1 40507.9 2740.92  21
  -1  -8   0 4226.92 578.828  17
   1   8   0 5721.19 922.286  25
   1   8   0 3791.10 1515.37   4
  -1  -8  -1 7528.07 1261.84  21
  -1  -8  -1 5767.28 716.972  17
  -1  -8  -2 9159.88 943.633  17
  -1  -8  -2 10599.0 1411.63  21
  -1  -8  -3 369.396 195.129  17
  -1  -8  -3 842.465 390.840  21
  -1  -8  -4 7579.92 839.266  17
  -1  -8  -4 7602.56 1067.46  21
   1   8   5 3998.78 662.792  25
  -1  -8  -5 3869.49 573.086  17
  -1  -8  -6 364.578 198.745  17
   1   8   6-51.7185 138.745  25
  -1  -8  -7 835.151 213.258  17
  -1  -9   8 4787.23 385.326  22
  -1  -9   8 5743.33 452.653  14
  -1  -9   7-8.14575 68.4727  22
  -1  -9   7 195.751 124.434  14
  -1  -9   6 7123.30 697.062  22
  -1  -9   6 7530.06 703.752  14
  -1  -9   5 474.633 242.348  10
  -1  -9   5 1429.63 338.473  14
  -1  -9   4 1289.95 406.496  10
  -1  -9   3 380.670 224.803  10
   1   9  -2 9696.69 1092.37  25
  -1  -9   2 9351.07 1411.02  21
  -1  -9   1 7024.36 1171.10  21
   1   9  -1 6158.75 922.144  25
  -1  -9   0 3068.63 498.460  17
   1   9   0 2536.78 608.594  25
  -1  -9   0 3452.93 881.508  21
  -1  -9  -1 9678.01 920.990  17
  -1  -9  -1 10301.6 1397.36  21
   1   9   1 10049.0 1206.30  25
  -1  -9  -2 7482.42 819.933  17
  -1  -9  -2 8993.14 1242.29  21
   1   9   2 9071.34 1131.73  25
  -1  -9  -3 10993.8 980.586  17
  -1  -9  -3 11194.8 1314.14  21
   1   9   3 14190.6 1362.76  25
  -1  -9  -4 8718.26 832.533  17
  -1  -9  -4 7968.43 959.723  21
   1   9   4 9282.12 1022.45  25
   1   9   5 491.310 235.899  25
  -1  -9  -5 389.209 165.870  17
  -1  -9  -6 2852.20 363.147  17
  -1 -10   7 889.247 145.609  22
  -1 -10   7 1372.45 192.206  14
  -1 -10   6 4234.37 425.442  22
  -1 -10   6 4624.89 448.122  14
  -1 -10   5 240.240 94.1164  10
  -1 -10   5 778.279 212.764  22
  -1 -10   5 885.832 222.926  14
  -1 -10   4 1201.30 296.132  14
  -1 -10   4 756.962 228.981  10
  -1 -10   3 750.528 349.393  10
  -1 -10   2 4361.56 717.512  10
  -1 -10   1 862.975 485.358  21
   1  10  -1 1023.32 338.676  25
   1  10   0 12147.0 1250.11  25
  -1 -10   0 10315.7 1370.01  21
  -1 -10  -1 2778.07 702.821  21
   1  10   1 3892.32 691.822  25
  -1 -10  -1 3507.21 488.947  17
  -1 -10  -2 6696.41 666.654  17
  -1 -10  -2 4932.91 828.245  21
   1  10   2 6472.93 857.316  25
  -1 -10  -3 9732.09 765.637  17
   1  10   3 10606.5 1021.79  25
  -1 -10  -4 575.926 175.744  17
   1  10   4 496.590 236.904  25
  -1 -10  -5 847.353 172.068  17
  -1 -11   5 1158.22 175.461  14
  -1 -11   5 880.075 149.562  22
  -1 -11   4 239.905 110.239  22
  -1 -11   4 112.324 71.5670  14
  -1 -11   4 7.45871 75.3005  10
  -1 -11   3 446.718 143.598  14
  -1 -11   3 73.0993 117.384  10
  -1 -11   2 1048.67 286.987  10
  -1 -11   1 6042.34 685.825  10
  -1 -11   0 2171.55 429.214  10
  -1 -11  -1 2068.08 404.465  10
   1  11   2 6064.90 651.038  25
  -1 -11  -2 6414.64 629.122  10
  -1 -11  -3 1162.54 221.405  10
  -2  12   2 992.163 237.040  26
  -2  12   1 1713.09 316.278  26
  -2  12   0 124.110 51.8244  26
   2 -12   1 1190.62 176.412  22
   2 -11  -5-36.2890 58.0890  17
   2 -11  -4 1031.25 231.931  17
   2 -11  -3 525.891 171.346  17
   2 -11  -3 244.439 80.0920  10
   2 -11  -2 1243.84 255.294  10
   2 -11  -1 11.2331 142.676  10
   2 -11   0 6540.94 727.702  10
   2 -11   1 7719.00 814.349  10
  -2  11  -1 9681.15 1002.32  26
  -2  11  -2 587.551 206.968  26
   2 -11   3 7597.34 601.092  22
   2 -11   4 1802.30 250.204  22
   2 -10  -6 792.537 198.765  17
   2 -10  -5 3443.36 481.156  17
   2 -10  -4 1321.01 333.184  17
   2 -10  -3 3900.06 588.347  17
   2 -10  -3 4312.06 596.259  10
   2 -10  -2 169.010 204.211  17
   2 -10  -2 389.409 211.062  10
   2 -10  -1 10419.5 991.462  17
   2 -10  -1 11288.2 1101.86  10
   2 -10   0 18486.9 1458.83  10
   2 -10   1-19.7956 161.752  10
  -2  10  -2 4630.58 793.273  26
   2 -10   2 3986.96 691.686  10
  -2  10  -3 5157.13 723.951  26
   2 -10   4 759.374 231.172  22
   2 -10   5 2381.23 348.702  22
   2 -10   6 178.643 87.4971  22
   2  -9  -7 1873.78 310.691  17
  -2   9   7 1284.66 197.925   8
   2  -9  -6 3375.39 495.919  17
   2  -9  -5 1824.85 398.882  17
   2  -9  -4 21.2449 142.273  17
   2  -9  -3 151.488 228.737  10
   2  -9  -3 235.266 204.853  17
   2  -9  -2 8710.58 973.232  17
   2  -9  -2 11260.0 1118.05  10
   2  -9  -1 14165.9 1237.53  17
   2  -9  -1 17000.3 1434.58  10
   2  -9   0 1150.98 364.665  17
   2  -9   0 1247.60 431.374  10
   2  -9   1 15374.7 1454.46  10
   2  -9   2-209.202 248.741  10
  -2   9  -3 1737.19 493.309  26
   2  -9   3 1518.49 460.908  10
   2  -9   4 4986.58 701.056  22
   2  -9   5 194.835 130.406  22
   2  -9   6 546.394 181.970  22
   2  -9   7 358.753 110.692  22
   2  -8  -8 1780.31 286.487  17
   2  -8  -7 269.120 173.451  17
  -2   8   7 76.8041 129.753   9
  -2   8   6 4340.03 752.712   9
   2  -8  -6 5776.08 709.782  17
   2  -8  -5 645.955 314.537  17
  -2   8   5 394.458 219.352  25
  -2   8   5 530.692 253.652   9
  -2   8   4 685.127 365.507  25
   2  -8  -4 141.970 113.415  17
   2  -8  -3 4892.51 711.045  17
  -2   8   3 4074.75 779.465  25
  -2   8   2 6188.11 958.644  25
   2  -8  -2 7424.37 904.652  10
   2  -8  -2 5466.15 762.975  17
   2  -8  -1 847.193 366.462  10
   2  -8  -1 250.337 215.421  17
  -2   8   1 1333.69 873.310   4
   2  -8   0 10848.2 1080.28  17
   2  -8   0 13150.7 1275.62  10
  -2   8  -1 8576.58 2478.68   3
   2  -8   1 10257.7 1028.94  17
   2  -8   2 1861.47 495.216  10
   2  -8   3 973.810 421.574   5
  -2   8  -3 1407.35 449.208  26
   2  -8   3 518.261 205.645  10
   2  -8   4 242.561 386.632   5
   2  -8   5 811.713 287.719  22
   2  -8   5 938.426 464.097   5
   2  -8   6 1141.35 504.660   5
   2  -8   6 1203.24 321.213  22
   2  -8   7 3498.31 454.755  22
   2  -8   8 697.744 159.063  22
  -2   7   9 4481.65 636.347   9
   2  -7  -8 74.8220 142.914  17
  -2   7   8-82.8550 135.072   9
   2  -7  -7 169.499 145.449  17
  -2   7   7 772.460 374.429   9
  -2   7   6 109.609 183.543   9
   2  -7  -6 121.354 126.264  17
  -2   7   5 763.099 395.875   9
   2  -7  -5 271.431 158.670  17
  -2   7   5 530.958 217.278  25
  -2   7   4 121.847 186.291   9
   2  -7  -4 208.474 145.793  17
  -2   7   4-282.084 416.353   4
  -2   7   4-11.2473 249.739  25
  -2   7   3 1631.56 462.838  25
  -2   7   3 982.542 371.184   9
  -2   7   3 1577.39 880.379   4
   2  -7  -3 1249.79 364.210  17
   2  -7  -2 1838.61 408.334  17
  -2   7   2 1593.69 922.471   4
  -2   7   2 1547.89 455.582  25
   2  -7  -1 57223.0 2264.74  17
  -2   7   1 49293.4 2503.42  25
  -2   7   1 52150.0 5240.31   4
  -2   7   0 35851.4 4244.13   4
   2  -7   1 1738.07 632.393   5
   2  -7   1 2541.16 587.947  10
   2  -7   1 1632.69 407.883  17
  -2   7  -1 1135.83 1033.51   3
   2  -7   2 15819.2 1429.03  10
  -2   7  -2 11104.7 2767.29   3
   2  -7   2 15258.4 1848.27   5
   2  -7   3 11338.9 1295.49  10
  -2   7  -3 11384.6 2770.01   3
   2  -7   3 12142.1 1698.11   5
  -2   7  -3 12141.7 1329.09  26
   2  -7   4 7717.76 1422.09   5
   2  -7   5 6015.56 784.823  22
   2  -7   5 4493.93 1064.39   5
   2  -7   6 4131.02 933.272   5
   2  -7   6 5330.26 703.278  22
   2  -7   7 892.335 268.291  22
   2  -7   7 983.460 342.371  23
   2  -7   7 958.582 441.580   5
   2  -7   8 2182.57 352.182  22
   2  -7   8 1829.84 341.317  23
   2  -7   9 7471.42 459.227  22
  -2   6  10 5410.45 666.984   9
  -2   6   9 2721.42 580.963   9
  -2   6   8 5571.32 855.600   9
   2  -6  -8 5854.97 636.511  17
  -2   6   7 247.765 230.911   9
   2  -6  -7 584.559 236.798  17
  -2   6   6 1440.04 494.299   9
   2  -6  -6 1648.72 395.822  17
  -2   6   5 11841.5 1253.61   9
   2  -6  -5 11031.1 964.908  17
  -2   6   4 1924.95 937.538   4
  -2   6   3 26.8360 344.789   4
  -2   6   2 25482.8 3403.13   4
  -2   6   2 35033.0 2648.93   2
  -2   6   1 38193.9 4177.85   4
   2  -6   0 71.4313 180.303   5
  -2   6   0 967.530 679.701   4
   2  -6   1 59237.8 3221.00   5
  -2   6  -2 12214.4 2780.90   3
   2  -6   2 13886.2 1638.39   5
   2  -6   3 2628.39 522.283  10
  -2   6  -3 2797.82 1424.58   3
   2  -6   3 2284.23 757.457   5
  -2   6  -4 9173.53 2441.44   3
   2  -6   4 9828.82 1504.98   5
   2  -6   5 6695.34 1266.26   5
   2  -6   5 6260.43 796.397  22
   2  -6   6 9558.48 994.830  22
   2  -6   6 9393.20 1459.15   5
   2  -6   7 57.9018 255.851   5
   2  -6   7 324.606 279.400  23
   2  -6   7 118.879 105.209  22
   2  -6   8 16427.9 1226.75  23
   2  -6   8 16548.7 1082.45  22
   2  -6   8 14954.6 1381.13   5
   2  -6   9 3399.07 402.852  22
   2  -6   9 3130.10 427.461  23
  -2   5  11 422.715 161.522   9
  -2   5  10 4529.13 693.284   9
  -2   5   9 9928.61 1180.75   9
  -2   5   9 11119.7 1046.98   6
  -2   5   8 459.778 337.896   9
  -2   5   8 282.439 189.973   6
  -2   5   7 1044.69 463.811   9
  -2   5   7 1423.27 400.642   6
  -2   5   6 24263.0 1550.04   6
  -2   5   6 26150.0 1881.32   9
   2  -5  -6 23617.0 1327.87  17
  -2   5   5 24395.0 1444.57   6
  -2   5   4 297.242 405.525   4
  -2   5   3 24525.3 3096.46   4
  -2   5   3 34414.0 2431.23   2
  -2   5   2 27553.1 3218.36   4
  -2   5   1 6361.91 1590.83   4
   2  -5   0 95980.6 3449.82   5
  -2   5   0 106272. 6245.60   4
  -2   5  -1 89003.6 6641.91   3
   2  -5   1 91439.6 3580.12   5
  -2   5  -2-135.409 283.342   3
  -2   5  -3 8223.08 2290.64   3
  -2   5  -4 188.915 381.412   3
  -2   5  -5 15786.3 3148.35   3
   2  -5   5 17199.5 1246.29  22
   2  -5   6 508.467 223.273  22
   2  -5   7 8824.67 929.900  22
   2  -5   8 4101.57 691.188  23
   2  -5   8 4025.04 567.048  22
   2  -5   9 3687.41 544.673  23
   2  -5   9 4182.51 507.635  22
  -2   4  11 2457.09 438.490   9
  -2   4  10 17362.9 1431.21   9
  -2   4  10 24280.2 1484.52   6
  -2   4   9 7701.55 929.704   6
  -2   4   9 6415.27 967.524   9
  -2   4   8 2783.10 582.948   6
  -2   4   8 2938.09 683.322   9
  -2   4   7 6356.20 940.306   9
  -2   4   7 5069.97 797.149   6
  -2   4   6 1098.80 322.060   6
  -2   4   5-31.4944 90.4631   6
  -2   4   4 10036.0 1207.95   2
  -2   4   4 11389.2 1875.64   4
  -2   4   3 14620.8 1522.18   2
  -2   4   3 14580.2 2111.51   4
  -2   4   2 7956.46 1579.57   4
  -2   4   1 160925. 6962.23   4
  -2   4   0 34783.0 3226.01   4
  -2   4  -1-113.910 318.184   3
  -2   4  -2 21637.2 3139.27   3
  -2   4  -3 1252.63 823.490   3
  -2   4  -4-69.5807 512.138   3
   2  -4   5 209.471 169.812  22
  -2   4  -5-50.6918 225.233   3
  -2   4  -6 7096.90 1955.44   3
   2  -4   6 8182.80 880.366  22
   2  -4   7 391.263 216.150  22
   2  -4   8 4088.26 624.830  22
   2  -4   8 4552.09 745.194  23
   2  -4   9 14343.5 1150.17  23
   2  -4   9 14273.5 1023.68  22
   2  -4  10 360.456 129.056  22
  -2   3  11 7698.79 800.886   9
  -2   3  10 6878.17 840.267   6
  -2   3  10 5267.95 810.081   9
  -2   3   9 6247.89 886.876   6
  -2   3   9 5352.18 885.817   9
  -2   3   8 10419.0 1230.42   9
  -2   3   8 10080.7 1134.92   6
  -2   3   8 7052.63 880.835  22
  -2   3   7 4395.99 749.808   9
  -2   3   7 4248.66 709.558   6
  -2   3   6 1936.45 444.690   6
  -2   3   5 13487.0 1356.55   2
  -2   3   4 5141.24 827.764   2
  -2   3   3 2127.47 552.552   2
  -2   3   3 2449.09 792.386   4
  -2   3   2 23151.7 2367.67   4
  -2   3   2 18494.3 1528.17   2
  -2   3   1 34258.3 2841.30   4
  -2   3   0 607.234 485.680   3
  -2   3  -1 22471.3 2809.69   3
  -2   3  -2 6442.99 1561.46   3
  -2   3  -3 458.963 481.046   3
  -2   3  -4 26423.8 3533.32   3
  -2   3  -5 4368.11 1453.03   3
   2  -3   6 5594.29 709.789  22
  -2   3  -6 5483.91 1706.47   3
   2  -3   7 29275.4 1707.26  22
   2  -3   8 6319.79 911.512  23
   2  -3   8 5557.18 739.569  22
   2  -3   9 7281.62 779.899  22
   2  -3   9 6829.58 821.706  23
   2  -3  10 787.996 209.639  22
  -2   2  11 628.626 249.818   9
  -2   2  11 1489.57 364.198   6
  -2   2  10 9437.12 1029.39   6
  -2   2  10 7782.62 957.273   9
  -2   2   9 548.215 253.536  22
  -2   2   9 1341.84 431.086   9
  -2   2   9 886.415 341.238   6
  -2   2   8 7175.25 976.949   9
  -2   2   8 8075.44 987.877   6
  -2   2   8 6207.12 760.705  22
  -2   2   7 1245.60 400.500   6
  -2   2   6 2872.25 673.759   2
  -2   2   6 2538.46 481.604   6
  -2   2   5 607.550 284.525   2
  -2   2   4 289.617 213.524   2
  -2   2   3 35152.0 1964.28   2
  -2   2   3 18282.1 1045.18   3
  -2   2   2 20706.8 1553.46   3
  -2   2   2 19820.9 1486.64   2
  -2   2   1 5019.45 929.740   3
  -2   2   0 69402.8 3844.77   3
  -2   2  -1 12001.2 1820.10   3
  -2   2  -2 15443.0 2134.30   3
  -2   2  -3 13356.4 2165.57   3
  -2   2  -4 6043.19 1518.94   3
  -2   2  -5 6152.28 1669.08   3
  -2   2  -6 9340.89 2054.35   3
   2  -2   6 9358.00 900.537  22
   2  -2   7 21513.5 1479.74  22
   2  -2   8 53301.6 2562.66  23
   2  -2   8 53829.1 2361.35  22
   2  -2   9 10778.2 1024.86  23
   2  -2   9 11274.4 1015.85  22
   2  -2  10 9209.48 745.904  22
  -2   1  12 175.355 66.5827  16
  -2   1  11 2484.77 364.559  16
  -2   1  11 3259.32 528.550   6
  -2   1  10 5637.44 753.149  22
  -2   1  10 7984.19 951.246   6
  -2   1  10 7139.37 754.017  13
  -2   1   9 2039.92 435.010  22
  -2   1   9 2302.88 554.323   9
  -2   1   9 2165.22 471.867  13
  -2   1   9 2411.42 551.585   6
  -2   1   8 672.849 324.932   9
  -2   1   8 872.803 270.463  22
  -2   1   8 1057.18 328.388  13
  -2   1   8 1017.74 378.954   6
  -2   1   7 239.290 211.734   6
  -2   1   6 1428.76 460.616   2
  -2   1   6 1042.37 298.120   6
  -2   1   5 18924.4 1601.65   2
  -2   1   4 124430. 3762.91   2
  -2   1   3 5295.30 694.035   1
  -2   1   3 5772.63 763.076   2
  -2   1   2 20271.7 1054.97   1
  -2   1   2 21597.2 947.352   3
  -2   1   2 22606.4 1437.58   2
  -2   1   1 53497.2 1316.52   1
  -2   1   1 56189.3 2216.49   2
  -2   1   1 56071.8 2342.51   3
  -2   1   0 539804. 9027.09   3
  -2   1  -1 2677.74 725.850   3
  -2   1  -2 24701.0 2464.18   3
  -2   1  -3-77.7921 303.009   3
  -2   1  -4 28241.9 3184.01   3
  -2   1  -5 141.068 163.729   3
  -2   1  -6 22518.8 3050.43   3
   2  -1   6 27180.6 1544.82  22
   2  -1   7 7044.91 917.192  23
   2  -1   7 6041.75 808.931  22
   2  -1   8 10307.3 1071.11  22
   2  -1   8 11041.7 1121.34  23
   2  -1   9 12276.1 1055.86  23
   2  -1   9 13273.0 1150.09  22
   2  -1  10 266.305 147.792  22
  -2   0  11 11550.3 860.798  22
  -2   0  11 12577.5 783.352  16
  -2   0  11 13433.6 926.501  13
  -2   0  11 14636.5 1084.05   6
  -2   0  10 1441.95 319.594  16
  -2   0  10 1981.01 425.624  13
  -2   0  10 1391.29 342.821  22
  -2   0  10 1623.94 422.194   6
  -2   0   9 1781.84 416.753  22
  -2   0   9 1492.27 402.441   6
  -2   0   8 2529.83 462.078  14
  -2   0   8 2383.40 523.104   6
  -2   0   7 1680.53 396.583   6
  -2   0   6 465.040 294.643   2
  -2   0   6 436.156 194.525   6
  -2   0   5 7216.11 1021.00   2
  -2   0   5 7295.85 1119.65   1
  -2   0   4 1656.03 486.623   1
  -2   0   4 1575.35 439.654   2
  -2   0   3 31721.4 1716.77   1
  -2   0   3 31392.8 1729.38   2
  -2   0   2 235993. 3958.05   1
  -2   0   2 240837. 4450.15   2
  -2   0   1 704608. 7116.00   2
  -2   0   1 674391. 7291.24   3
  -2   0   0 232505. 3974.32   2
  -2   0   0 229515. 5258.66   3
  -2   0  -1 20346.3 1855.71   3
  -2   0  -2 469.595 229.770   3
  -2   0  -3 8396.66 1476.27   3
  -2   0  -4 28366.7 2924.14   3
  -2   0  -5 11535.3 2010.47   3
  -2   0  -6 7581.49 1713.89   3
   2   0   6 7466.27 830.861  22
   2   0   7 3187.90 598.415  22
   2   0   7 3431.72 602.764  23
   2   0   8 11582.1 1150.18  22
  -2   0  -8 10657.8 866.381  17
   2   0   8 10969.3 1049.06  23
   2   0   9 2223.71 491.684  22
  -2   0  -9 2061.16 335.660  17
   2   0  10 974.230 247.547  22
   2   0  10 1482.53 297.443   9
  -2  -1  12 1798.62 247.928  13
  -2  -1  11 3290.31 370.032  16
  -2  -1  11 4064.28 539.825  13
  -2  -1  10 10342.6 824.249  16
  -2  -1  10 11259.8 1037.72   6
  -2  -1  10 12655.9 1095.71  13
  -2  -1  10 11325.1 947.024  22
  -2  -1   9 21527.7 1432.11  14
  -2  -1   9 20773.8 1477.44   6
  -2  -1   9 20282.7 1227.75  16
  -2  -1   9 24105.9 1393.90  22
  -2  -1   8 1188.86 376.078   6
  -2  -1   8 955.859 281.924  14
  -2  -1   7 1110.28 317.970   6
  -2  -1   6 5823.35 1055.90   2
  -2  -1   6 4904.99 583.877   6
  -2  -1   5 12364.7 1462.61   1
  -2  -1   5 12418.7 1394.17   2
  -2  -1   4 6100.22 887.966   2
  -2  -1   4 7065.03 972.277   1
   2   1  -4 7235.68 800.066   4
  -2  -1   3 41784.7 2075.91   2
  -2  -1   3 40952.3 2120.30   1
  -2  -1   2 29246.3 1544.15   2
  -2  -1   1 7063.71 671.619   2
  -2  -1   0 805.326 360.724   3
  -2  -1   0 889.893 213.385   2
  -2  -1  -1 23896.8 2010.07   3
  -2  -1  -1 24965.5 1017.75   2
  -2  -1  -2 4994.73 1018.00   3
   2   1   3 953.924 442.242   4
  -2  -1  -3 1174.76 581.574   3
  -2  -1  -4 53089.9 3986.92   3
  -2  -1  -5 159.038 208.419   3
   2   1   6 1096.06 355.945  22
  -2  -1  -6 1409.80 716.108   3
  -2  -1  -7 9871.54 915.955  17
   2   1   7 10703.0 1151.93  22
  -2  -1  -8 57.9013 113.105  17
   2   1   8 17.7673 114.724  22
  -2  -1  -9 1044.60 235.137  17
   2   1   9 826.295 292.595  22
   2   1  10 5649.63 566.267   9
  -2  -2  12 612.342 174.170  13
  -2  -2  11 9020.37 823.853  13
  -2  -2  10 10764.2 770.082  16
  -2  -2  10 12706.1 975.161  22
  -2  -2  10 11831.6 1034.68  14
  -2  -2   9 687.177 213.732  22
  -2  -2   9 695.905 286.135   6
  -2  -2   9 1042.93 268.594  16
  -2  -2   9 821.538 294.674  14
  -2  -2   8 35765.9 1543.55  16
  -2  -2   8 38434.7 1792.43  14
  -2  -2   8 33522.2 1683.76   6
  -2  -2   7 331.834 190.314   6
  -2  -2   6 17846.2 2033.85   1
  -2  -2   6 12926.1 892.208   6
  -2  -2   5-73.4913 222.340   1
  -2  -2   5 181.218 208.484   2
   2   2  -4 50730.4 2380.27   4
  -2  -2   4 43895.3 2491.37   2
  -2  -2   4 49367.4 2751.48   1
  -2  -2   3 1991.50 483.472   2
   2   2  -3 2864.89 595.840   4
   2   2  -2 28039.4 2043.14   4
  -2  -2   2 23914.0 1475.18   2
   2   2  -1 50312.6 2782.64   4
  -2  -2   1 40522.8 1702.89   2
   2   2   0 43964.5 2742.09   4
  -2  -2   0 41043.2 1366.81   2
   2   2   1 8638.60 1318.71   4
  -2  -2  -1 9257.05 1360.79   3
   2   2   2 6105.73 1142.17   4
  -2  -2  -2 6138.33 1200.88   3
  -2  -2  -3 3625.32 1045.34   3
   2   2   3 4232.66 986.208   4
  -2  -2  -4 485.799 493.043   3
  -2  -2  -6 8025.96 786.926  17
   2   2   6 6726.53 888.513  22
  -2  -2  -7 1024.29 270.928  17
   2   2   7 634.699 309.335  22
   2   2   8 2219.49 525.913  22
  -2  -2  -8 2568.02 446.186  17
  -2  -2  -9 18159.6 948.939  17
   2   2  10 48.5288 84.1817   9
  -2  -3  12 1099.69 200.764  13
  -2  -3  11 10436.5 865.890  13
  -2  -3  10 4488.58 631.914  14
  -2  -3  10 5223.15 586.947  22
  -2  -3   9-32.4164 126.356  22
  -2  -3   9 38.1059 104.324  14
  -2  -3   8 131.236 140.795  16
  -2  -3   8 247.977 149.458  14
  -2  -3   7 3291.53 491.814  14
  -2  -3   7 2710.56 522.508  23
  -2  -3   6 7047.41 1305.32   1
  -2  -3   5 44577.6 3019.80   1
  -2  -3   4 4097.40 864.242   1
   2   3  -4 3889.12 772.575   4
   2   3  -3 613.095 326.883   4
   2   3  -2 55163.6 3247.30   4
   2   3  -1 12320.0 1583.94   4
   2   3   0-28.9046 129.724   4
   2   3   1 13429.4 1808.26   4
   2   3   2 314.984 296.419   4
   2   3   3 387.906 199.010   4
  -2  -3  -4 1904.59 529.214   7
  -2  -3  -5 28984.0 1450.38  17
   2   3   5 23906.9 1640.44  22
   2   3   6 2892.45 622.441  22
  -2  -3  -6 2853.14 517.023  17
  -2  -3  -7 3357.35 537.904  17
   2   3   7 2732.33 603.064  22
  -2  -3  -8 11763.3 926.624  17
  -2  -3  -9 613.065 177.845  17
  -2  -4  11 178.944 134.392  13
  -2  -4  10 4372.38 592.392  14
  -2  -4   9 1573.72 387.895  14
  -2  -4   9 1585.70 319.690  22
  -2  -4   8 342.889 214.015  14
  -2  -4   7 982.122 289.941  19
  -2  -4   7 1409.30 672.589   1
  -2  -4   7 817.932 259.092  14
  -2  -4   6 30695.1 2839.52   1
  -2  -4   5 36899.7 2901.10   1
   2   4  -4 142.256 396.486   4
  -2  -4   4-98.6298 254.727   1
   2   4  -3 44432.6 3290.83   4
   2   4  -2 11992.1 1767.53   4
   2   4  -1 14750.5 2012.04   4
   2   4   0 73497.2 4623.13   4
   2   4   1 602.175 493.926   4
   2   4   2 2010.52 786.376   4
   2   4   3 844.629 561.893   4
  -2  -4  -4 14027.3 997.981  17
  -2  -4  -5 19986.0 1285.14  17
  -2  -4  -6 1686.09 407.704  17
  -2  -4  -7 9098.35 878.053  17
  -2  -4  -8 1818.62 343.758  17
   2   4   9 616.546 213.839   9
  -2  -4  -9 566.822 152.179  17
  -2  -5  11 8178.77 657.821  13
  -2  -5  10 7853.09 752.408  14
  -2  -5   9 341.829 165.961  22
  -2  -5   9 375.338 203.010  14
  -2  -5   8 107.429 104.866  14
  -2  -5   8 153.705 149.172  22
  -2  -5   7 6013.91 730.656  14
  -2  -5   7 6326.20 670.097  19
  -2  -5   6 27233.8 2721.37   1
  -2  -5   6 26396.6 1243.97  19
  -2  -5   6 28557.4 1474.10  14
  -2  -5   5 1159.23 574.567   1
  -2  -5   4 55400.6 3641.12   1
   2   5  -3 23597.3 2740.94   4
   2   5  -2 1911.46 771.195   4
   2   5  -1 19289.9 2643.90   4
   2   5   0 4016.35 1186.22   4
   2   5   1 1158.14 682.269   4
   2   5   2 1038.45 802.504   4
   2   5   3 9406.88 2026.74   4
  -2  -5  -3 11689.2 915.580  17
  -2  -5  -4 9879.17 918.422  17
  -2  -5  -4 13301.9 1535.69  20
  -2  -5  -5 12711.9 1080.83  17
  -2  -5  -5 14527.4 1464.45   7
  -2  -5  -6 1002.34 349.020  17
  -2  -5  -7 3694.43 549.140  17
  -2  -5  -8 2635.44 397.134  17
   2   5   8 2563.49 470.087   9
  -2  -6  11 2642.76 295.085  13
  -2  -6  10 103.862 87.6589  14
  -2  -6   9 2285.13 428.871  14
  -2  -6   8 2522.65 470.010  14
  -2  -6   8 2838.32 441.194  22
  -2  -6   7 1944.53 389.006  22
  -2  -6   7 1604.73 379.962  14
  -2  -6   6 369.431 255.534  19
  -2  -6   6 319.612 123.128  14
  -2  -6   6 803.677 467.366   1
  -2  -6   5 47902.5 1675.90  19
  -2  -6   5 46806.9 3541.96   1
  -2  -6   4 26578.8 1160.66  19
  -2  -6   4 26957.6 2608.55   1
   2   6  -3 124.648 250.487   4
   2   6  -2 20011.8 2893.42   4
   2   6  -1 5884.85 1629.05   4
   2   6   0 928.053 660.315   4
   2   6   1 717.651 555.543   4
  -2  -6  -2 672.654 376.517  20
  -2  -6  -2 588.243 220.389  17
   2   6   2-107.897 389.907   4
  -2  -6  -3 112.595 284.391  20
  -2  -6  -3 9.26050 146.412  17
  -2  -6  -4 1931.09 640.610  20
  -2  -6  -4 2252.90 464.127  17
  -2  -6  -5 1092.41 325.888  17
  -2  -6  -5 1444.08 498.083   7
   2   6   6-39.1479 89.1007   9
  -2  -6  -6-96.0926 154.782  17
   2   6   7 1150.81 322.034   9
  -2  -6  -7 1422.27 314.806  17
   2   6   8 1739.20 305.632   9
  -2  -6  -8 2166.63 300.108  17
  -2  -7  10 270.251 107.631  14
  -2  -7  10 104.717 70.6673  13
  -2  -7   9 546.167 200.200  14
  -2  -7   8 313.192 169.437  14
  -2  -7   7 580.263 192.583  22
  -2  -7   7 403.061 214.367  14
  -2  -7   6 12708.2 1056.19  14
  -2  -7   6 12431.0 970.134  22
  -2  -7   5 6958.39 684.224  19
  -2  -7   4 4114.66 844.840  21
  -2  -7   4 5525.70 1182.59   1
  -2  -7   4 5845.72 603.866  19
  -2  -7   3 3201.46 741.467  21
  -2  -7   3 3614.75 949.782   1
   2   7  -3 1539.36 835.914   4
  -2  -7   3 3021.81 401.653  19
  -2  -7   2 7465.68 1189.14  21
  -2  -7   2 4287.48 993.502  20
   2   7  -2 4687.96 1518.78   4
  -2  -7   1 3228.11 801.022  20
   2   7  -1 1495.50 875.684   4
   2   7   0-5.81679 143.801   4
  -2  -7   0-664.482 413.014  20
  -2  -7  -1 896.984 458.601  20
  -2  -7  -1 1631.83 362.841  17
   2   7   1 320.170 446.006   4
  -2  -7  -2-161.635 357.891  20
  -2  -7  -2-66.5740 115.446  17
  -2  -7  -3 2561.74 496.958  17
  -2  -7  -3 2457.61 803.854  20
  -2  -7  -4 4610.75 992.254  20
  -2  -7  -4 5562.29 725.345  17
  -2  -7  -5 2125.44 458.739  17
  -2  -7  -5 1903.33 487.168   7
  -2  -7  -6 2794.48 463.382  17
   2   7   6 3340.06 521.044  25
  -2  -7  -7 3764.58 434.894  17
  -2  -8   9 482.200 154.008  14
  -2  -8   8 72.0722 126.854  14
  -2  -8   7 3855.24 533.122  14
  -2  -8   7 3471.94 442.191  22
  -2  -8   6 9040.83 785.580  22
  -2  -8   6 10247.6 917.773  14
  -2  -8   5 247.297 177.868  14
  -2  -8   4 6258.69 1038.13  21
  -2  -8   4 10472.1 1037.63  10
  -2  -8   3 5007.53 951.713  21
  -2  -8   2 96.2181 283.170  21
   2   8  -2 41.6508 149.375  25
  -2  -8   1 6341.63 1171.45  21
   2   8  -1 6622.21 959.036  25
  -2  -8   0 253.285 391.954  20
  -2  -8   0 274.970 260.638  21
  -2  -8  -1 223.607 170.350  17
  -2  -8  -1 159.643 302.125  20
  -2  -8  -1 15.6653 249.321  21
  -2  -8  -2 1701.24 631.355  20
  -2  -8  -2 2572.88 481.638  17
  -2  -8  -3 8163.40 1158.66  21
  -2  -8  -3 10024.0 940.925  17
  -2  -8  -4 1276.59 397.335  21
  -2  -8  -4 1046.77 287.929  17
  -2  -8  -4 875.239 349.235   7
  -2  -8  -5 4371.74 562.503  17
   2   8   5 4646.26 652.374  25
   2   8   6 2707.64 374.782  25
  -2  -8  -6 3647.29 432.377  17
  -2  -9   8 2325.45 303.725  14
  -2  -9   7 2880.61 400.354  14
  -2  -9   6 369.209 151.143  22
  -2  -9   6 447.289 193.706  14
  -2  -9   5 21562.4 1283.61  14
  -2  -9   4 6453.73 791.800  10
  -2  -9   3 1239.54 510.955  21
  -2  -9   3 2627.66 539.391  10
  -2  -9   2 16868.5 1840.59  21
   2   9  -2 19223.0 1468.51  25
  -2  -9   1 308.662 326.197  21
   2   9  -1 412.875 255.417  25
  -2  -9   0 569.112 400.935  21
   2   9   0 155.503 216.221  25
  -2  -9  -1 95.6063 312.544  21
   2   9   1 182.917 255.720  25
  -2  -9  -2 2369.40 422.016  17
   2   9   2 3962.88 736.341  25
  -2  -9  -2 3209.70 743.367  21
  -2  -9  -3 3404.64 685.501  21
  -2  -9  -3 2810.35 432.405  17
   2   9   3 3843.18 693.260  25
  -2  -9  -4 1498.00 388.177  21
  -2  -9  -4 1453.52 288.686  17
  -2  -9  -4 1870.03 472.430   7
   2   9   4 1715.13 407.416  25
  -2  -9  -5 6342.94 520.030  17
   2   9   5 6306.59 594.318  25
  -2 -10   7 218.151 90.7830  14
  -2 -10   6 11683.5 716.111  14
  -2 -10   5 10954.4 776.737  14
  -2 -10   4-172.969 160.598  10
  -2 -10   4 59.0676 53.3591  14
  -2 -10   3 3321.21 528.216  10
  -2 -10   2 2615.09 610.945  21
  -2 -10   2 4969.28 693.083  10
   2  10  -1 2416.88 508.426  25
  -2 -10   1 1530.25 514.638  21
  -2 -10   0 442.817 286.760  21
   2  10   0 241.368 212.604  25
  -2 -10  -1 589.094 359.336  21
   2  10   1 829.534 336.892  25
  -2 -10  -2 790.680 305.572  21
   2  10   2 736.076 313.322  25
  -2 -10  -2 729.396 321.621   7
  -2 -10  -3 1334.41 340.934  21
  -2 -10  -3 2023.41 268.034  17
   2  10   4 2781.29 366.907  25
  -2 -11   5 0.88121 23.7458  14
  -2 -11   4 3446.42 353.767  14
  -2 -11   3 471.302 149.971  10
  -2 -11   3 1108.14 221.412  14
  -2 -11   2 442.204 171.389  10
  -2 -11   1 662.696 228.380  10
  -2 -11   0 190.019 166.088  10
  -2 -11  -1 232.550 160.395  10
   2  11   1-118.288 73.6508  25
  -2 -11  -2 314.484 128.575  10
  -3  11   4 960.803 236.579  26
  -3  11   3 1001.82 313.889  26
  -3  11   2 2382.25 491.061  26
  -3  11   1 188.088 146.515  26
  -3  11   0 955.244 311.372  26
  -3  11  -1 425.117 214.622  26
  -3  11  -2 1155.02 265.985  26
   3 -11   2 1834.90 248.735  22
   3 -11   3 28.4104 30.1733  22
   3 -10  -6 16074.8 817.555  17
   3 -10  -5 2729.56 396.569  17
  -3  10   5 2928.91 492.829  26
   3 -10  -4 1523.25 336.247  17
   3 -10  -3 6851.07 758.098  17
   3 -10  -2 327.590 125.518  10
   3 -10  -1 1065.77 338.701  10
   3 -10   0 642.192 284.810  10
  -3  10   0 631.579 301.431  26
   3 -10   1 597.368 249.853  10
  -3  10  -1 846.170 269.937  26
  -3  10  -2 587.765 316.928  26
   3 -10   3 3700.31 438.739  22
   3 -10   4 4715.90 433.287  22
   3 -10   5 83.2625 46.2104  22
   3  -9  -7 9156.92 638.589  17
  -3   9   7 9124.85 575.485   8
   3  -9  -6 897.415 241.245  17
   3  -9  -5 2197.21 429.474  17
   3  -9  -4 9904.30 967.049  17
   3  -9  -3 342.911 223.806  17
   3  -9  -2 428.002 247.672  10
   3  -9  -2 85.2474 155.768  17
   3  -9  -1 1321.62 345.709  10
   3  -9  -1 1935.29 446.638  17
   3  -9   0-178.682 230.896  10
   3  -9   1 138.619 220.529  10
  -3   9  -1 226.801 260.267  26
  -3   9  -2 15938.4 1596.51  26
   3  -9   3 985.255 274.007  22
  -3   9  -3 733.438 318.293  26
   3  -9   4 852.750 219.363  22
   3  -9   5 6460.04 567.917  22
   3  -9   6 1267.08 201.352  22
  -3   8   9-85.9757 85.4085  11
  -3   8   8 2957.27 318.425   8
   3  -8  -7 147.260 99.5667  17
   3  -8  -6 6591.50 743.718  17
   3  -8  -5 16680.0 1268.88  17
   3  -8  -4 2312.56 509.031  17
   3  -8  -3 2317.91 513.093  17
   3  -8  -2 2913.69 547.045  10
   3  -8  -2 2843.19 562.039  17
   3  -8  -1 510.004 299.600  10
   3  -8  -1 936.172 339.248  17
   3  -8   0-48.3269 217.248  10
   3  -8   1 17087.3 1526.77  10
  -3   8  -1 16794.3 1783.08  26
   3  -8   2 2288.92 852.433   5
   3  -8   2 2077.84 563.799  10
  -3   8  -2 2288.94 649.296  26
   3  -8   3 3330.91 918.452   5
   3  -8   3 3047.14 513.034  22
  -3   8  -3 2332.67 609.318  26
   3  -8   4 8746.49 838.391  22
   3  -8   4 6064.05 1202.40   5
   3  -8   5 4507.65 975.265   5
   3  -8   5 6026.77 646.480  22
   3  -8   6 1404.64 278.754  22
   3  -8   6 1047.18 443.715   5
   3  -8   6 1367.79 304.065  23
  -3   8  -6 529.267 169.617  12
   3  -8   7 279.818 98.5019  22
   3  -8   7 292.588 107.570  23
  -3   7   8 94.7658 103.642   8
  -3   7   8-19.4045 131.672   9
  -3   7   7 9214.34 1175.32   9
   3  -7  -7 10889.1 897.881  17
  -3   7   6 8464.01 1170.14   9
   3  -7  -6 10236.8 940.397  17
   3  -7  -5 3060.98 542.163  17
  -3   7   5 2505.27 635.976   9
   3  -7  -4 4099.83 632.481  17
   3  -7  -3 2313.53 486.765  17
   3  -7  -2 226.173 105.538  17
  -3   7   2 368.739 315.049   2
   3  -7  -1 1959.74 490.893  17
   3  -7  -1 2065.09 483.846  10
   3  -7   0 5689.42 1109.01   5
   3  -7   0 4807.06 737.225  10
   3  -7   0 4885.47 721.483  17
  -3   7   0 3256.49 1396.16   3
   3  -7   1 20348.1 1615.88  10
   3  -7   1 20640.1 2128.39   5
  -3   7  -1 14842.0 3104.21   3
   3  -7   2 708.882 469.380   5
   3  -7   2 584.465 329.480  10
  -3   7  -2 294.925 477.808   3
  -3   7  -2 1210.37 460.064  26
   3  -7   3 29140.6 2605.03   5
  -3   7  -3 25411.4 2021.42  26
   3  -7   4 22447.8 1391.41  22
   3  -7   4 17888.2 2087.72   5
   3  -7   5 646.066 409.204   5
   3  -7   5 656.827 252.158  22
   3  -7   6 1867.95 364.798  22
  -3   7  -6 887.762 270.664  12
   3  -7   6 1153.50 509.288   5
   3  -7   7 3039.34 634.164   5
   3  -7   7 4133.87 468.553  22
   3  -7   7 4339.46 552.522  23
   3  -7   8 1020.15 187.794  23
  -3   6   9 997.019 390.520   9
  -3   6   9 823.323 244.074   6
  -3   6   8 4175.77 818.567   9
  -3   6   8 4715.43 531.053   8
  -3   6   8 5897.67 732.375   6
  -3   6   7 12469.2 1431.49   9
  -3   6   7 13990.8 1174.74   6
  -3   6   6 42421.9 2602.95   9
   3  -6  -6 40182.6 1829.36  17
  -3   6   5 27655.1 2044.65   9
   3  -6  -5 31533.6 1634.78  17
  -3   6   4 17436.1 1568.85   9
   3  -6  -4 20934.9 1320.20  17
  -3   6   3 276.336 262.743   2
  -3   6   2 3560.95 958.869   2
   3  -6  -1 424.845 249.962   5
  -3   6   1-447.009 485.190   3
   3  -6   0 8606.22 1241.55   5
  -3   6   0 8020.89 2175.61   3
   3  -6   1 175.055 287.652   5
  -3   6  -1 721.905 663.807   3
   3  -6   2 36658.9 2141.09  10
  -3   6  -2 36275.9 2387.11  26
   3  -6   2 41079.1 2944.71   5
  -3   6  -2 35300.8 4753.05   3
   3  -6   3 21023.4 1335.74  22
  -3   6  -3 19051.4 1705.44  26
  -3   6  -3 20774.3 3730.56   3
   3  -6   3 22945.2 2289.98   5
   3  -6   4 353.625 216.923  22
   3  -6   4-159.998 293.519   5
   3  -6   5 14063.0 1827.33   5
   3  -6   5 15050.1 1159.48  22
  -3   6  -6 2719.28 518.321  12
   3  -6   6 2970.55 789.292   5
   3  -6   6 4574.17 615.016  22
   3  -6   7 2652.54 415.202  22
   3  -6   7 2890.44 544.465  23
   3  -6   7 3145.41 757.842   5
   3  -6   8 3353.28 475.419  23
   3  -6   8 2819.36 363.023  22
  -3   5  11 44.7111 52.6585  16
  -3   5  10 2947.51 554.822   9
  -3   5  10 4200.32 538.027   6
  -3   5   9 1929.28 554.471   9
  -3   5   9 2063.70 457.028   6
  -3   5   8 27137.6 2089.75   9
  -3   5   8 25535.3 1268.59   8
  -3   5   7 6660.37 1058.39   9
  -3   5   7 6577.75 873.992   6
  -3   5   6 27331.7 2042.18   9
  -3   5   6 28529.2 1741.75   6
  -3   5   5 38869.6 2321.82   9
  -3   5   4 2533.50 712.769   2
  -3   5   3 18527.5 2041.81   2
  -3   5   2 29101.3 2611.79   2
  -3   5   2 19088.0 2968.48   3
  -3   5   1 28790.8 3602.47   3
   3  -5  -1 30558.0 1959.07   5
   3  -5   0 2405.82 582.971   5
  -3   5   0 2477.26 1104.84   3
  -3   5  -1 20878.5 3340.86   3
  -3   5  -2 32274.7 4287.03   3
  -3   5  -3 787.710 816.383   3
  -3   5  -3 1314.13 461.751  26
  -3   5  -4 25461.7 3984.12   3
   3  -5   4 24358.7 1426.85  22
   3  -5   5 10679.0 967.016  22
   3  -5   6 912.173 276.605  22
  -3   5  -6 577.927 236.857  12
   3  -5   7 17.0333 92.4615  22
   3  -5   7 404.913 300.464  23
   3  -5   8 58.4334 307.293   5
   3  -5   8 130.600 87.9184  23
   3  -5   8 145.291 107.683  22
   3  -5   9 173.677 99.5038  23
  -3   4  11 1969.33 292.087  16
  -3   4  10 558.276 272.969   9
  -3   4  10 1175.83 328.697   6
  -3   4   9 6539.47 981.177   9
  -3   4   9 8357.14 960.733   6
  -3   4   8 4551.99 863.983   9
  -3   4   8 4354.50 529.572   8
  -3   4   8 5298.59 821.216   6
  -3   4   7 10451.9 1272.72   9
  -3   4   7 10995.8 1154.66   6
  -3   4   6 55570.0 2760.31   9
  -3   4   6 45498.4 2227.55   6
  -3   4   5 14595.5 1659.26   2
  -3   4   4 10700.1 1443.47   2
  -3   4   3 2010.27 633.224   2
  -3   4   2 7585.54 1257.40   2
  -3   4   2 6314.21 1482.46   3
  -3   4   1 2131.90 882.624   3
  -3   4   0 11204.5 2155.23   3
  -3   4  -1 12255.5 2345.24   3
  -3   4  -2 20923.8 3251.66   3
  -3   4  -3 18617.4 3198.33   3
  -3   4  -4 44751.0 5063.67   3
   3  -4   4 47458.3 1879.05  22
   3  -4   5 189.791 171.221  22
  -3   4  -5-22.6502 115.838  12
   3  -4   6 499.925 204.245  22
  -3   4  -6 532.028 229.420  12
   3  -4   7 4951.58 652.261  22
   3  -4   8 807.337 248.333  22
   3  -4   8 762.913 298.486  23
   3  -4   9 28.1146 57.1540  22
   3  -4   9-114.859 88.2910  23
  -3   3  12 471.946 107.961  16
  -3   3  11 463.000 206.113   9
  -3   3  11 422.220 198.682   6
  -3   3  11 252.304 103.252  16
  -3   3  10 4778.63 799.246   9
  -3   3  10 5352.30 761.005   6
  -3   3   9-58.4408 242.362   9
  -3   3   9 221.582 160.542   6
  -3   3   8 11509.0 1322.94   9
  -3   3   8 12184.0 871.972   8
  -3   3   8 13958.1 1347.97   6
  -3   3   8 11124.1 976.036  13
  -3   3   7 31969.6 2123.36   9
  -3   3   7 31354.3 1400.58   8
  -3   3   7 34032.3 2017.81   6
  -3   3   7 32122.3 1602.45  13
  -3   3   6 18059.6 1839.08   2
  -3   3   5 14857.6 1649.60   2
  -3   3   4 6958.28 1138.13   2
  -3   3   3 110.106 176.041   2
  -3   3   2 775.850 456.941   3
  -3   3   2 863.276 413.309   2
  -3   3   1 4130.25 1110.19   3
  -3   3   0 39408.2 3544.57   3
  -3   3  -1 2606.75 1017.24   3
  -3   3  -2 80916.3 5856.86   3
  -3   3  -3 51728.0 4989.32   3
  -3   3  -4 1078.81 792.442   3
  -3   3  -5 11112.8 1072.00  12
  -3   3  -5 15979.4 2915.02   3
   3  -3   5 13660.0 1054.62  22
   3  -3   6 160.267 150.040  22
   3  -3   7 719.396 275.315  22
   3  -3   8 5822.55 672.478  22
   3  -3   8 5274.89 721.869  23
   3  -3   9 3120.90 434.125  23
   3  -3   9 2938.79 398.283  22
  -3   2  12 55.5419 52.1570  16
  -3   2  11 124.822 91.3955   6
  -3   2  11 183.634 95.2145  16
  -3   2  10 109.536 152.664   9
  -3   2  10 260.727 162.566  13
  -3   2  10 135.337 108.957   6
  -3   2   9 4695.81 802.251   9
  -3   2   9 6828.57 935.952   6
  -3   2   9 6073.60 757.123  13
  -3   2   8 18981.8 1030.92   8
  -3   2   8 20239.0 1612.87   6
  -3   2   8 20440.3 1356.26  13
  -3   2   7 5905.44 1107.32   2
  -3   2   7 4677.61 739.557   6
  -3   2   6 15570.1 1733.08   2
  -3   2   5 108510. 4380.56   2
  -3   2   4 4976.99 931.081   2
  -3   2   3 154.106 136.116   2
  -3   2   2 6583.37 1018.19   2
  -3   2   2 7162.44 952.700   3
  -3   2   1 96475.0 3878.42   2
  -3   2   1 109549. 4624.34   3
  -3   2   0 3534.49 968.220   3
  -3   2  -1 31651.8 3172.33   3
  -3   2  -2 42891.8 3940.61   3
  -3   2  -3 11972.9 2267.94   3
  -3   2  -4 88879.1 6499.47   3
  -3   2  -5 14490.8 2676.32   3
  -3   2  -5 14844.5 1203.30  12
   3  -2   5 15175.5 1106.08  22
   3  -2   6 3922.86 633.230  22
   3  -2   7 3377.90 656.949  23
   3  -2   7 2769.93 530.056  22
   3  -2   8 2137.22 446.564  22
   3  -2   8 1940.38 441.861  23
   3  -2   9 5588.29 555.983  23
   3  -2   9 6523.31 606.167  22
  -3   1  12 72.3666 60.9544  16
  -3   1  11 1097.15 254.850  16
  -3   1  11 845.225 233.196  13
  -3   1  11 1140.26 303.453   6
  -3   1  10 3636.29 625.691   6
  -3   1  10 3650.83 574.905  13
  -3   1   9 14905.4 1371.37   6
  -3   1   9 15334.2 1235.09  13
  -3   1   8 3973.09 686.357   6
  -3   1   8 4086.78 627.398  13
  -3   1   7 39517.3 2968.54   2
  -3   1   7 28378.4 1771.58   6
  -3   1   6 88547.8 4180.11   2
  -3   1   5 9881.02 1301.82   2
  -3   1   4 22288.3 1658.79   1
  -3   1   4 28119.3 2090.95   2
  -3   1   3 842.576 262.030   1
  -3   1   3 877.977 351.173   2
  -3   1   2 70331.5 3090.36   2
  -3   1   2 70058.0 2137.55   1
  -3   1   2 76926.5 2620.31   3
  -3   1   1 183425. 4927.79   2
  -3   1   1 190831. 5398.06   3
  -3   1   0 63161.5 2900.83   2
  -3   1   0 64274.0 3722.46   3
  -3   1  -1 67177.3 4250.03   3
  -3   1  -2 762.062 479.484   3
  -3   1  -3 86543.0 5733.24   3
  -3   1  -4 50026.9 4608.59   3
   3  -1   5 597.972 254.246  22
  -3   1  -5 218.349 330.295   3
  -3   1  -5 584.657 224.471  12
   3  -1   6 6248.86 814.959  22
   3  -1   7 1467.93 413.106  22
   3  -1   7 1661.28 409.760  23
  -3   1  -8 1305.50 320.380  17
   3  -1   8 1371.81 402.315  22
   3  -1   8 1319.12 332.798  23
   3  -1   9 646.895 200.571  22
  -3   1  -9 766.226 157.372  17
  -3   0  12 364.280 107.858  16
  -3   0  11 631.866 189.684  16
  -3   0  11 635.663 235.651  13
  -3   0  11 597.145 227.317   6
  -3   0  10 20988.7 1270.81  16
  -3   0  10 21720.6 1499.43   6
  -3   0  10 21686.7 1433.24  13
  -3   0   9 8737.01 848.026  14
  -3   0   9 8769.15 1016.33   6
  -3   0   9 9390.07 1002.61  13
  -3   0   8 2757.09 533.964  13
  -3   0   8 1828.85 457.189   6
  -3   0   8 1572.86 338.601  14
  -3   0   7 54284.0 3579.26   2
  -3   0   7 42088.6 2072.80   6
  -3   0   6 7083.93 1212.35   2
  -3   0   5 46031.1 2780.72   1
  -3   0   5 50028.5 2969.30   2
  -3   0   4 23366.8 1756.59   1
  -3   0   4 23599.2 1889.06   2
  -3   0   3 1306.88 396.641   1
  -3   0   3 1639.28 477.474   2
  -3   0   2 2720.87 588.252   2
  -3   0   2 2915.82 515.273   3
  -3   0   1 24342.0 1852.78   3
  -3   0   1 25437.4 1682.45   2
  -3   0   0 222664. 4912.48   2
  -3   0   0 218334. 6427.13   3
  -3   0  -1 1470.58 397.215   2
  -3   0  -1 1441.75 603.759   3
  -3   0  -2 100766. 5434.69   3
  -3   0  -3 58846.9 2540.08   7
  -3   0  -3 67861.8 4863.85   3
  -3   0  -4 3771.78 1208.97   3
  -3   0  -5 12893.0 2411.19   3
  -3   0  -5 13390.8 1077.94  12
   3   0   5 11276.1 997.199  22
   3   0   6 2136.00 514.906  22
   3   0   7 384.321 241.856  22
   3   0   8 92.2949 111.624  22
  -3   0  -8 142.731 135.224  17
  -3   0  -9 2673.51 312.830  17
  -3  -1  12 1022.80 145.826  16
  -3  -1  12 875.179 206.522  13
  -3  -1  11 11186.3 757.832  16
  -3  -1  11 10764.8 921.974  13
  -3  -1  11 12257.3 906.324   6
  -3  -1  10 9536.56 830.673  16
  -3  -1  10 9961.42 946.699   6
  -3  -1  10 9945.00 1004.09  13
  -3  -1   9 4035.47 570.421  16
  -3  -1   9 3867.44 565.853  14
  -3  -1   9 3786.48 635.666   6
  -3  -1   9 4936.33 745.332  13
  -3  -1   8 27300.4 1467.64  16
  -3  -1   8 24700.3 1357.43  14
  -3  -1   8 24392.9 1592.35   6
  -3  -1   7 2648.30 808.088   2
  -3  -1   7 2554.88 475.330   6
  -3  -1   6 39293.1 2966.87   1
  -3  -1   6 36928.1 2824.45   2
  -3  -1   5 84392.4 3930.61   1
  -3  -1   5 79961.5 3854.99   2
  -3  -1   4 8195.41 1126.53   1
  -3  -1   4 8033.71 1116.86   2
  -3  -1   3 492.845 218.090   1
  -3  -1   3 590.866 282.235   2
  -3  -1   2 2361.21 543.711   2
  -3  -1   1 30348.7 1745.50   2
  -3  -1   1 28991.8 2244.21   3
  -3  -1   0 3311.36 833.965   3
  -3  -1   0 3461.15 535.052   2
  -3  -1  -1 24179.5 2399.63   3
  -3  -1  -2 41205.4 1978.61   7
  -3  -1  -2 39405.9 3386.65   3
  -3  -1  -3 228.883 295.470   3
  -3  -1  -3-23.2984 162.916   7
   3   1   3 156.093 225.607   4
  -3  -1  -4 29914.8 3466.51   3
   3   1   5 8.13010 97.2964  22
  -3  -1  -5-16.8479 126.165   3
  -3  -1  -5 265.160 126.790  12
   3   1   6 795.358 326.784  22
  -3  -1  -7 562.065 217.225  17
   3   1   7 195.290 203.278  22
   3   1   8 2334.35 479.807  22
  -3  -1  -8 2120.29 374.983  17
  -3  -1  -9 1172.56 210.609  17
  -3  -2  12 121.579 106.054  13
  -3  -2  11 425.632 119.617  16
  -3  -2  11 779.451 241.533  13
  -3  -2  10 1604.67 334.676  16
  -3  -2  10 1779.02 371.622  14
  -3  -2  10 2015.99 459.462  13
  -3  -2   9 14784.9 1049.68  16
  -3  -2   9 14703.2 1123.05  14
  -3  -2   8 1312.52 356.626   6
  -3  -2   8 1210.73 302.206  16
  -3  -2   8 1343.65 331.941  14
  -3  -2   7 4901.50 574.160  16
  -3  -2   7 5434.54 1237.51   1
  -3  -2   7 3705.89 556.637   6
  -3  -2   6 26866.2 2566.09   1
  -3  -2   6 25302.7 2430.96   2
  -3  -2   5 4223.03 924.612   2
  -3  -2   5 5412.88 1073.86   1
  -3  -2   4 682.051 347.336   1
  -3  -2   4 344.064 262.000   2
   3   2  -4 474.417 298.744   4
  -3  -2   3 1146.67 410.743   2
   3   2  -3 1278.56 557.238   4
  -3  -2   2 16688.3 1398.83   2
  -3  -2   1 3459.84 564.471   2
   3   2   0 98778.6 5025.55   4
  -3  -2   0 102701. 2625.55   2
   3   2   1 38077.1 3243.61   4
  -3  -2  -1 46222.1 2146.20   7
  -3  -2  -1 37908.0 3314.75   3
  -3  -2  -2 1237.11 673.083   3
  -3  -2  -2 861.723 332.974   7
   3   2   2 619.535 439.423   4
   3   2   3 29582.4 3055.93   4
  -3  -2  -3 25203.1 1765.28   7
  -3  -2  -3 29463.0 3419.28   3
  -3  -2  -4 5044.74 838.763   7
  -3  -2  -4 6489.75 774.614  12
  -3  -2  -5 664.526 282.362  12
   3   2   5 57.1530 121.280  22
  -3  -2  -6 1019.72 318.597  17
   3   2   6 761.971 313.719  22
  -3  -2  -7 1950.04 418.889  17
   3   2   7 1468.47 448.100  22
  -3  -2  -8 2477.61 395.749  17
  -3  -2  -9 54.8482 65.6528  17
  -3  -3  12 41.7045 49.1204  13
  -3  -3  11 3103.59 482.538  13
  -3  -3  10 9904.90 723.691  16
  -3  -3  10 9860.66 888.068  14
  -3  -3  10 11403.1 1074.91  13
  -3  -3   9 84.0766 123.004  16
  -3  -3   9 42.2212 138.178  14
  -3  -3   8 166.883 97.0192  19
  -3  -3   8 64.1572 101.572  16
  -3  -3   8 138.302 160.008  14
  -3  -3   7 56753.8 4091.33   1
  -3  -3   7 53097.6 1708.57  19
  -3  -3   7 56267.1 1933.00  16
  -3  -3   7 56554.9 2006.37  14
  -3  -3   6 3032.21 835.619   1
  -3  -3   5 1996.49 674.370   1
   3   3  -4 8904.50 1437.96   4
  -3  -3   4 6947.82 1153.50   2
  -3  -3   4 8124.60 1297.99   1
  -3  -3   3 611.858 307.534   2
   3   3  -3 550.305 217.495   4
  -3  -3   2 1217.63 425.742   2
   3   3  -2 1864.25 702.323   4
   3   3  -1 24690.2 2625.33   4
  -3  -3   1 26538.5 1560.23   2
   3   3   0 57229.3 4150.35   4
   3   3   1 507.408 414.964   4
   3   3   2 50389.7 4213.28   4
  -3  -3  -2 47445.1 2508.56   7
   3   3   3 35380.1 3639.22   4
  -3  -3  -3 31355.2 2094.49   7
  -3  -3  -4 4760.96 704.230  12
  -3  -3  -4 4282.22 584.616  17
  -3  -3  -4 4867.21 846.196   7
   3   3   4 2948.15 557.915  22
  -3  -3  -5 6285.01 744.769  17
  -3  -3  -5 6021.98 822.070  12
  -3  -3  -6-26.1329 133.260  17
  -3  -3  -7 3974.92 572.501  17
  -3  -3  -8 280.299 138.462  17
   3   3   9 4966.04 458.114   9
  -3  -4  11 6921.94 607.093  14
  -3  -4  11 7170.36 682.514  13
  -3  -4  10 934.828 288.331  13
  -3  -4  10 747.302 243.258  14
  -3  -4   9 15843.2 948.133  16
  -3  -4   9 17553.6 1224.48  14
  -3  -4   8 18069.7 1048.32  19
  -3  -4   8 17479.9 1061.73  16
  -3  -4   8 17388.9 1216.33  14
  -3  -4   7 6583.92 633.203  19
  -3  -4   7 6442.35 639.333  16
  -3  -4   7 6334.65 699.621  14
  -3  -4   7 6847.68 1402.14   1
  -3  -4   6 7296.87 598.697  19
  -3  -4   6 7910.41 683.536  16
  -3  -4   6 8582.33 762.182  14
  -3  -4   5 2530.37 832.167   1
   3   4  -4-83.5220 432.628   4
  -3  -4   4 230.356 225.513   1
   3   4  -3 19791.9 2473.27   4
   3   4  -2 19150.3 2501.03   4
   3   4  -1 52210.6 4241.12   4
   3   4   0 3511.48 1166.27   4
   3   4   1 78125.7 5552.97   4
   3   4   2 17144.4 2696.60   4
  -3  -4  -3 2134.89 394.421  17
   3   4   3 1503.44 973.684   4
  -3  -4  -3 2723.48 658.740   7
  -3  -4  -3 2222.43 501.180  12
  -3  -4  -4 18360.8 1256.41  17
  -3  -4  -4 19688.5 1783.54   7
  -3  -4  -4 17548.3 1494.62  12
  -3  -4  -5 4475.61 647.934  17
  -3  -4  -6 643.615 241.852  17
  -3  -4  -7 296.634 141.643  17
   3   4   8 4853.78 576.032   9
  -3  -4  -8 5179.18 484.284  17
  -3  -5  11 2860.93 341.515  14
  -3  -5  11 2462.94 346.197  13
  -3  -5  10 4414.08 534.413  14
  -3  -5  10 4601.84 609.603  13
  -3  -5   9 19524.3 1251.58  14
  -3  -5   8 3430.66 494.127  19
  -3  -5   8 2690.74 390.667  16
  -3  -5   8 2947.52 509.898  14
  -3  -5   7 15280.4 1007.62  19
  -3  -5   7 13121.7 911.357  16
  -3  -5   7 14670.9 1106.97  14
  -3  -5   6 12268.4 864.403  19
  -3  -5   6 10645.9 812.274  16
  -3  -5   6 13131.8 1978.75   1
  -3  -5   6 11830.7 961.978  14
  -3  -5   5 609.224 438.484   1
  -3  -5   5 146.282 213.161  19
  -3  -5   5 937.252 282.992  16
  -3  -5   4 807.392 433.420   1
   3   5  -3 1387.53 765.470   4
   3   5  -2 16981.2 2598.60   4
   3   5  -1 706.020 481.208   4
   3   5   0 12570.3 2385.31   4
   3   5   1 3108.95 1190.94   4
  -3  -5  -2 195.306 166.318  17
   3   5   2 667.601 580.449   4
   3   5   3 17475.1 2942.18   4
  -3  -5  -3 15978.7 1150.59  17
  -3  -5  -3 17243.0 1781.63   7
  -3  -5  -4 10108.7 943.257  17
  -3  -5  -4 9083.43 1277.35   7
  -3  -5  -5 5850.95 742.289  17
  -3  -5  -6 6878.02 748.886  17
  -3  -5  -7 3492.83 455.964  17
   3   5   7 2460.20 442.046   9
  -3  -5  -8 1476.27 215.592  17
  -3  -6  10 4547.53 490.943  14
  -3  -6  10 4270.37 482.386  13
  -3  -6   9 577.967 216.015  14
  -3  -6   9 395.874 224.308  13
  -3  -6   8 7673.88 802.345  14
  -3  -6   7 4986.74 586.137  19
  -3  -6   7 4550.63 633.317  14
  -3  -6   6 1391.79 325.323  19
  -3  -6   6 973.177 296.463  14
  -3  -6   5 1212.36 274.707  19
  -3  -6   5 1221.22 603.915   1
  -3  -6   4 384.363 329.773   1
  -3  -6   4-146.919 229.141  19
  -3  -6   3 6390.08 1164.90  20
  -3  -6   3 6328.29 537.201  19
   3   6  -3 5732.43 1609.58   4
  -3  -6   2 350.590 138.723  20
   3   6  -2 1491.65 834.833   4
  -3  -6   1 22934.1 2227.93  20
   3   6  -1 16721.0 2894.32   4
  -3  -6   0 22399.3 2274.22  20
   3   6   0 15047.3 2801.09   4
  -3  -6  -1 457.159 445.031  20
   3   6   1 913.056 702.507   4
  -3  -6  -2 8893.92 1472.27  20
  -3  -6  -2 6023.85 695.295  17
  -3  -6  -3 7056.69 1296.43  20
  -3  -6  -3 5382.83 693.015  17
  -3  -6  -3 5237.72 1022.15   7
  -3  -6  -4 205.053 209.989  20
  -3  -6  -4 166.419 188.159  17
  -3  -6  -4 228.578 332.032   7
  -3  -6  -5 2825.49 489.912  17
   3   6   6 439.129 184.826   9
  -3  -6  -6 860.771 242.472  17
  -3  -6  -7 1561.31 260.739  17
  -3  -7  10 731.990 158.428  14
  -3  -7   9 1475.07 295.559  14
  -3  -7   8 1928.87 378.878  14
  -3  -7   7 3772.77 510.653  19
  -3  -7   7 3103.62 518.245  14
  -3  -7   6 5450.75 607.060  19
  -3  -7   6 4362.83 625.730  14
  -3  -7   5 230.247 171.962  19
  -3  -7   4 136.645 134.399  19
  -3  -7   3 31120.9 2237.13  21
  -3  -7   3 34329.9 1318.56  19
  -3  -7   2 6654.16 1293.84  20
  -3  -7   1 14884.7 1939.30  20
  -3  -7   0-186.760 412.720  20
  -3  -7  -1 6164.15 1265.01  20
  -3  -7  -2 2419.94 789.130  20
  -3  -7  -2 2117.82 421.428  17
  -3  -7  -3 1376.56 536.253  20
  -3  -7  -3 1478.42 377.066  17
  -3  -7  -3 1897.35 595.484   7
  -3  -7  -4 2647.61 689.869  20
  -3  -7  -4 3213.83 493.354  17
  -3  -7  -4 2719.43 648.478   7
  -3  -7  -5 18.0572 73.6582  17
  -3  -7  -6 1093.04 224.531  17
   3   7   6 764.548 191.171  25
  -3  -8   9 3428.44 358.475  14
  -3  -8   8 353.837 159.911  14
  -3  -8   7 2310.18 410.913  14
  -3  -8   6 1179.47 338.530  14
  -3  -8   5 564.529 245.070  19
  -3  -8   5 109.480 141.441  14
  -3  -8   4 1595.75 554.451  21
  -3  -8   4 3257.86 422.265  19
  -3  -8   3 333.182 259.861  21
  -3  -8   2 39411.0 2662.71  21
  -3  -8   1 692.342 494.808  20
  -3  -8   1 1088.22 418.952  21
  -3  -8   0 4334.39 1100.03  20
  -3  -8  -1 1237.21 491.925  20
  -3  -8  -2-219.899 339.052  20
  -3  -8  -2 188.164 100.998  17
  -3  -8  -2 481.843 285.006   7
  -3  -8  -3 4727.93 565.111  17
  -3  -8  -3 4117.89 812.215   7
  -3  -8  -4 236.711 255.787  21
  -3  -8  -4 151.185 141.398  17
  -3  -8  -4 94.5797 119.267   7
  -3  -8  -5 650.662 166.140  17
   3   8   5 437.273 159.741  25
  -3  -9   8 1027.51 188.541  14
  -3  -9   7 208.930 107.918  14
  -3  -9   6 1685.60 325.224  14
  -3  -9   5 171.351 134.473  14
  -3  -9   3 3888.77 801.619  21
  -3  -9   3 6207.91 737.986  10
  -3  -9   2 122.399 223.502  21
  -3  -9   2 430.764 173.071   7
  -3  -9   1 10247.7 1313.90  21
   3   9  -1 10574.0 1065.72  25
  -3  -9   0 5803.61 1045.95  21
  -3  -9   0 5495.39 966.688   7
   3   9   0 6251.36 868.309  25
  -3  -9  -1 445.098 376.471  21
  -3  -9  -1 227.674 222.160   7
   3   9   1 368.638 300.544  25
  -3  -9  -2 10957.1 1201.84  21
  -3  -9  -2 8613.13 1092.62   7
   3   9   2 11407.7 1079.83  25
  -3  -9  -3 92.7220 161.090  21
   3   9   3 310.412 196.249  25
  -3  -9  -4 132.784 120.416  21
   3   9   4 219.406 123.141  25
  -3 -10   6 3117.21 334.570  14
  -3 -10   5 208.499 110.052  14
  -3 -10   4 1498.05 288.901  14
  -3 -10   2 4276.22 709.318  21
  -3 -10   2 6642.86 679.552  10
  -3 -10   1 3027.96 595.206  21
  -3 -10   1 3955.08 674.891   7
   3  10  -1 3220.34 478.400  25
  -3 -10   0 298.616 246.336  21
   3  10   0 204.181 166.718  25
  -3 -10   0 590.755 299.962   7
  -3 -10  -1 2882.65 526.201  21
   3  10   1 3033.13 469.165  25
  -3 -10  -2 420.730 161.742  21
   3  10   2 612.139 204.267  25
  -3 -11   3 2979.32 284.569  14
  -3 -11   2 521.843 124.081  14
  -4  11   4 348.863 86.2041   8
  -4  11   3-3.32188 83.3056  26
  -4  11   2 1467.72 325.730  26
  -4  11   1 9652.32 863.635  26
  -4  11   0 2931.99 463.460  26
  -4  11  -2 957.938 185.112  12
  -4  10   6 694.717 193.744  11
  -4  10   6 568.109 136.419   8
  -4  10   5-26.6473 104.042  11
  -4  10   5 198.131 138.316  26
  -4  10   4 517.422 207.281  11
  -4  10   4 533.033 242.486  26
  -4  10   3 5467.57 774.518  26
  -4  10   2 8923.93 1066.58  26
  -4  10   1 3836.36 710.598  26
  -4  10   0 736.500 347.188  26
  -4  10  -1 2509.55 542.370  26
  -4   9   8 365.273 134.660  11
  -4   9   7-72.6579 123.954  11
  -4   9   7 137.975 71.8049   8
   4  -9  -5 153.849 136.332  17
  -4   9   5 343.581 193.310  26
   4  -9  -4 1710.65 369.976  17
  -4   9   4 2685.47 611.800  26
  -4   9   3 4071.02 677.681  11
  -4   9   3 6896.46 1015.80  26
  -4   9   2 1669.01 535.739  26
  -4   9   1 7.69454 189.328  26
  -4   9   0 2983.58 691.517  26
  -4   9  -1 450.816 273.467  26
  -4   9  -2-111.696 168.944  26
  -4   9  -4 242.537 135.853  12
  -4   9  -5 159.164 94.3477  12
  -4   8   9 296.511 112.767  11
  -4   8   8-105.193 166.165  11
  -4   8   8 220.064 108.621   8
  -4   8   7 117.798 108.319   8
   4  -8  -6 692.116 208.052  17
  -4   8   5 4303.52 735.375  26
   4  -8  -5 4531.16 640.192  17
   4  -8  -4 4893.21 698.026  17
   4  -8  -3 75.4783 163.820  17
  -4   8   2 1476.81 453.001  11
  -4   8   2 2676.32 714.270  26
   4  -8  -1 7289.08 904.948  10
  -4   8   1 11456.9 1515.66  26
  -4   8   0 3667.15 868.914  26
  -4   8  -1 2003.75 598.751  26
   4  -8   2 233.075 340.892   5
  -4   8  -2 192.933 257.666  26
   4  -8   3 1837.09 628.959   5
   4  -8   3 2013.26 345.382  22
   4  -8   4 446.220 160.883  22
   4  -8   4 477.955 377.657   5
   4  -8   5 536.845 334.337   5
  -4   8  -5 165.809 111.173  12
   4  -8   6 378.226 120.150  23
  -4   7   9 297.296 127.197  11
  -4   7   9 533.406 128.196   8
  -4   7   8 51.1471 78.8243   8
   4  -7  -6 400.306 205.146  17
   4  -7  -5 823.217 317.639  17
   4  -7  -4 482.769 230.415  17
   4  -7  -3 10991.8 1069.68  17
   4  -7  -2 21748.1 1549.16  17
   4  -7  -1 1772.20 470.893  10
  -4   7   1 2168.69 626.981  26
   4  -7   0 4883.22 1012.66   5
  -4   7   0 3433.01 826.242  26
   4  -7   1 4660.39 1006.00   5
  -4   7  -1 3790.98 841.901  26
   4  -7   2 279.959 357.412   5
  -4   7  -2 55.8034 128.846  26
   4  -7   3 6315.27 1196.29   5
   4  -7   4 352.208 294.301   5
   4  -7   4 140.331 106.522  22
   4  -7   5 4391.95 875.440   5
  -4   7  -5 3444.98 564.272  12
   4  -7   5 5891.04 550.524  22
   4  -7   6 358.295 319.773   5
   4  -7   6 432.487 212.123  23
  -4   7  -6 306.922 135.698  12
   4  -7   7 1544.87 241.810  23
  -4   6  10 5111.11 371.692  16
  -4   6   9 268.706 112.271   8
  -4   6   9 406.359 186.266   6
  -4   6   8 2394.04 400.299   8
  -4   6   8 2965.45 506.137   6
  -4   6   7 311.698 187.326   6
  -4   6   6 288.365 234.626   6
   4  -6  -5 6299.16 746.781  17
   4  -6  -4 5921.31 736.226  17
  -4   6   4 10426.4 1632.99   2
  -4   6   3 32087.5 3012.19   2
   4  -6  -3 25669.9 1552.51  17
  -4   6   2 8204.57 1552.23   2
   4  -6  -2 7563.42 889.095  17
  -4   6   1 6370.42 1439.94   2
  -4   6   1 6901.48 1089.56  26
   4  -6  -1 6373.36 1053.46   5
  -4   6   0 22428.0 1989.90  26
  -4   6   0 17043.7 3061.03   3
   4  -6   0 19281.0 1884.66   5
   4  -6   1 3360.72 735.620   5
  -4   6  -1 3537.32 1396.73   3
  -4   6  -1 3273.37 777.280  26
  -4   6  -2 564.570 318.278  26
   4  -6   2 150.397 262.563   5
   4  -6   3-321.583 367.076   5
   4  -6   4 5302.82 1162.28   5
   4  -6   4 6411.11 662.819  22
   4  -6   5 630.033 226.150  22
  -4   6  -5 340.268 187.940  12
   4  -6   5 354.594 203.658   5
   4  -6   6 1948.62 597.020   5
   4  -6   6 2107.86 317.382  22
  -4   6  -6 1540.29 321.280  12
   4  -6   7 3331.97 464.994  23
  -4   5  11 3980.27 305.914  16
  -4   5  10 4081.03 430.510  16
  -4   5  10 5244.46 578.687   6
  -4   5   9 77.3332 115.346   8
  -4   5   9-8.24096 147.000   6
  -4   5   8 102.717 180.246   9
  -4   5   8 141.247 103.089   8
  -4   5   8 189.998 168.491   6
  -4   5   7 474.644 333.642   9
  -4   5   7 68.8770 94.3962   8
  -4   5   7 346.035 246.026   6
  -4   5   6 12197.5 1429.95   9
  -4   5   5 33117.2 2857.22   2
  -4   5   4 18680.2 2255.07   2
  -4   5   3 8.66665 104.231   2
  -4   5   2 6810.01 1420.23   2
  -4   5   1 72915.9 4679.35   2
   4  -5  -1 70573.6 3112.54   5
  -4   5   0 10207.3 2180.33   3
   4  -5   0 12510.3 1407.02   5
  -4   5  -1 1112.03 766.358   3
  -4   5  -1 396.243 256.500  26
  -4   5  -2 1471.37 918.460   3
  -4   5  -2 838.678 360.142  26
  -4   5  -4 283.767 128.809  12
   4  -5   5 2497.54 413.864  22
  -4   5  -5 1842.44 481.857  12
   4  -5   6 230.592 97.1896  22
  -4   5  -6 378.693 181.119  12
   4  -5   7 936.747 199.379  22
   4  -5   7 1169.55 315.831  23
   4  -5   8 2617.59 323.042  23
  -4   4  11 7429.01 529.717  16
  -4   4  10 76.9226 68.2219  16
  -4   4  10 206.203 162.994   6
  -4   4   9 1774.45 494.264   9
  -4   4   9 2382.91 379.555   8
  -4   4   9 2613.39 545.449   6
  -4   4   8 278.082 151.454   9
  -4   4   8-14.4980 96.6701   8
  -4   4   8 331.133 267.818   6
  -4   4   7 83.4907 168.099   9
  -4   4   7 203.130 92.8197   8
  -4   4   7 369.125 274.887   6
  -4   4   6 2480.75 647.505   9
  -4   4   6 3693.40 924.234   2
  -4   4   5 15233.8 1474.83   9
  -4   4   5 20014.9 2299.61   2
  -4   4   4 614.029 396.346   2
  -4   4   3 9567.26 1602.39   2
  -4   4   2 40773.0 3296.07   2
  -4   4   1 695.692 448.955   3
  -4   4   1 319.430 306.065   2
  -4   4   0 1365.43 749.519   3
  -4   4  -1-210.551 342.813   3
  -4   4  -2 1456.21 952.078   3
  -4   4  -3 8752.16 2244.66   3
  -4   4  -4 369.078 246.918  12
  -4   4  -5 883.101 344.156  12
   4  -4   6 1561.22 326.027  22
  -4   4  -6 1272.27 335.727  12
   4  -4   7 5242.09 690.901  23
   4  -4   7 5199.45 522.361  22
   4  -4   8 1223.76 243.284  23
  -4   3  12 3573.61 275.957  16
  -4   3  11-4.91706 44.0214  16
  -4   3  11 214.983 132.165   6
  -4   3  10 8772.40 773.958  16
  -4   3  10 10101.5 1009.77   6
  -4   3   9-24.1299 190.858   9
  -4   3   9 63.1032 90.4915   8
  -4   3   9 23.8566 181.270   6
  -4   3   8 579.428 238.136   6
  -4   3   8 350.249 324.892   9
  -4   3   8 303.971 129.269   8
  -4   3   7 8971.84 836.018   8
  -4   3   7 10987.9 1614.14   2
  -4   3   6 17139.2 1542.63   9
  -4   3   6 20669.0 1187.32   8
  -4   3   5 591.908 324.024   2
  -4   3   4 13810.3 1808.80   2
  -4   3   3 12153.0 1653.72   2
  -4   3   2 590.379 360.014   2
  -4   3   1 10000.1 1548.19   2
  -4   3   1 10609.3 1815.59   3
  -4   3   0 4022.05 1286.58   3
  -4   3  -1 1175.09 716.934   3
  -4   3  -2 221.123 345.885   3
  -4   3  -3 305.764 418.994   3
  -4   3  -3 100.004 126.523  12
  -4   3  -4 13887.8 1308.16  12
  -4   3  -5 1007.83 334.143  12
  -4   3  -6 19747.0 1326.81  12
   4  -3   6 20565.5 1245.75  22
   4  -3   7 97.2425 111.894  22
   4  -3   7 314.414 222.068  23
  -4   3  -8 4502.63 370.605  17
   4  -3   8 4058.85 468.439  23
  -4   2  12 475.874 122.026  16
  -4   2  11 7325.74 637.222  16
  -4   2  11 8159.84 790.982   6
  -4   2  10 200.764 163.170  16
  -4   2  10 200.590 106.435   6
  -4   2   9 1558.46 492.328   9
  -4   2   9 2475.31 381.388   8
  -4   2   9 1713.57 426.693  13
  -4   2   9 2606.33 576.328   6
  -4   2   8 290.530 269.175   9
  -4   2   8 352.634 169.260   8
  -4   2   8 159.546 143.954  13
  -4   2   8 193.244 130.546   6
  -4   2   7 10478.4 1223.71   9
  -4   2   7 13745.8 962.586   8
  -4   2   7 14409.1 1895.37   2
  -4   2   7 12160.5 1068.18  13
  -4   2   6 2904.48 823.762   2
  -4   2   5 2757.71 788.774   2
  -4   2   4 80812.3 4219.02   2
  -4   2   3 1508.68 583.948   2
  -4   2   2 24622.0 2239.16   2
  -4   2   1 26927.3 2380.91   2
  -4   2   1 29730.3 2723.02   3
  -4   2   0 1810.09 770.478   3
  -4   2   0 1545.04 581.602   2
  -4   2  -1 575.957 549.719   3
  -4   2  -1 578.920 369.153   2
  -4   2  -2 3733.17 1308.94   3
  -4   2  -3 3601.00 1311.62   3
  -4   2  -3 3963.23 641.949  12
  -4   2  -4 1668.55 955.314   3
  -4   2  -4 1686.08 428.824  12
  -4   2  -5 17701.2 1373.50  12
  -4   2  -6 13015.9 1075.66  12
   4  -2   7 1458.60 302.000  22
   4  -2   7 1613.18 374.458  23
   4  -2   8 13835.5 804.038  23
  -4   2  -8 18222.0 820.245  17
  -4   1  12 6156.66 437.348  16
  -4   1  11 5140.71 547.489  16
  -4   1  11 5345.49 643.400   6
  -4   1  10 1205.21 311.292  16
  -4   1  10 895.056 293.864  13
  -4   1  10 1099.65 361.830   6
  -4   1   9 2069.76 337.357   8
  -4   1   9 2035.86 429.529  16
  -4   1   9 1676.55 432.162  13
  -4   1   9 1717.57 490.888   6
  -4   1   8 3649.07 975.760   2
  -4   1   8 3525.69 486.448   8
  -4   1   8 3100.34 501.987  16
  -4   1   8 3560.41 598.331  13
  -4   1   8 2467.29 569.091   6
  -4   1   7 5587.08 591.877   8
  -4   1   7 5028.34 1103.06   2
  -4   1   7 5223.68 708.735  13
  -4   1   6 7433.53 1346.18   2
  -4   1   5 135910. 5456.72   2
  -4   1   5 121568. 4384.69   1
  -4   1   4 608.810 349.484   2
  -4   1   4 682.711 279.678   1
  -4   1   3 30341.1 1712.53   1
  -4   1   3 33241.8 2553.94   2
  -4   1   2 82439.3 3905.69   2
  -4   1   1 94820.3 4123.61   2
  -4   1   1 98682.3 4602.50   3
  -4   1   0 71772.6 3596.59   2
  -4   1   0 73081.4 4500.98   3
  -4   1  -1 189.515 269.636   3
  -4   1  -1 410.353 347.923   2
  -4   1  -2 7853.26 1778.36   3
  -4   1  -3 402.907 414.050   3
  -4   1  -3 690.851 313.462  12
  -4   1  -4 8779.33 2069.89   3
  -4   1  -4 8675.22 941.829  12
  -4   1  -5 5177.97 739.187  12
  -4   1  -6 515.404 232.511  12
   4  -1   7 3956.90 533.938  23
  -4   1  -8 392.543 124.048  17
  -4   0  12 3505.99 325.033  16
  -4   0  11 1211.65 305.851   6
  -4   0  11 1135.27 261.716  16
  -4   0  11 540.647 200.634  13
  -4   0  10 10488.9 897.218  16
  -4   0  10 8266.60 908.621   6
  -4   0  10 9621.29 985.104  13
  -4   0   9 653.467 185.051   8
  -4   0   9 613.236 223.635  16
  -4   0   9 443.381 259.220  13
  -4   0   9 903.915 321.726   6
  -4   0   8 4086.31 1068.05   2
  -4   0   8 4479.50 530.252   8
  -4   0   8 4124.46 591.667  16
  -4   0   8 4890.62 735.457  13
  -4   0   8 3461.21 639.851   6
  -4   0   7 712.609 440.547   2
  -4   0   7 823.838 227.656   8
  -4   0   7 981.311 279.507  16
  -4   0   7 769.623 286.006  13
  -4   0   6 26388.5 2379.95   1
  -4   0   6 29233.2 2674.98   2
  -4   0   5 12149.4 1467.36   1
  -4   0   5 12267.5 1635.20   2
  -4   0   4 29317.4 2078.14   1
  -4   0   4 31836.5 2497.74   2
  -4   0   3 90043.3 3371.13   1
  -4   0   3 93945.4 4121.06   2
  -4   0   2 19886.5 1839.47   2
  -4   0   1 60205.1 2478.24   7
  -4   0   1 56339.8 3480.84   3
  -4   0   1 53545.7 2930.06   2
  -4   0   0 83875.2 3080.77   7
  -4   0   0 78594.9 4615.34   3
  -4   0   0 82193.7 3490.29   2
  -4   0  -1 1811.68 748.434   3
  -4   0  -1 2226.80 497.763   7
  -4   0  -2 2.00821 173.085   3
  -4   0  -2 525.273 315.286   7
  -4   0  -3 3116.96 1125.93   3
   4   0   3 3454.48 1082.56   4
  -4   0  -3 2595.41 521.561  12
  -4   0  -4 25888.8 3598.69   3
  -4   0  -4 22180.9 1579.21  12
  -4   0  -5 3450.10 606.535  12
  -4   0  -6 7422.56 858.019  12
  -4   0  -7 1459.09 318.344  17
  -4   0  -8 151.010 98.2848  17
  -4  -1  12 294.918 80.5630  16
  -4  -1  11 14757.8 885.453  16
  -4  -1  11 13668.8 1033.65  13
  -4  -1  10 1485.71 330.124  16
  -4  -1  10 1628.13 416.085  13
  -4  -1  10 1489.68 372.273   6
  -4  -1   9 8626.85 847.376  16
  -4  -1   9 8066.05 749.969  14
  -4  -1   9 7040.63 861.656   6
  -4  -1   9 7762.86 923.944  13
  -4  -1   8 6390.27 731.731  16
  -4  -1   8 5079.41 755.577   6
  -4  -1   8 5932.49 805.019  13
  -4  -1   7 24371.9 1213.88   8
  -4  -1   7 24688.3 2622.78   2
  -4  -1   7 26164.6 1414.72  16
  -4  -1   7 24729.3 1546.43  13
  -4  -1   7 22414.1 2484.22   1
  -4  -1   6 9843.93 1535.49   1
  -4  -1   6 11408.5 1685.62   2
  -4  -1   5 11903.2 1553.76   1
  -4  -1   5 11461.5 1596.37   2
  -4  -1   4 47262.1 3047.87   2
  -4  -1   4 46047.2 2880.87   1
  -4  -1   3 11028.8 1315.32   1
  -4  -1   3 12968.6 1492.68   2
  -4  -1   2 3784.16 603.720   7
  -4  -1   2 3835.16 781.997   2
  -4  -1   1 14290.9 1239.41   7
  -4  -1   1 13290.5 1362.11   2
  -4  -1   0 7267.19 945.782   7
  -4  -1   0 6633.90 1441.40   3
  -4  -1  -1 6242.64 1436.61   3
  -4  -1  -1 5160.91 820.731   7
   4   1   2 13768.4 2278.43   4
  -4  -1  -2 13434.3 1413.45   7
  -4  -1  -2 15409.4 2507.56   3
   4   1   3 15915.3 2406.07   4
  -4  -1  -3 17090.7 1600.53   7
  -4  -1  -3 18373.9 2924.78   3
  -4  -1  -3 17669.3 1370.37  12
  -4  -1  -4 11995.6 1142.05  12
  -4  -1  -5 2830.38 571.179  12
  -4  -1  -6 1018.80 317.237  17
  -4  -1  -6 982.827 301.626  12
  -4  -1  -7 3634.72 488.282  17
  -4  -1  -8 1000.26 207.947  17
  -4  -2  11 3254.78 384.539  16
  -4  -2  11 3591.69 528.659  13
  -4  -2  10 323.123 158.222  16
  -4  -2  10 325.412 151.341  14
  -4  -2  10 526.255 266.543  13
  -4  -2   9 14796.5 1084.19  16
  -4  -2   9 13539.8 989.782  14
  -4  -2   9 14022.6 1250.54  13
  -4  -2   8-13.1107 192.842  19
  -4  -2   8 656.817 248.303  16
  -4  -2   8 348.206 136.371  14
  -4  -2   8 476.159 234.111  13
  -4  -2   7 19032.5 2339.35   1
  -4  -2   7 20299.3 1238.11  16
  -4  -2   7 17379.1 1306.95  13
  -4  -2   6 9783.19 1590.30   1
  -4  -2   6 11553.3 1736.49   2
  -4  -2   5 36623.5 2916.61   2
  -4  -2   5 37972.1 2954.04   1
  -4  -2   4 2216.33 706.033   2
  -4  -2   4 2734.51 755.630   1
   4   2  -4 2665.68 846.699   4
   4   2  -3 26206.8 2841.76   4
  -4  -2   3 26401.1 1672.72   7
  -4  -2   3 26660.6 2150.22   2
  -4  -2   2 27960.0 1732.94   7
  -4  -2   2 25044.8 1912.95   2
  -4  -2   1 2870.50 614.585   7
   4   2  -1 2985.76 1022.68   4
  -4  -2   0 41.2025 200.989   7
   4   2   0 129.861 242.508   4
   4   2   1 10217.0 1988.46   4
  -4  -2  -1 10751.8 1275.91   7
  -4  -2  -2 8034.09 1108.66   7
   4   2   2 8482.11 1876.34   4
  -4  -2  -2 7103.96 906.901  12
   4   2   3 692.835 524.264   4
  -4  -2  -3 312.914 271.929   7
  -4  -2  -3 177.160 137.766  12
  -4  -2  -4 10612.3 1301.34   7
  -4  -2  -4 9223.24 1063.15  12
  -4  -2  -5 5723.27 795.817  12
  -4  -2  -5 6249.93 740.633  17
  -4  -2  -6 1348.83 359.620  17
  -4  -2  -6 1040.23 321.093  12
  -4  -2  -7 7044.08 667.474  17
  -4  -2  -8 2952.65 321.511  17
  -4  -3  11 159.579 79.5117  16
  -4  -3  11 457.318 189.689  13
  -4  -3  10 2397.59 374.155  16
  -4  -3  10 2520.11 397.206  14
  -4  -3  10 2487.82 499.329  13
  -4  -3   9 1727.55 328.042  19
  -4  -3   9 1095.92 271.026  16
  -4  -3   9 1337.11 309.630  14
  -4  -3   9 1058.34 336.822  13
  -4  -3   8 2144.17 346.414  19
  -4  -3   8 2676.24 432.608  16
  -4  -3   8 2596.08 441.025  14
  -4  -3   8 2289.98 522.599  13
  -4  -3   7 5403.70 1264.43   1
  -4  -3   7 4661.36 583.515  16
  -4  -3   7 5132.60 582.454  14
  -4  -3   7 3511.20 587.213  13
  -4  -3   6 32887.5 1508.03  16
  -4  -3   6 35442.6 3144.92   1
  -4  -3   6 32109.6 1657.24  13
  -4  -3   5 2420.64 781.457   2
  -4  -3   5 2073.42 750.566   1
  -4  -3   4 2088.47 698.779   1
  -4  -3   4 2211.33 706.316   2
   4   3  -4 1498.98 677.622   4
   4   3  -3 51459.5 4162.40   4
  -4  -3   3 56009.9 3171.59   2
  -4  -3   3 58366.2 2538.31   7
  -4  -3   2 146.175 172.424   7
   4   3  -2 274.962 333.345   4
   4   3  -1 11237.4 2077.75   4
  -4  -3   1 12075.7 1272.09   7
  -4  -3   0 4829.81 853.357   7
   4   3   0 5362.31 1515.33   4
   4   3   1 9571.95 2037.56   4
  -4  -3  -1 7709.63 1111.30   7
  -4  -3  -2 623.619 218.250  17
   4   3   2 853.347 624.512   4
  -4  -3  -2 665.343 393.404   7
  -4  -3  -2 416.657 235.029  12
  -4  -3  -3 19783.2 1242.29  17
  -4  -3  -3 18743.0 1810.58   7
  -4  -3  -3 19204.8 1539.89  12
  -4  -3  -4 21762.2 1350.46  17
  -4  -3  -4 18294.0 1784.68   7
  -4  -3  -4 21395.4 1611.96  12
  -4  -3  -5 39.5377 97.3973  17
  -4  -3  -5 262.270 171.522  12
  -4  -3  -6 4575.97 584.539  17
  -4  -3  -7 1696.91 301.678  17
  -4  -4  11 3634.03 465.124  13
  -4  -4  10 534.263 164.330  16
  -4  -4  10 389.022 152.427  14
  -4  -4  10 673.752 225.006  13
  -4  -4   9 902.437 277.188  19
  -4  -4   9 510.747 195.427  16
  -4  -4   9 606.134 224.500  14
  -4  -4   9 489.601 251.917  13
  -4  -4   8 3050.57 444.936  19
  -4  -4   8 2719.96 440.506  16
  -4  -4   8 2880.15 467.276  14
  -4  -4   8 3102.65 571.575  13
  -4  -4   7 37039.1 1577.89  19
  -4  -4   7 38222.7 1686.47  16
  -4  -4   7 36139.6 1613.12  14
  -4  -4   6 20596.2 1248.58  16
  -4  -4   6 22757.5 2607.42   1
  -4  -4   6 19825.1 1138.95  14
  -4  -4   5 9767.41 825.994  16
  -4  -4   5 11075.5 1794.16   1
   4   4  -4 38622.4 3748.24   4
  -4  -4   4 50438.6 3706.34   1
  -4  -4   4 46237.5 1769.41  16
  -4  -4   4 42209.3 1688.31  24
   4   4  -3 1925.93 869.202   4
  -4  -4   3 1807.18 492.227   7
   4   4  -2 25262.6 3241.78   4
  -4  -4   2 25202.6 1899.81   7
   4   4  -1 11471.1 2299.23   4
  -4  -4   1 11993.9 1350.08   7
  -4  -4   0 5370.00 966.346   7
   4   4   0 5863.08 1642.42   4
  -4  -4   0 4320.83 749.286  12
   4   4   1 2759.00 1181.56   4
  -4  -4  -1 2920.27 759.038   7
  -4  -4  -1 2498.22 607.317  12
  -4  -4  -2 7048.49 716.575  17
  -4  -4  -2 8250.90 1247.61   7
   4   4   2 8446.81 2054.02   4
  -4  -4  -2 7683.84 1038.82  12
  -4  -4  -3 20327.9 1296.73  17
  -4  -4  -3 22281.3 2013.25   7
  -4  -4  -3 23325.1 1764.34  12
  -4  -4  -4 1755.45 396.943  17
  -4  -4  -4 1339.83 452.779   7
  -4  -4  -5 14708.1 1093.91  17
  -4  -4  -6 1047.45 292.901  17
  -4  -4  -7 251.628 113.919  17
  -4  -5  11 242.557 81.5654  13
  -4  -5  10 783.946 188.554  14
  -4  -5  10 695.046 219.942  13
  -4  -5   9 873.122 284.396  19
  -4  -5   9 494.826 193.321  14
  -4  -5   9 471.221 209.231  13
  -4  -5   8 8981.07 760.007  19
  -4  -5   8 9174.76 785.771  16
  -4  -5   8 8709.30 801.662  14
  -4  -5   8 9694.63 927.805  13
  -4  -5   7 11146.4 870.085  19
  -4  -5   7 10743.0 878.512  16
  -4  -5   7 10543.4 888.845  14
  -4  -5   6 9061.60 765.453  19
  -4  -5   6 9585.79 882.692  16
  -4  -5   6 8945.72 811.542  14
  -4  -5   5 50535.0 4002.57   1
  -4  -5   4 9559.19 1677.10   1
  -4  -5   3 5719.54 1072.57  20
  -4  -5   3 4213.20 774.724   7
  -4  -5   2 10489.6 1293.86   7
   4   5  -2 8287.34 1937.68   4
  -4  -5   1 8.09000 212.209   7
   4   5  -1-1072.28 743.977   4
   4   5   0-1055.10 751.986   4
  -4  -5   0 309.725 330.659   7
  -4  -5  -1 2186.50 671.597   7
  -4  -5  -2 4306.10 589.990  17
  -4  -5  -2 3509.22 882.606   7
  -4  -5  -3 229.900 200.283  17
  -4  -5  -3 359.754 334.611   7
  -4  -5  -4 13621.4 1051.85  17
  -4  -5  -4 12398.3 1368.45   7
  -4  -5  -5 272.650 173.026  17
   4   5   6 206.679 102.455   9
  -4  -5  -6-32.7495 107.840  17
  -4  -6  10 203.126 80.4773  14
  -4  -6   9 979.415 229.338  14
  -4  -6   8 648.823 268.237  19
  -4  -6   8-37.6794 74.8157  14
  -4  -6   7 3918.10 513.940  19
  -4  -6   7 3048.27 475.370  14
  -4  -6   6 33617.1 1497.49  19
  -4  -6   6 31586.6 1561.04  14
  -4  -6   5 5063.73 553.788  19
  -4  -6   4 1640.52 273.330  19
  -4  -6   3 3757.61 907.149  20
  -4  -6   3 3563.55 757.124   7
  -4  -6   2 573.628 429.093  20
  -4  -6   2 392.547 319.896   7
  -4  -6   1 3117.95 933.805  20
  -4  -6   1 1916.63 626.664   7
  -4  -6   0 656.288 521.593  20
  -4  -6   0 194.147 270.688   7
  -4  -6  -1 2915.90 965.805  20
  -4  -6  -1 2396.34 726.125   7
  -4  -6  -2 528.334 429.307  20
  -4  -6  -2 15.4422 63.9704  17
  -4  -6  -2 460.516 291.647   7
  -4  -6  -3 9628.16 1469.54  20
  -4  -6  -3 7584.89 744.748  17
  -4  -6  -3 6645.51 1072.20   7
  -4  -6  -4 2001.89 567.958  20
  -4  -6  -4 2754.62 452.418  17
  -4  -6  -4 2039.05 535.730   7
  -4  -6  -5 89.6869 74.6902  17
  -4  -6  -6 918.360 172.571  17
  -4  -7   9 525.772 149.857  14
  -4  -7   8 1545.81 305.113  14
  -4  -7   7 8126.94 693.654  19
  -4  -7   7 6442.45 660.545  14
  -4  -7   6 4374.17 530.695  19
  -4  -7   6 4020.08 541.062  14
  -4  -7   5 1789.24 341.814  19
  -4  -7   5 1344.56 330.673  14
  -4  -7   4 1701.99 309.958  19
  -4  -7   3 2625.25 686.915  21
  -4  -7   3 1109.89 452.607  20
  -4  -7   3 3087.51 393.891  19
  -4  -7   3 2142.23 610.435   7
  -4  -7   2 2056.16 748.296  20
  -4  -7   2 2355.67 678.727   7
  -4  -7   1 456.819 289.162  20
  -4  -7   1 443.712 323.231   7
  -4  -7   0 312.752 223.555  20
  -4  -7   0 473.931 368.923   7
  -4  -7  -1 1037.25 570.739  20
  -4  -7  -1 1281.97 502.189   7
  -4  -7  -2 8286.87 1367.47  20
  -4  -7  -2 6939.80 1134.42   7
  -4  -7  -3 7936.87 1205.55  20
  -4  -7  -3 8951.71 719.891  17
  -4  -7  -3 7214.87 1024.27   7
  -4  -7  -4-28.8781 81.1296  17
  -4  -7  -5 6309.97 426.387  17
   4   7   5 5657.28 514.324  25
  -4  -8   8 4275.48 410.184  14
  -4  -8   7 1351.71 268.065  14
  -4  -8   6 7507.36 677.455  14
  -4  -8   5 15638.2 865.109  19
  -4  -8   5 15568.8 1026.42  14
  -4  -8   4 2700.00 364.379  19
  -4  -8   3 1435.98 551.759  21
  -4  -8   2 6939.22 1110.87  21
  -4  -8   2 6671.53 1240.26  20
  -4  -8   2 7115.82 1062.77   7
  -4  -8   1 836.016 439.397  21
  -4  -8   1 479.969 235.168  20
  -4  -8   1 1132.12 432.378   7
  -4  -8   0 173.989 214.078  21
  -4  -8   0-331.220 445.020  20
  -4  -8   0 521.107 349.474   7
  -4  -8  -1 2798.41 765.255  20
  -4  -8  -1 3302.51 787.167   7
  -4  -8  -2 4523.98 819.796  21
  -4  -8  -2 5927.61 1042.43  20
  -4  -8  -2 6994.67 967.595   7
  -4  -8  -3-68.0041 175.240  21
  -4  -8  -4 612.653 203.620  21
   4   8   4 3709.43 422.616  25
  -4  -9   7 2205.55 264.607  14
  -4  -9   6 12484.7 722.485  14
  -4  -9   5 1046.04 239.023  14
  -4  -9   4 3789.58 462.642  14
  -4  -9   3 1582.17 436.613  21
  -4  -9   2 384.742 235.172  21
  -4  -9   2 548.642 296.549   7
  -4  -9   1 90.5712 172.270  21
  -4  -9   1 448.928 201.585   7
   4   9  -1 364.935 217.179  25
  -4  -9   0 1033.18 368.060  21
  -4  -9   0 788.350 360.171   7
   4   9   0 977.342 289.234  25
  -4  -9  -1 3991.07 653.956  21
   4   9   1 3370.90 505.760  25
  -4  -9  -2 448.851 223.323  21
   4   9   2 733.447 221.400  25
  -4 -10   5 279.410 75.9214  14
  -4 -10   4 1850.42 239.946  14
  -4 -10   3 483.900 131.293  14
  -4 -10   1 48.2228 79.5060  21
  -4 -10   0 707.053 229.393  21
  -5  10   5 2421.86 236.915   8
  -5  10   4 1247.53 181.172   8
  -5  10   4 805.345 221.966  26
  -5  10   3 1304.88 171.678   8
  -5  10   3 1666.90 365.076  26
  -5  10   2 29.9869 87.7469  26
  -5  10   1 85.7412 153.105  26
  -5  10  -1 2078.30 317.820  12
  -5  10  -2 2930.16 328.645  12
  -5   9   7 580.982 178.790  11
  -5   9   7 500.100 118.650   8
  -5   9   6 5885.53 647.437  11
  -5   9   6 4484.97 409.780   8
  -5   9   5 5240.94 662.947  11
  -5   9   5 3937.47 418.177   8
  -5   9   4 21.7080 152.912  11
  -5   9   4-61.4444 43.6171   8
  -5   9   4 124.253 158.880  26
  -5   9   3 165.040 133.356  11
  -5   9   3 268.194 107.921  26
  -5   9   2 719.135 273.961  26
  -5   9   1 503.299 269.853  26
  -5   9   0 320.619 246.561  26
  -5   9  -2 2097.34 378.504  12
  -5   9  -3 1052.26 236.176  12
  -5   8   8 2233.58 381.938  11
  -5   8   8 1709.34 230.970   8
  -5   8   7 7877.09 858.642  11
  -5   8   7 7695.28 590.001   8
  -5   8   6 6653.52 874.528  11
  -5   8   6 6471.05 596.981   8
  -5   8   5-60.6404 212.482  11
  -5   8   4 483.117 276.459  11
  -5   8   4 823.244 344.321  26
  -5   8   3 540.033 282.115  11
  -5   8   3 51.9702 206.506  26
  -5   8   2 1280.12 497.334  26
  -5   8   1 626.299 351.554  26
  -5   8   0 6869.18 1076.49  26
  -5   8  -3 15190.0 1113.82  12
  -5   8  -4 126.097 82.8623  12
  -5   7   9 2283.04 362.018  11
  -5   7   9 1984.59 234.589   8
  -5   7   8 8479.98 909.083  11
  -5   7   8 8913.16 639.900   8
  -5   7   7 3133.84 638.891  11
  -5   7   7 3503.14 467.800   8
  -5   7   6 2256.09 580.843  11
  -5   7   6 2830.37 447.346   8
  -5   7   5 2299.87 578.404  11
  -5   7   4 825.652 392.707  11
  -5   7   4 532.305 302.911  26
  -5   7   3 376.770 193.149  11
  -5   7   3 0.89051 189.803  26
  -5   7   2 113.606 226.057  11
  -5   7   2 31.0218 168.859  26
  -5   7   1 8137.25 1259.26  26
   5  -7   0 5868.85 1027.91   5
  -5   7   0 5225.38 1021.64  26
   5  -7   1 7654.77 1183.79   5
   5  -7   2 22312.2 1991.82   5
   5  -7   3 765.551 404.530   5
  -5   7  -3 163.093 150.719  12
  -5   7  -4 6686.78 729.120  12
   5  -7   4 8276.03 1061.29   5
  -5   7  -5 1878.35 301.552  12
  -5   6   9 8217.05 831.448  11
  -5   6   9 9055.78 613.595   8
  -5   6   8 7697.39 969.699  11
  -5   6   8 9809.53 764.062   8
  -5   6   8 10407.5 887.013   6
  -5   6   7 888.625 356.639  11
  -5   6   7 1404.75 329.532   8
  -5   6   7 2008.97 432.475   6
  -5   6   6 34429.9 1663.76   8
  -5   6   6 37798.9 1917.75   6
  -5   6   5-127.552 304.545  11
  -5   6   4 307.732 217.439  11
  -5   6   4 330.121 275.258  26
  -5   6   3 580.209 318.025  11
  -5   6   3 758.802 392.793  26
  -5   6   2-63.7081 162.002  11
  -5   6   2 564.344 243.999  26
  -5   6   1 6324.36 1127.98  26
  -5   6   1 6326.88 860.591  11
   5  -6   0 1211.44 460.146   5
  -5   6   0 1550.63 594.915  26
   5  -6   1 19674.5 1926.22   5
   5  -6   2 815.767 399.396   5
   5  -6   3 5363.39 1049.93   5
  -5   6  -3 4333.26 723.746  12
  -5   6  -4 8568.18 922.107  12
   5  -6   4 9470.62 1286.96   5
   5  -6   5 90.1325 131.557   5
  -5   6  -5 206.698 134.669  12
   5  -6   6 2907.12 402.626  23
  -5   5  10 5782.31 413.647   8
  -5   5  10 4955.31 376.766  16
  -5   5   9 5388.99 710.117  11
  -5   5   9 5700.54 545.960   8
  -5   5   9 5736.09 494.994  16
  -5   5   9 5816.97 688.764   6
  -5   5   8 255.229 143.549  11
  -5   5   8 848.427 253.834   8
  -5   5   8 749.918 300.809   6
  -5   5   7 7091.84 758.786   8
  -5   5   7 6282.11 858.449   6
  -5   5   6 2294.05 571.242  11
  -5   5   6 4548.07 621.137   8
  -5   5   5-12.4832 271.507  11
  -5   5   5 83.6881 80.2618   8
  -5   5   4 1321.94 446.559  11
  -5   5   4 1689.69 718.318   2
  -5   5   3-152.451 119.041  11
  -5   5   3 756.337 466.953   2
  -5   5   3 357.360 273.853  26
  -5   5   2 7386.82 1002.68  11
  -5   5   2 7051.64 1100.89  26
  -5   5   2 6972.30 1550.97   2
  -5   5   1 11106.3 1918.02   2
  -5   5   1 10359.1 1372.21  26
  -5   5   1 11545.9 1183.08  11
  -5   5   0 14652.1 2254.71   2
  -5   5   0 16616.0 1757.90  26
   5  -5   0 16576.1 1694.90   5
  -5   5  -2 16390.9 1375.28  15
  -5   5  -2 12739.6 1321.98  12
  -5   5  -3 7068.06 957.437  12
  -5   5  -4 1127.67 382.728  12
   5  -5   5 470.165 333.764   5
  -5   5  -5 1015.89 289.830  12
  -5   5  -6 464.017 146.703  12
   5  -5   6 822.186 260.285  23
  -5   4  11 1854.03 213.602  16
  -5   4  10 6026.58 473.530   8
  -5   4  10 5725.30 503.305  16
  -5   4  10 6034.14 673.808   6
  -5   4   9 524.875 295.769  11
  -5   4   9 479.710 183.246   8
  -5   4   9 441.820 171.340  16
  -5   4   9 746.986 297.864   6
  -5   4   8 9247.80 1170.63  11
  -5   4   8 10128.0 881.785   8
  -5   4   8 8094.12 721.227  16
  -5   4   8 11569.8 1188.70   6
  -5   4   7 5243.39 926.115  11
  -5   4   7 7684.38 781.584   8
  -5   4   6-143.670 314.478  11
  -5   4   6 252.251 217.062   8
  -5   4   5 777.904 335.098  11
  -5   4   5 1112.52 314.133   8
  -5   4   5 460.826 375.096   2
  -5   4   4-178.148 228.900  11
  -5   4   4 114.872 128.747   8
  -5   4   4 26.7005 131.657   2
  -5   4   3 2080.92 551.006  11
  -5   4   3 1696.16 331.031   8
  -5   4   3 2245.20 798.553   2
  -5   4   3 2360.74 601.236  26
  -5   4   2 8340.24 1055.29  11
  -5   4   2 6603.95 1422.71   2
  -5   4   2 8159.71 1097.41  26
  -5   4   1 9672.65 1756.70   2
  -5   4   1 10249.8 1258.74  26
  -5   4   1 11183.8 1157.83  11
  -5   4   0 141.085 225.667   2
  -5   4  -1 11618.9 1959.90   2
  -5   4  -1 17426.0 2839.35   3
  -5   4  -1 13846.9 1350.66  12
  -5   4  -2 12357.8 1323.23  12
  -5   4  -2 16801.1 1411.59  15
  -5   4  -3 8841.46 1080.93  12
  -5   4  -4 3137.47 594.709  12
  -5   4  -5-5.63693 99.9900  12
  -5   4  -6 4072.68 472.613  12
  -5   4  -7 101.521 57.0359  17
   5  -4   7-60.2930 42.7548  23
  -5   3  11 801.266 175.500  16
  -5   3  10 5768.36 498.222   8
  -5   3  10 5415.62 545.778  16
  -5   3  10 6264.60 759.232   6
  -5   3   9 9573.48 773.213   8
  -5   3   9 8390.30 755.773  16
  -5   3   9 9650.57 1061.42   6
  -5   3   8 4570.67 809.235  11
  -5   3   8 4675.30 602.685   8
  -5   3   8 4336.87 562.810  16
  -5   3   8 4183.57 741.502   6
  -5   3   7 53.1873 174.177  11
  -5   3   7 6.88682 97.2432   8
  -5   3   7-27.4999 71.9675  16
  -5   3   6 2718.66 638.446  11
  -5   3   6 2732.42 483.339   8
  -5   3   6 3820.54 1029.05   2
  -5   3   5 1047.50 406.539  11
  -5   3   5 797.744 237.060   8
  -5   3   5 1306.77 612.128   2
  -5   3   4 4943.90 842.322  11
  -5   3   4 4271.54 534.063   8
  -5   3   4 4977.38 1193.56   2
  -5   3   3 11731.0 1856.21   2
  -5   3   2 12090.4 1865.61   2
  -5   3   1 5261.94 1217.30   2
  -5   3   0 19963.2 2436.76   2
  -5   3   0 19408.0 1432.67  18
  -5   3   0 20788.1 2905.47   3
  -5   3   0 20440.6 1486.50  12
  -5   3  -1 22852.4 2556.89   2
  -5   3  -1 25405.4 3358.93   3
  -5   3  -1 26461.8 1810.18  12
  -5   3  -2 351.656 435.558   3
  -5   3  -2 1140.65 358.919  15
  -5   3  -2 987.624 376.745  12
  -5   3  -3 12065.6 1236.93  12
  -5   3  -4 9141.62 1051.15  12
  -5   3  -5 919.828 298.610  12
  -5   3  -6 1871.37 339.925  12
   5  -3   6 2105.41 417.185  23
  -5   3  -7 1171.74 201.284  17
   5  -3   7 439.348 124.560  23
  -5   2  12 209.019 59.0835  16
  -5   2  11 1714.27 345.028   6
  -5   2  11 1563.87 263.851  16
  -5   2  10 13794.0 807.255   8
  -5   2  10 13026.7 910.326  16
  -5   2  10 13890.5 1149.23   6
  -5   2   9 3741.67 487.915   8
  -5   2   9 3832.15 534.996  16
  -5   2   9 3601.06 666.108   6
  -5   2   8 826.867 251.668   8
  -5   2   8 750.558 259.297  16
  -5   2   7 15865.0 1471.09  11
  -5   2   7 13671.8 1033.14   8
  -5   2   7 14725.0 1044.29  16
  -5   2   6 18328.1 1583.02  11
  -5   2   6 14440.9 1026.40   8
  -5   2   6 15930.4 1004.48  16
  -5   2   6 16069.1 2134.36   2
  -5   2   5 448.525 333.822  11
  -5   2   5 54.2825 82.5373   8
  -5   2   5 88.4208 181.789   2
  -5   2   4 11361.3 1751.61   2
  -5   2   3 16656.9 2116.42   2
  -5   2   2 15486.9 2026.81   2
  -5   2   1 1486.61 646.217   2
  -5   2   0 12311.6 1768.56   2
  -5   2   0 13847.2 2207.70   3
  -5   2  -1 1405.33 768.057   3
  -5   2  -1 835.196 273.220  18
  -5   2  -1 1276.42 379.324  15
  -5   2  -1 1014.97 259.786  12
  -5   2  -2 20449.3 1610.51  15
  -5   2  -2 22795.0 3280.48   3
  -5   2  -2 22088.2 1628.17  12
  -5   2  -3 19891.8 1558.12  15
  -5   2  -3 27245.6 1834.32  12
  -5   2  -4 352.119 216.370  12
  -5   2  -5 2392.79 487.782  12
  -5   2  -6 342.890 193.968  12
   5  -2   6 501.010 216.341  23
  -5   2  -7 4007.82 391.081  17
  -5   1  12 89.5108 42.7612  16
  -5   1  11 12620.3 779.061  16
  -5   1  11 13854.6 941.280   6
  -5   1  10 7576.29 713.990  16
  -5   1  10 7219.42 845.948   6
  -5   1   9 1098.95 276.689   8
  -5   1   9 1184.12 309.368  16
  -5   1   9 756.489 302.302   6
  -5   1   8 17872.3 1133.45   8
  -5   1   8 17987.7 1218.55  16
  -5   1   8 18406.2 1486.64  13
  -5   1   7 6240.59 671.563   8
  -5   1   7 6548.50 1389.48   2
  -5   1   7 6933.74 726.853  16
  -5   1   7 8172.63 1004.32  13
  -5   1   6 349.178 189.203  11
  -5   1   6 347.046 163.727   8
  -5   1   6 347.664 321.653   2
  -5   1   6 380.667 166.078  16
  -5   1   6 522.041 175.697  24
  -5   1   5 4.54836 90.1377   8
  -5   1   5-187.776 238.866   2
  -5   1   4 17686.0 2143.35   2
  -5   1   3 7440.77 1357.50   2
  -5   1   2 1963.09 697.168   2
  -5   1   1 63393.3 3796.86   2
  -5   1   0 1438.09 761.125   3
  -5   1   0 903.329 441.234   2
  -5   1  -1 12227.4 1093.36  18
  -5   1  -1 11947.8 1231.82  15
  -5   1  -1 12682.4 2261.57   3
  -5   1  -1 14294.4 1228.85  12
  -5   1  -2 38757.9 2291.52  15
  -5   1  -2 49866.3 4776.83   3
  -5   1  -2 46322.4 2348.30  12
  -5   1  -3 5783.13 870.353  12
  -5   1  -4 4905.85 753.238  12
  -5   1  -5 1126.74 342.708  12
  -5   1  -6 574.788 215.275  12
  -5   1  -7 71.1398 52.3327  17
  -5   0  12 7224.27 424.019  16
  -5   0  11 16508.6 896.548  16
  -5   0  11 15456.1 947.901   6
  -5   0  10 161.764 157.627  16
  -5   0  10 81.1890 100.809   6
  -5   0   9 9965.81 895.491  16
  -5   0   9 8053.66 958.979   6
  -5   0   9 7783.84 932.825  13
  -5   0   8 12081.5 921.345   8
  -5   0   8 12087.0 1003.82  16
  -5   0   8 10049.2 1065.70  13
  -5   0   7 2419.04 422.194   8
  -5   0   7 2094.03 788.765   2
  -5   0   7 2723.00 466.499  16
  -5   0   7 2168.05 502.303  13
  -5   0   7 1947.71 362.286  24
  -5   0   6 5807.44 630.641   8
  -5   0   6 6794.13 691.150  16
  -5   0   6 6265.50 1322.41   2
  -5   0   6 5404.44 721.491  13
  -5   0   6 5835.66 601.417  24
  -5   0   5 451.891 159.238   8
  -5   0   5 731.881 444.953   2
  -5   0   4 7383.57 1348.36   2
  -5   0   3 20373.4 2168.11   2
  -5   0   2 16627.1 1882.00   2
  -5   0   1 6133.70 1311.82   3
  -5   0   1 5086.31 992.576   2
  -5   0   0 44796.6 4040.95   3
  -5   0  -1 4714.73 1374.26   3
  -5   0  -1 4214.99 769.428  15
  -5   0  -1 4283.30 685.242  12
  -5   0  -2 709.776 574.493   3
   5   0   2 265.342 360.762   4
  -5   0  -2 188.738 272.984  12
  -5   0  -3 5726.64 869.887  12
  -5   0  -4 1847.27 502.343  12
  -5   0  -5-226.246 212.668  12
  -5   0  -6 92.5959 138.831  17
  -5   0  -6-76.5878 64.2157  12
  -5   0  -7 1462.51 236.552  17
  -5  -1  12 1890.38 207.669  16
  -5  -1  11-4.82701 82.7622  16
  -5  -1  10 10127.8 814.981  16
  -5  -1  10 8577.52 794.328   6
  -5  -1  10 8567.66 903.562  13
  -5  -1   9 1215.92 325.107  16
  -5  -1   9 1467.58 419.843  13
  -5  -1   9 1176.01 348.012   6
  -5  -1   8 5657.30 699.191  16
  -5  -1   8 5185.12 782.884  13
  -5  -1   7 9216.98 835.524   8
  -5  -1   7 10001.4 898.755  16
  -5  -1   7 8457.76 950.142  13
  -5  -1   7 8071.82 757.367  24
  -5  -1   6 1382.49 628.937   2
  -5  -1   6 1144.87 286.625   8
  -5  -1   6 1297.81 312.499  16
  -5  -1   6 1027.48 339.697  13
  -5  -1   6 1565.50 617.811   1
  -5  -1   6 1298.64 303.726  24
  -5  -1   5 926.416 463.521   1
  -5  -1   5 1537.13 336.082   8
  -5  -1   5 843.011 500.852   2
  -5  -1   5 1343.09 272.384  16
  -5  -1   5 1682.84 333.856  24
  -5  -1   4 18634.8 2116.20   2
  -5  -1   4 18896.8 1935.19   1
  -5  -1   3 12390.5 1516.35   1
  -5  -1   3 14341.4 1749.33   2
  -5  -1   2-571.249 328.732   2
  -5  -1   2 356.587 262.817   7
  -5  -1   1 15086.2 1518.63   7
  -5  -1   0 11225.6 1367.70   7
  -5  -1   0 10322.8 1054.98  12
  -5  -1  -1 4809.39 958.699   7
   5   1   1 4658.75 1471.54   4
  -5  -1  -1 3700.38 666.950  12
   5   1   2 1774.19 890.725   4
  -5  -1  -2 923.291 378.081  12
  -5  -1  -3 3161.16 662.785  12
  -5  -1  -4 1968.71 500.361  12
  -5  -1  -5 723.608 254.622  17
  -5  -1  -5 910.902 358.169  12
  -5  -1  -6 994.147 254.293  17
  -5  -1  -6 811.515 248.026  12
  -5  -1  -7 838.725 176.040  17
  -5  -2  11 8627.52 594.929  16
  -5  -2  10 5024.93 554.820  16
  -5  -2  10 4085.92 608.154  13
  -5  -2   9 4422.12 462.874  19
  -5  -2   9 5263.83 621.135  16
  -5  -2   9 3866.98 644.233  13
  -5  -2   8 485.429 175.686  16
  -5  -2   8 449.124 247.904  13
  -5  -2   7 3938.99 553.856  16
  -5  -2   7 3004.83 579.042  13
  -5  -2   6 485.762 362.578   1
  -5  -2   6 655.272 432.320   2
  -5  -2   6 300.506 120.197  16
  -5  -2   6 465.060 242.852  13
  -5  -2   6 532.284 240.690  24
  -5  -2   5 5908.73 1252.80   2
  -5  -2   5 7255.41 719.569  16
  -5  -2   5 6663.58 1275.74   1
  -5  -2   5 7168.63 711.830  24
  -5  -2   4 10128.6 1563.77   1
   5   2  -4 11324.1 2093.95   4
  -5  -2   4 11212.3 859.355  16
  -5  -2   4 11507.3 1641.06   2
  -5  -2   4 11426.1 861.645  24
  -5  -2   3 1488.30 547.413   2
  -5  -2   3 1584.74 497.656   7
   5   2  -3 1051.30 659.382   4
  -5  -2   3 1249.95 279.888  24
   5   2  -2 32080.0 3719.94   4
  -5  -2   2 40893.3 2520.84   7
   5   2  -1 46057.1 4595.76   4
  -5  -2   1 49065.0 2862.23   7
  -5  -2   1 47023.9 2162.87  12
  -5  -2   1 56066.8 1752.55  24
  -5  -2   0 235.825 243.335   7
   5   2   0 456.976 483.385   4
  -5  -2   0 389.693 139.741  24
  -5  -2   0 196.083 100.646  12
  -5  -2  -1 1345.15 529.440   7
  -5  -2  -1 1430.99 432.784  12
  -5  -2  -2 4755.89 991.941   7
  -5  -2  -2 4139.36 798.799  12
  -5  -2  -3 319.001 196.837  12
  -5  -2  -4 1764.09 384.930  17
  -5  -2  -4 1598.87 466.780  12
  -5  -2  -5 50.2419 129.554  17
  -5  -2  -5 129.732 171.093  12
  -5  -2  -6 935.873 231.555  17
  -5  -2  -7 276.160 88.7668  17
  -5  -3  11 6780.27 476.909  16
  -5  -3  10 875.116 219.734  16
  -5  -3  10 528.747 187.287  13
  -5  -3   9 4628.42 476.813  19
  -5  -3   9 5178.74 604.364  16
  -5  -3   9 4089.72 626.838  13
  -5  -3   8 11447.6 825.575  19
  -5  -3   8 13503.5 1030.06  16
  -5  -3   8 12008.6 1129.24  13
  -5  -3   7 5853.97 703.282  16
  -5  -3   7 5125.04 715.803  13
  -5  -3   6 314.929 167.293  16
  -5  -3   5 8454.11 1487.33   2
  -5  -3   5 8525.69 812.759  16
  -5  -3   5 7448.37 1409.95   1
  -5  -3   5 7617.84 781.679  24
  -5  -3   4 4051.71 973.248   2
   5   3  -4 3477.71 1159.45   4
  -5  -3   4 3444.22 953.204   1
  -5  -3   4 3634.74 521.251  24
  -5  -3   3 6512.21 992.607   7
   5   3  -3 5536.99 1570.35   4
  -5  -3   3 7565.21 705.530  24
   5   3  -2 32537.6 3915.87   4
  -5  -3   2 34752.7 2403.30   7
  -5  -3   2 28652.2 1716.94  12
  -5  -3   2 38677.8 1537.62  24
   5   3  -1 5457.31 1631.18   4
  -5  -3   1 4676.59 928.209   7
  -5  -3   1 4196.94 702.522  12
  -5  -3   1 5901.05 584.835  24
  -5  -3   0 6744.30 1135.57   7
   5   3   0 8652.13 2090.06   4
  -5  -3   0 6446.09 927.107  12
  -5  -3  -1 11707.4 1538.86   7
  -5  -3  -1 12384.2 1328.55  12
  -5  -3  -2-12.6100 66.6600  17
  -5  -3  -2-6.06281 333.177   7
  -5  -3  -2 104.096 95.5984  12
  -5  -3  -3 6861.00 743.335  17
  -5  -3  -3 8338.99 1228.12   7
  -5  -3  -3 7004.31 1002.93  12
  -5  -3  -4 502.413 189.951  17
  -5  -3  -4 696.460 309.526  12
  -5  -3  -5 54.5884 107.211  17
  -5  -3  -6 137.999 93.9884  17
  -5  -4  10 13061.5 892.680  13
  -5  -4   9 3197.76 412.396  19
  -5  -4   9 3120.14 460.270  16
  -5  -4   9 2886.02 476.156  13
  -5  -4   8-105.855 189.765  19
  -5  -4   8 465.874 217.735  16
  -5  -4   8 389.550 165.797  13
  -5  -4   7 3912.28 585.878  16
  -5  -4   6 3885.98 610.114  16
  -5  -4   4 1743.00 669.734   1
  -5  -4   4 1499.43 372.220  24
   5   4  -3 24971.3 3422.42   4
  -5  -4   3 28371.7 2167.20   7
  -5  -4   3 33986.9 1568.63  24
   5   4  -2 436.153 474.766   4
  -5  -4   2 705.216 389.310   7
  -5  -4   2 1134.64 294.206  24
  -5  -4   1 8659.25 1299.51   7
  -5  -4   0 15007.2 1745.91   7
  -5  -4   0 16750.8 1517.13  12
  -5  -4  -1 2440.89 752.582   7
  -5  -4  -1 2285.82 580.382  12
  -5  -4  -2 1603.04 347.245  17
  -5  -4  -2 1558.26 492.563   7
  -5  -4  -2 1438.35 474.422  12
  -5  -4  -3 1783.86 349.080  17
  -5  -4  -3 2365.39 627.221   7
  -5  -4  -4 329.733 243.078  20
  -5  -4  -4 109.236 76.4026  17
  -5  -4  -5 261.767 134.982  17
  -5  -4  -6 1367.02 195.355  17
  -5  -5   9 1354.09 302.474  19
  -5  -5   8 4871.97 542.705  19
  -5  -5   7 95.3136 177.666  19
  -5  -5   3 2609.89 768.592  20
  -5  -5   3 992.417 363.256   7
  -5  -5   2 6830.16 1128.50   7
  -5  -5   1 5907.19 1078.39   7
  -5  -5   0 126.514 164.420   7
  -5  -5  -1-120.799 195.185   7
  -5  -5  -2 2361.73 631.926   7
  -5  -5  -3 3.83574 121.910  17
  -5  -5  -3-352.108 335.453   7
  -5  -5  -4-220.805 159.152  20
  -5  -5  -4 68.2949 101.107  17
  -5  -5  -5 10366.7 580.101  17
  -5  -6   8 407.928 207.098  19
  -5  -6   8 124.226 82.6362  14
  -5  -6   7 766.875 234.077  19
  -5  -6   7 508.836 160.778  14
  -5  -6   6-160.078 185.372  19
  -5  -6   6 201.288 128.560  14
  -5  -6   5 4882.25 528.924  19
  -5  -6   4-390.646 294.091  19
  -5  -6   3 20188.2 2137.03  20
  -5  -6   3 15693.5 1607.45   7
  -5  -6   2 15869.2 1972.09  20
  -5  -6   2 10661.0 1401.88   7
  -5  -6   1 496.134 426.138  20
  -5  -6   1 49.8393 141.066   7
  -5  -6   0 3917.86 1055.22  20
  -5  -6   0 2382.56 649.878   7
  -5  -6  -1 1785.54 708.803  20
  -5  -6  -1 888.979 412.344   7
  -5  -6  -2 701.850 458.916  20
  -5  -6  -2-35.9625 207.016   7
  -5  -6  -3 202.913 221.707  20
  -5  -6  -3 67.6533 110.719   7
  -5  -6  -4 357.554 186.850  20
  -5  -7   8 25.5309 39.2820  14
  -5  -7   7 2519.42 353.891  19
  -5  -7   7 1741.30 260.245  14
  -5  -7   6 2385.55 362.354  19
  -5  -7   6 1555.47 273.573  14
  -5  -7   5 1363.89 276.301  19
  -5  -7   5 1418.50 262.850  14
  -5  -7   4 18253.0 914.900  19
  -5  -7   4 16431.9 945.998  14
  -5  -7   3 1003.36 447.493  20
  -5  -7   3 1025.12 443.136   7
  -5  -7   2 5250.64 876.639  21
  -5  -7   2 6617.52 1216.11  20
  -5  -7   2 5161.04 897.480   7
  -5  -7   1 3159.49 865.136  20
  -5  -7   1 2915.15 701.886   7
  -5  -7   0 1570.74 570.226  20
  -5  -7   0 1306.09 498.525   7
  -5  -7  -1 1216.94 465.230  20
  -5  -7  -1 794.489 343.405   7
  -5  -7  -2 618.870 293.837  20
  -5  -7  -2 978.971 396.027   7
  -5  -8   6 781.793 159.168  14
  -5  -8   5 2620.93 313.173  14
  -5  -8   4 8392.65 586.105  14
  -5  -8   3 10975.6 669.947  14
  -5  -8   2 10102.5 1047.96  21
  -5  -8   2 10504.4 1142.72   7
  -5  -8   1 3467.69 646.655  21
  -5  -8   1 2209.65 625.122  20
  -5  -8   1 2260.40 530.405   7
   5   8  -1 2642.38 440.648  25
  -5  -8   0 349.636 230.254  21
  -5  -8   0 502.476 302.040  20
  -5  -8   0 195.516 210.724   7
  -5  -8  -1 372.095 229.335  21
  -5  -8  -2 731.291 252.717  21
   5   8   2 971.605 222.896  25
  -5  -9   2 3470.50 428.271  21
  -5  -9   1 246.983 169.064  21
  -6   9   6 206.719 91.1603  11
  -6   9   5 2891.32 247.238   8
  -6   9   5 3042.08 386.747  11
  -6   9   2 970.750 220.452  18
  -6   9   1 487.930 162.829  12
  -6   9   0 221.659 118.668  15
  -6   9   0 402.108 144.509  12
  -6   9  -1 24.0549 73.9124  12
  -6   8   7 184.867 102.627  11
  -6   8   7 68.8423 48.6039   8
  -6   8   6 6247.69 481.875   8
  -6   8   6 6679.34 723.829  11
  -6   8   5 1522.08 367.622  11
  -6   8   5 1210.42 222.694   8
  -6   8   4 2125.17 450.119  11
  -6   8   4 1448.42 235.303   8
  -6   8   3 7072.41 766.966  11
  -6   8   1 1143.10 284.398  18
  -6   8   1 1316.52 323.274  12
  -6   8   0 2705.43 458.420  12
  -6   8  -1 569.165 224.124  12
  -6   8  -2 83.3364 83.0783  12
  -6   8  -3 788.082 167.812  12
  -6   7   8 86.4154 122.522  11
  -6   7   8 14.7480 50.4734  18
  -6   7   8 193.821 85.2675   8
  -6   7   7 1147.03 333.404  11
  -6   7   7 828.524 199.128   8
  -6   7   6 2501.77 538.184  11
  -6   7   6 2134.29 334.560   8
  -6   7   5 407.734 277.993  11
  -6   7   5 129.051 94.3468   8
  -6   7   4 6194.20 575.317   8
  -6   7   4 11406.2 1177.63  11
  -6   7   3 7431.46 919.917  11
  -6   7   1 3796.16 606.569  18
  -6   7   1 2390.64 492.013  12
  -6   7   0 211.198 150.866  12
  -6   7  -1 1627.25 382.163  15
  -6   7  -1 1308.51 362.534  12
  -6   7  -2 103.470 99.2113  12
  -6   7  -3 5350.94 558.990  12
  -6   7  -4 1119.84 196.692  12
  -6   6   9 48.4600 69.9968  11
  -6   6   9 160.984 59.1088   8
  -6   6   8 1886.44 425.480  11
  -6   6   8 1154.59 259.992  18
  -6   6   8 2160.37 319.751   8
  -6   6   7 1193.64 398.722  11
  -6   6   7 1250.68 270.662   8
  -6   6   7 1272.03 317.824   6
  -6   6   6 2835.85 621.915  11
  -6   6   6 3684.49 490.788   8
  -6   6   5 26126.5 1940.19  11
  -6   6   5 27239.0 1349.43   8
  -6   6   4 10508.5 814.703   8
  -6   6   4 12013.7 1316.83  11
  -6   6   3 1274.84 444.124  11
  -6   6   2 14725.4 1155.07  12
  -6   6   2 14794.1 1360.16  11
  -6   6   1 5947.20 832.719  18
  -6   6   1 6371.38 848.756  12
  -6   6   0 228.743 165.966  18
  -6   6   0 121.112 141.619  12
  -6   6  -1 189.718 179.810  15
  -6   6  -1 208.461 143.588  12
   6  -6   2 1989.84 569.670   5
  -6   6  -2 2612.08 515.628  12
   6  -6   3 1964.39 463.237   5
  -6   6  -3 2772.17 478.079  12
  -6   6  -4 284.953 132.697  12
  -6   5  10 272.801 87.4073   8
  -6   5   9 133.207 156.951  11
  -6   5   9 6.56993 42.7987   8
  -6   5   9-83.7361 146.508   6
  -6   5   8 816.686 330.528  11
  -6   5   8 898.891 268.896  18
  -6   5   8 1053.56 261.188   8
  -6   5   8 1155.71 347.610   6
  -6   5   7 615.208 317.296  11
  -6   5   7 559.854 203.879   8
  -6   5   6 23703.7 1906.18  11
  -6   5   6 21759.0 1258.66   8
  -6   5   5 1703.83 532.663  11
  -6   5   5 1236.84 314.140   8
  -6   5   4 1760.92 533.597  11
  -6   5   4 1625.70 355.055   8
  -6   5   3 16767.0 1581.20  11
  -6   5   2 17610.3 1316.89  12
  -6   5   2 19021.9 1622.72  11
  -6   5   1 3518.88 670.322  18
  -6   5   1 3598.28 656.868  12
  -6   5   0 0.56506 67.9722  18
  -6   5   0 9.99144 120.162  12
  -6   5  -1 6231.85 887.756  15
  -6   5  -1 5206.42 828.686  12
  -6   5  -2 2936.72 541.192  15
  -6   5  -2 3314.47 626.902  12
   6  -5   2 2746.57 647.521   5
   6  -5   3 470.377 188.900   5
  -6   5  -3 762.113 303.120  12
   6  -5   4 616.800 372.134   5
  -6   5  -4 1503.96 332.389  12
  -6   5  -5 583.304 146.483  12
   6  -5   5 593.273 182.060  23
  -6   4  10 619.711 148.141   8
  -6   4   9 119.903 140.129  11
  -6   4   9 161.562 97.5209   8
  -6   4   9 179.962 91.8383   6
  -6   4   8 320.788 225.499  11
  -6   4   8 343.881 146.231   8
  -6   4   8 511.253 255.794   6
  -6   4   7 6378.01 687.729   8
  -6   4   7 6804.09 990.285  11
  -6   4   6 12662.0 991.060   8
  -6   4   6 13463.4 1489.66  11
  -6   4   5 1070.31 431.709  11
  -6   4   5 855.670 280.658   8
  -6   4   4 13481.2 963.224   8
  -6   4   4 15631.1 1577.81  11
  -6   4   3 7717.31 1092.78  11
  -6   4   1 514.728 256.702  18
  -6   4   1 438.866 217.779  12
  -6   4   0 69.1905 121.836  18
  -6   4   0 141.728 255.327  15
  -6   4   0 280.386 220.144  12
  -6   4  -1 1920.28 515.184  15
  -6   4  -1 1354.88 417.542  12
  -6   4  -2 3084.66 602.385  15
  -6   4  -2 3500.28 669.966  12
  -6   4  -3 968.494 324.460  12
  -6   4  -4 3117.82 502.551  12
  -6   4  -5 3015.88 389.642  12
  -6   3  10 440.906 139.562   8
  -6   3  10 184.566 73.9798  16
  -6   3  10 460.581 212.201   6
  -6   3   9 4545.24 503.622   8
  -6   3   9 3303.52 396.377  16
  -6   3   9 4209.34 655.921   6
  -6   3   8 9231.60 798.666   8
  -6   3   8 7745.16 966.324  11
  -6   3   7 7363.67 915.981  18
  -6   3   7 8688.54 827.566   8
  -6   3   7 7983.63 1076.27  11
  -6   3   6 237.547 217.634  11
  -6   3   6 26.6892 99.2562   8
  -6   3   5 12646.3 979.667   8
  -6   3   5 13103.7 885.130  24
  -6   3   5 13380.3 1483.27  11
  -6   3   4 8040.62 736.949   8
  -6   3   4 9145.10 1199.26  11
  -6   3   3 3047.04 700.148  11
  -6   3   3 3131.82 679.562  18
  -6   3   2 25557.5 1863.47  18
  -6   3   1 2151.38 538.717  18
  -6   3   1 3447.60 753.118  15
  -6   3   1 2295.08 505.735  12
  -6   3   0 1303.09 409.861  18
  -6   3   0 1785.48 540.732  15
  -6   3   0 1713.16 486.095  12
  -6   3  -1 245.507 254.244  15
  -6   3  -1 560.526 310.432  12
  -6   3  -2 11735.5 1230.85  15
  -6   3  -2 13089.6 1263.39  12
  -6   3  -3 8998.20 1014.33  12
  -6   3  -4 10382.1 964.202  12
  -6   3  -5 10457.4 780.531  12
   6  -3   5 6194.23 571.297  23
  -6   2  11 54.9830 31.8683  16
  -6   2  10 1089.99 218.680  16
  -6   2  10 1403.68 344.897   6
  -6   2   9 229.072 132.507   8
  -6   2   9 192.055 123.322  16
  -6   2   9 226.677 231.637   6
  -6   2   8 9025.05 806.779   8
  -6   2   8 8811.46 742.328  16
  -6   2   8 7090.63 898.966  11
  -6   2   7 63.3435 145.483  11
  -6   2   7 396.696 241.077  18
  -6   2   7 540.822 211.938   8
  -6   2   7 647.773 207.993  16
  -6   2   6 17889.0 1483.33  18
  -6   2   6 18373.8 1181.77   8
  -6   2   6 17955.3 1036.23  24
  -6   2   6 19467.2 1687.53  11
  -6   2   5 51794.7 2620.02  18
  -6   2   5 47640.4 1856.36   8
  -6   2   5 49606.4 1780.75  24
  -6   2   5 52558.3 2798.22  11
  -6   2   4 8548.56 1073.61  18
  -6   2   4 7971.35 703.266   8
  -6   2   4 9207.01 1675.56   2
  -6   2   4 7637.76 1097.44  11
  -6   2   3 35150.3 2170.51  18
  -6   2   3 34494.2 3216.52   2
  -6   2   2 13254.6 1325.81  18
  -6   2   2 15870.6 1509.30  15
  -6   2   2 12620.5 1898.90   2
  -6   2   1 1104.70 370.615  18
  -6   2   1 1337.73 471.772  15
  -6   2   1 1432.26 377.394  12
  -6   2   0 3762.42 672.177  18
  -6   2   0 3882.22 759.980  15
  -6   2   0 4138.73 688.434  12
  -6   2  -1 1929.31 545.359  15
  -6   2  -1 1602.55 425.278  12
  -6   2  -2 3287.10 663.264  15
  -6   2  -2 5295.14 800.972  12
  -6   2  -3 3227.89 594.674  12
  -6   2  -4 13654.9 1132.57  12
  -6   2  -5 848.659 220.607  12
  -6   2  -6 1541.17 202.113  17
  -6   1  11 1593.37 225.774  16
  -6   1  10-141.932 115.131  16
  -6   1  10-168.450 173.920   6
  -6   1   9 582.770 196.618  16
  -6   1   9 321.539 236.046   6
  -6   1   8 1002.01 269.361   8
  -6   1   8 862.198 240.653  16
  -6   1   7 26270.3 1410.78   8
  -6   1   7 24921.3 1310.20  16
  -6   1   7 22189.7 1187.20  24
  -6   1   6 32960.4 1566.61   8
  -6   1   6 32247.5 1422.43  16
  -6   1   6 29492.6 1400.06  24
  -6   1   5 5628.47 856.186  18
  -6   1   5 4761.90 570.365   8
  -6   1   5 5185.66 595.712  24
  -6   1   4 17211.6 1500.86  18
  -6   1   4 15268.2 970.284   8
  -6   1   4 19038.8 1528.42  15
  -6   1   4 16578.5 2192.75   2
  -6   1   3 25227.1 1814.29  18
  -6   1   3 26763.1 1894.33  15
  -6   1   3 23161.7 2533.98   2
  -6   1   2 544.409 272.282  18
  -6   1   2 139.988 197.798   2
  -6   1   2 576.045 315.976  15
  -6   1   1 55325.1 2698.35  18
  -6   1   1 54782.7 2871.72  15
  -6   1   1 58398.2 2485.39  12
  -6   1   0 25185.0 2018.96  15
  -6   1   0 26797.8 1775.03  12
  -6   1  -1 2292.79 609.842  15
  -6   1  -1 3852.42 666.917  12
  -6   1  -2 1144.34 390.306  12
  -6   1  -3 12332.8 1191.36  12
  -6   1  -4 3098.55 554.556  12
  -6   1  -5 1217.98 257.710  17
  -6   1  -5 1686.72 342.740  12
  -6   1  -6 1180.71 180.223  17
  -6   0  11 1411.65 220.920  16
  -6   0  10 40.2138 84.0313  16
  -6   0  10 222.441 154.468   6
  -6   0   9 111.466 97.9315  16
  -6   0   9 358.666 236.760   6
  -6   0   8 11701.8 917.015  16
  -6   0   7 22055.1 1288.66   8
  -6   0   7 21037.3 1244.28  16
  -6   0   7 17867.3 1129.67  24
  -6   0   6 430.134 248.142  18
  -6   0   6 160.622 143.650   8
  -6   0   6 172.255 81.7817  16
  -6   0   6 209.847 174.060  24
  -6   0   5 25030.5 1732.35  18
  -6   0   5 24807.4 1326.29   8
  -6   0   5 23646.2 1215.58  16
  -6   0   5 23346.3 1300.20  24
  -6   0   4 17711.7 1507.56  18
  -6   0   4 19494.5 1560.30  15
  -6   0   4 19390.9 2310.88   2
  -6   0   4 19295.5 1169.07  24
  -6   0   3 157.572 194.449  18
  -6   0   3-73.7386 142.046   2
  -6   0   3 275.617 245.181  15
  -6   0   2 4978.19 831.740  18
  -6   0   2 5155.75 903.902  15
  -6   0   2 5614.91 726.922  12
  -6   0   1 8031.82 1126.77  15
  -6   0   1 9757.94 1035.56  12
  -6   0   0 4913.35 921.158  15
  -6   0   0 7223.26 953.302  12
  -6   0  -1 245.059 227.662  12
  -6   0  -2 8601.39 1064.94  12
  -6   0  -3 5876.62 826.249  12
  -6   0  -4 15580.4 1240.55  12
  -6   0  -5 1583.56 295.193  17
  -6   0  -5 1803.76 364.665  12
  -6  -1  11 177.763 81.5759  16
  -6  -1  10 1179.44 243.836  16
  -6  -1   9 25260.0 1288.27  16
  -6  -1   9 19017.6 1239.98   6
  -6  -1   8 599.770 186.711  16
  -6  -1   7 431.569 153.901  16
  -6  -1   7 408.654 150.322  24
  -6  -1   6 17677.7 1150.98  16
  -6  -1   6 17457.0 1179.65  24
  -6  -1   5 12161.1 926.026  16
  -6  -1   5 13164.6 1009.21  24
  -6  -1   4 932.815 487.056   2
  -6  -1   4 505.835 241.200  15
   6   1  -4 1067.33 687.439   4
  -6  -1   4 915.986 270.458  24
  -6  -1   3 8370.07 1153.15  15
  -6  -1   3 13536.3 986.917  24
  -6  -1   2 3950.96 641.473  12
  -6  -1   2 4788.40 586.304  24
  -6  -1   1 548.177 267.078  12
  -6  -1   0 36.9636 96.9965  12
  -6  -1  -1 6129.24 906.458  12
  -6  -1  -1 6226.81 602.686  24
  -6  -1  -2 2500.29 588.010  12
  -6  -1  -3 6829.48 676.816  17
  -6  -1  -3 6443.26 888.892  12
  -6  -1  -4 910.522 240.109  17
  -6  -1  -4 1075.95 320.323  12
  -6  -1  -5 102.740 67.6425  17
  -6  -2  11 1847.87 243.079  16
  -6  -2  10 4293.71 467.381  16
  -6  -2   9 312.535 87.7388  19
  -6  -2   9 710.191 214.557  16
  -6  -2   8 2407.07 427.056  16
  -6  -2   7 21823.9 1310.40  16
  -6  -2   6 3781.44 558.125  16
  -6  -2   6 3131.37 533.410  24
  -6  -2   5 6655.90 746.499  24
  -6  -2   4 5905.80 690.311  24
  -6  -2   3 5502.72 638.543  24
  -6  -2   2 167.684 154.419  12
  -6  -2   2 442.393 192.461  24
  -6  -2   1 305.711 239.236  12
  -6  -2   1 460.050 182.361  24
  -6  -2   0 5144.03 838.920  12
  -6  -2   0 5708.60 596.908  24
  -6  -2  -1 2366.76 584.334  12
  -6  -2  -2 1387.73 303.288  17
  -6  -2  -2 1467.23 463.507  12
  -6  -2  -3 10391.9 804.233  17
  -6  -2  -3 12039.7 1216.63  12
  -6  -2  -4 1598.02 296.930  17
  -6  -2  -4 2172.61 456.901  12
  -6  -2  -5 3157.52 319.921  17
  -6  -3   9 1939.89 283.549  19
  -6  -3   9 3110.72 462.363  16
  -6  -3   8 10563.0 757.565  19
  -6  -3   8 13297.0 983.216  16
  -6  -3   7 13888.8 1048.63  16
  -6  -3   5 9673.07 913.162  24
  -6  -3   4 16155.8 1170.94  24
  -6  -3   3 3391.08 516.185  24
  -6  -3   2 5475.58 1053.00   7
  -6  -3   2 3360.66 658.554  12
  -6  -3   2 4605.33 571.926  24
  -6  -3   1 181.585 274.126   7
  -6  -3   1 81.8035 203.827  12
  -6  -3   1-9.75968 66.6206  24
  -6  -3   0 5170.60 1033.05   7
  -6  -3   0 4191.91 783.971  12
  -6  -3  -1 5306.94 854.472  12
  -6  -3  -2 12535.0 1260.47  12
  -6  -3  -3 4978.02 504.491  17
  -6  -3  -4 1117.80 390.985  20
  -6  -3  -4 1215.40 226.962  17
  -6  -4   9 12504.5 701.849  19
  -6  -4   8 9460.10 702.822  19
  -6  -4   4 478.985 240.029  24
  -6  -4   3 6281.60 1051.75   7
  -6  -4   3 6200.14 695.322  24
  -6  -4   2-117.188 175.677   7
  -6  -4   2 39.3940 108.402  24
  -6  -4   1 305.273 253.036   7
  -6  -4   0 4041.73 878.916   7
  -6  -4  -3 2213.62 588.877  20
  -6  -5   9 3024.88 326.737  19
  -6  -5   8 1588.22 280.872  19
  -6  -5   7 17659.0 969.662  19
  -6  -5   6 8322.68 677.932  19
  -6  -5   3 472.405 347.202  20
  -6  -5   3 258.896 318.499   7
  -6  -5   2 1684.83 660.347  20
  -6  -5   2 539.189 272.619   7
  -6  -5   1 408.046 568.887  20
  -6  -5   1 120.498 136.123   7
  -6  -5   0 1258.87 648.322  20
  -6  -5   0 515.958 291.035   7
  -6  -5  -1 247.068 276.424  20
  -6  -5  -2 1721.75 552.946  20
  -6  -5  -3 1599.24 406.111  20
  -6  -6   8 6469.31 476.905  19
  -6  -6   7 7570.36 564.762  19
  -6  -6   6 54.1481 88.1933  19
  -6  -6   5-320.522 165.361  19
  -6  -6   4 673.289 171.604  19
  -6  -6   3 601.935 373.108  20
  -6  -6   3 659.426 288.907   7
  -6  -6   2 208.698 294.476  20
  -6  -6   2 293.926 269.436   7
  -6  -6   1 459.644 351.855  20
  -6  -6   1 862.811 351.120   7
  -6  -6   0-1.86848 189.321  20
  -6  -6   0 349.236 331.264   7
  -6  -6  -1 3889.51 781.846  20
  -6  -6  -2 4186.36 684.725  20
  -6  -7   7 402.002 144.021  19
  -6  -7   6 4321.56 378.246  19
  -6  -7   5 620.434 174.320  19
  -6  -7   2 292.509 260.202  21
  -6  -7   2 140.310 114.029  20
  -6  -7   1 226.231 180.865  21
  -6  -7   1 229.601 146.330  20
  -6  -7   0 1187.47 311.569  21
  -6  -7   0 1214.34 418.391  20
  -6  -7  -1 913.026 254.876  21
  -6  -7  -1 1987.82 450.116  20
  -7   8   6 5.31519 38.0614  18
  -7   8   5 645.337 184.202  18
  -7   8   5 697.836 185.608  15
  -7   8   4 489.289 168.580  18
  -7   8   4 637.498 207.440  15
  -7   8   3 224.943 109.517  18
  -7   8   3 318.086 170.487  15
  -7   8   2 1248.65 207.468  18
  -7   8   2 2266.64 366.591  15
  -7   8   1 786.026 194.018  15
  -7   7   7 18.7229 36.6325  18
  -7   7   7 46.9956 26.6652   8
  -7   7   6 3676.91 477.510  18
  -7   7   6 4014.10 320.796   8
  -7   7   6 3103.21 407.553  15
  -7   7   5 235.917 160.089  18
  -7   7   5 199.180 79.7062   8
  -7   7   4 133.933 144.635  18
  -7   7   3 1080.33 288.425  18
  -7   7   2 1807.72 360.487  18
  -7   7   2 2103.23 446.714  15
  -7   7   1 107.466 129.231  15
  -7   7   1 23.6815 44.4921  12
  -7   7   0 1495.30 303.631  15
  -7   7   0 1223.97 261.162  12
  -7   7  -1 212.587 99.2041  12
  -7   6   8 2857.20 279.691   8
  -7   6   7 6372.25 631.490  18
  -7   6   7 7006.49 500.194   8
  -7   6   6 3383.84 543.180  18
  -7   6   6 3090.21 343.600   8
  -7   6   6 3766.10 536.446  15
  -7   6   5 138.137 131.814  18
  -7   6   5 285.803 115.033   8
  -7   6   4 532.016 234.887  18
  -7   6   3 839.482 309.005  18
  -7   6   2 759.232 288.895  18
  -7   6   2 837.101 338.735  15
  -7   6   1 3162.92 470.265  18
  -7   6   1 2099.82 391.437  12
  -7   6   0 1353.50 355.076  15
  -7   6   0 1301.56 313.407  12
  -7   6  -1 269.533 116.395  15
  -7   6  -1 559.094 187.874  12
  -7   6  -2 667.844 193.126  12
  -7   5   9 1977.71 227.568   8
  -7   5   8 1065.37 216.947  18
  -7   5   8 1749.12 259.771   8
  -7   5   7 281.645 167.448  18
  -7   5   7 152.000 100.929   8
  -7   5   6 106.113 70.8649  18
  -7   5   6 300.058 114.376   8
  -7   5   6 468.315 224.391  15
  -7   5   6 134.017 141.815  11
  -7   5   5 254.818 169.494  18
  -7   5   5 478.609 145.215   8
  -7   5   4 236.333 193.891  18
  -7   5   3 1879.90 488.845  18
  -7   5   2 13870.1 1232.53  18
  -7   5   2 17307.7 1509.86  15
  -7   5   1 327.444 186.472  18
  -7   5   1 370.538 229.039  15
  -7   5   1 265.100 194.260  12
  -7   5   0 991.381 337.784  15
  -7   5   0 997.134 322.082  12
  -7   5  -1 2421.61 455.329  15
  -7   5  -1 2772.38 476.219  12
  -7   5  -2 159.341 113.889  12
  -7   5  -3 190.555 86.6335  12
  -7   4   9 4416.78 395.490   8
  -7   4   8 80.5277 87.0546  18
  -7   4   8 188.920 118.166   8
  -7   4   8 54.1246 89.2806   6
  -7   4   7 822.187 281.618  18
  -7   4   7 853.837 219.049   8
  -7   4   6 465.046 240.079  18
  -7   4   6 388.643 156.497   8
  -7   4   6 827.308 301.040  15
  -7   4   5 207.929 206.029  18
  -7   4   5 135.158 100.692   8
  -7   4   5 345.670 259.956  15
  -7   4   5 72.2441 109.053  24
  -7   4   4 6422.12 944.440  18
  -7   4   4 7354.46 1014.88  15
  -7   4   3 8552.53 1061.26  18
  -7   4   3 10256.9 1211.34  15
  -7   4   2 2336.12 540.227  18
  -7   4   2 2278.38 570.328  15
  -7   4   1 2420.56 513.975  18
  -7   4   1 2277.55 575.418  15
  -7   4   1 2308.46 478.702  12
  -7   4   0 3791.21 710.337  15
  -7   4   0 3393.75 581.457  12
  -7   4  -1 378.575 199.370  15
  -7   4  -1 947.899 316.347  12
  -7   4  -2 319.229 162.823  12
  -7   4  -3 996.227 238.577  12
  -7   3   9 296.101 169.944   6
  -7   3   8 2429.31 355.591   8
  -7   3   7 1568.52 384.106  18
  -7   3   7 1547.98 303.815   8
  -7   3   6 181.451 184.859  18
  -7   3   6 192.096 118.133   8
  -7   3   6 186.430 145.023  15
  -7   3   6 184.222 99.8621  24
  -7   3   5 1407.94 427.631  18
  -7   3   5 1622.06 302.638   8
  -7   3   5 1886.92 506.495  15
  -7   3   5 1531.23 297.987  24
  -7   3   4 9162.53 1121.97  18
  -7   3   4 11003.9 1242.14  15
  -7   3   3 5509.33 872.060  18
  -7   3   3 5982.86 931.223  15
  -7   3   2 152.237 155.312  18
  -7   3   2 147.139 187.678  15
  -7   3   1 12405.1 1210.06  18
  -7   3   1 11948.5 1327.22  15
  -7   3   1 12789.7 1101.34  12
  -7   3   0 455.487 218.393  15
  -7   3   0 532.650 200.109  12
  -7   3  -1 1950.93 455.151  12
  -7   3  -2 2458.51 464.790  12
  -7   3  -3 78.9327 124.621  12
  -7   3  -4 1432.12 188.106  17
  -7   3  -4 1868.38 280.257  12
  -7   2   9 2835.51 471.676   6
  -7   2   8 9554.81 737.140   8
  -7   2   7 26.7558 74.7652  18
  -7   2   7 247.593 139.589   8
  -7   2   6 936.387 345.296  18
  -7   2   6 1203.40 293.300   8
  -7   2   6 833.356 224.012  24
  -7   2   5 10976.0 1199.34  18
  -7   2   5 9465.13 752.412   8
  -7   2   5 9259.94 1068.61  15
  -7   2   5 8735.37 771.666  24
  -7   2   4 10139.3 1205.62  18
  -7   2   4 11289.9 1231.12  15
  -7   2   4 10160.2 853.244  24
  -7   2   3 645.290 304.102  18
  -7   2   3 1079.91 384.544  15
  -7   2   2 7038.09 969.908  18
  -7   2   2 7069.65 1030.21  15
  -7   2   1 6692.00 1012.02  15
  -7   2   1 7727.05 859.545  12
  -7   2   0 2275.42 558.462  15
  -7   2   0 2730.00 533.406  12
  -7   2  -1 8303.60 907.360  12
  -7   2  -2 1439.68 365.488  12
  -7   2  -3 144.433 105.291  12
  -7   2  -4 126.389 69.7895  17
  -7   2  -4 240.850 116.851  12
  -7   1  10 2573.19 258.661  16
  -7   1   9 7056.41 508.192  16
  -7   1   9 8699.15 810.344   6
  -7   1   8 742.337 183.054  16
  -7   1   7 581.587 202.133  24
  -7   1   6 115.917 170.908  18
  -7   1   6 188.728 145.891  24
  -7   1   5 6908.02 961.441  18
  -7   1   5 7229.13 943.092  15
  -7   1   5 6923.51 707.588  24
  -7   1   4 1557.15 469.415  18
  -7   1   4 1524.22 461.831  15
  -7   1   4 1289.35 307.487  24
  -7   1   3 12211.0 1305.47  18
  -7   1   3 11118.9 1295.86  15
  -7   1   3 11261.4 922.137  24
  -7   1   2 7247.32 1056.78  15
  -7   1   1 5186.35 905.851  15
  -7   1   1 7558.32 883.334  12
  -7   1   0 11596.4 1126.56  12
  -7   1  -1 1741.30 425.848  12
  -7   1  -2 1789.93 272.615  24
  -7   1  -2 2511.51 489.947  12
  -7   1  -3 636.248 163.002  17
  -7   1  -3 1003.74 295.284  12
  -7   1  -4 398.558 155.268  12
  -7   0  10 5346.61 406.227  16
  -7   0   9 821.566 203.258  16
  -7   0   9 220.561 162.133   6
  -7   0   8 7780.85 625.520  16
  -7   0   7 2812.94 406.162  16
  -7   0   7 1764.89 370.532  24
  -7   0   6 176.834 188.392  24
  -7   0   5 1142.02 305.933  24
  -7   0   4 6231.36 929.272  15
  -7   0   4 7237.33 751.824  24
  -7   0   3 3502.84 727.843  15
  -7   0   3 5022.13 616.302  24
  -7   0   2 307.377 198.604  12
  -7   0   2 45.4614 100.670  24
  -7   0   1 12107.6 1167.02  12
  -7   0   1 11686.2 895.097  24
  -7   0   0 3609.70 659.852  12
  -7   0   0 3683.23 476.363  24
  -7   0  -1-142.556 133.740  12
  -7   0  -1 151.991 95.2296  24
  -7   0  -2 142.406 76.3651  17
  -7   0  -2 101.125 150.557  12
  -7   0  -3 362.270 120.340  17
  -7   0  -3 227.468 145.214  12
  -7  -1   9 2096.38 232.890  19
  -7  -1   6 1229.95 330.170  24
  -7  -1   5 10157.0 900.839  24
  -7  -1   4 4623.99 608.000  24
  -7  -1   3 1751.47 371.772  24
  -7  -1   2 11912.8 1099.87  12
  -7  -1   2 14155.5 1020.02  24
  -7  -1   1 5139.22 773.699  12
  -7  -1   1 6514.07 651.167  24
  -7  -1   0 375.303 215.630  12
  -7  -1   0 544.032 186.500  24
  -7  -1  -1 1778.71 448.992  12
  -7  -1  -2 323.393 183.695  12
  -7  -1  -3 1790.49 376.285  12
  -7  -2   9 36.0570 57.6280  19
  -7  -2   6 1108.06 320.101  24
  -7  -2   5 2025.08 414.550  24
  -7  -2   4 5162.86 646.055  24
  -7  -2   3 19605.1 1211.99  24
  -7  -2   2 7501.54 877.914  12
  -7  -2   2 9933.95 822.826  24
  -7  -2   1 783.489 331.479  12
  -7  -2   1 853.124 233.060  24
  -7  -2   0 1119.90 395.654  12
  -7  -2  -1 141.959 83.1671  12
  -7  -3   9 497.337 125.599  19
  -7  -3   8 6485.93 502.456  19
  -7  -3   4 3516.96 523.438  24
  -7  -3   3 18458.3 1123.09  24
  -7  -3   2 353.750 170.039  24
  -7  -3   1 8010.95 617.638  24
  -7  -3  -2 2433.33 583.626  20
  -7  -4   9 190.460 91.9157  19
  -7  -4   8 1191.26 201.739  19
  -7  -4   7 3881.38 394.492  19
  -7  -4   3 2423.29 641.535  20
  -7  -4   2 9169.94 1300.54  20
  -7  -4   1 4397.21 937.947  20
  -7  -4   0 4543.37 870.195  20
  -7  -4  -1 359.550 225.706  20
  -7  -4  -2 262.935 177.138  20
  -7  -5   8 435.538 116.729  19
  -7  -5   7-17.1754 85.0358  19
  -7  -5   6 1395.12 223.046  19
  -7  -5   5 697.924 161.638  19
  -7  -5   4-237.092 194.771  19
  -7  -5   3 7897.88 998.040  20
  -7  -5   3 9989.43 543.250  19
  -7  -5   2 3637.79 709.080  20
  -7  -5   1 469.716 280.476  20
  -7  -5   0 662.214 298.619  20
  -7  -5  -1 146.364 152.472  20
  -7  -6   6 1068.63 169.875  19
  -7  -6   5 1993.94 222.703  19
  -7  -6   2 43.0222 111.453  20
  -7  -6   1 494.041 217.654  20
  -8   6   6 10791.5 648.667  18
  -8   6   5 518.000 166.660  18
  -8   6   5 318.649 130.232  15
  -8   6   4 841.292 211.266  18
  -8   6   4 907.736 237.633  15
  -8   6   3 1252.84 242.498  18
  -8   6   3 1124.92 272.253  15
  -8   6   3 1002.63 140.561  24
  -8   6   2 153.970 112.804  15
  -8   6   2 211.692 73.8741  24
  -8   6   1 178.475 65.8565  24
  -8   5   7 2297.45 287.860  18
  -8   5   6 327.807 150.437  18
  -8   5   6 126.141 75.0783  15
  -8   5   5 108.001 83.0191  18
  -8   5   5 55.2280 59.5416  15
  -8   5   4 1258.59 303.691  18
  -8   5   4 881.141 270.124  15
  -8   5   4 1200.18 194.531  24
  -8   5   3 440.766 185.169  18
  -8   5   3 381.965 194.574  15
  -8   5   3 539.194 145.895  24
  -8   5   2 1268.29 324.854  15
  -8   5   2 1278.61 223.993  24
  -8   5   1 2748.23 447.916  15
  -8   4   6 2417.62 421.165  18
  -8   4   6 1282.95 264.077  15
  -8   4   5 783.932 285.121  18
  -8   4   5 467.913 190.829  15
  -8   4   5 793.008 165.608  24
  -8   4   4 108.688 162.680  18
  -8   4   4 171.091 175.979  15
  -8   4   4 47.7571 57.3584  24
  -8   4   3 1086.48 296.538  18
  -8   4   3 804.071 283.753  15
  -8   4   3 777.275 195.105  24
  -8   4   2-61.6542 92.0595  15
  -8   4   2-9.15416 83.8323  24
  -8   4   1 27.2081 89.2417  15
  -8   4   0 112.647 95.0959  12
  -8   4  -1 1936.41 210.229  24
  -8   3   6 2106.29 409.381  18
  -8   3   6 2170.58 277.051  24
  -8   3   5 221.825 180.544  18
  -8   3   5 64.5575 92.3098  15
  -8   3   5 7.04476 46.8431  24
  -8   3   4 3610.79 613.262  18
  -8   3   4 3164.90 569.978  15
  -8   3   4 2834.92 377.445  24
  -8   3   3 2399.93 497.966  15
  -8   3   3 2257.98 343.337  24
  -8   3   2 90.7596 115.685  15
  -8   3   2 25.7529 54.8621  24
  -8   3   1 161.827 59.9454  12
  -8   3   1 172.210 87.8819  24
  -8   3   0 3687.68 443.782  12
  -8   3   0 2910.86 340.107  24
  -8   3  -1 4402.59 443.114  12
  -8   3  -1 3021.78 281.964  24
  -8   2   6 1617.14 271.048  24
  -8   2   5 11867.6 785.131  24
  -8   2   4 228.006 146.895  15
  -8   2   4 95.9942 78.5868  24
  -8   2   3 94.6835 152.798  15
  -8   2   3-10.4838 83.6936  24
  -8   2   2 154.539 77.5234  24
  -8   2   1 337.533 144.737  12
  -8   2   1 82.5256 74.4595  24
  -8   2   0 3925.38 470.987  12
  -8   2   0 3211.51 356.735  24
  -8   2  -1 286.705 131.023  12
  -8   2  -1 89.2198 46.9820  24
  -8   1   6 1890.10 314.847  24
  -8   1   5 164.048 140.956  24
  -8   1   4 405.188 182.727  24
  -8   1   3 596.092 189.969  24
  -8   1   2-36.3919 90.8141  24
  -8   1   1 21247.7 1149.73  12
  -8   1   1 18161.8 935.349  24
  -8   1   0 12101.6 865.430  12
  -8   1   0 10012.9 611.013  24
  -8   1  -1 2353.45 355.862  12
  -8   0   6 3078.75 416.843  24
  -8   0   5 138.824 123.484  24
  -8   0   4 16.1016 74.5640  24
  -8   0   3 698.156 213.513  24
  -8   0   2 617.264 202.269  24
  -8   0   1 6591.37 662.196  12
  -8   0   1 6642.50 551.782  24
  -8   0   0 61.3815 80.1675  12
  -8   0   0 86.3421 64.3246  24
  -8   0  -1 916.157 234.510  12
  -8  -1   8 415.051 57.9025  19
  -8  -1   5 1731.94 328.668  24
  -8  -1   4 512.872 198.704  24
  -8  -1   3 1696.93 325.502  24
  -8  -1   2 41.6372 76.6902  24
  -8  -1   1 2472.41 311.649  24
  -8  -2   8 7411.38 409.514  19
  -8  -2   4 137.356 99.4985  24
  -8  -2   3 31.6267 83.3542  24
  -8  -2   2 1934.41 283.538  24
  -8  -3   7 6339.49 413.505  19
  -8  -3   2 1414.63 397.811  20
  -8  -3   1 171.917 163.842  20
  -8  -4   6 39.3972 70.2165  19
  -8  -4   5 70.9423 95.7345  19
  -8  -4   4-166.731 106.103  19
  -9   2   4 586.180 122.079  24
  -9   2   3 5074.58 344.863  24
  -9   1   5 1317.64 185.173  24
  -9   1   4 1510.64 209.192  24
  -9   1   3 357.695 95.7515  24
   0   0   0    0.00    0.00   0
TITL lidija_p7_zuti_100K in P-1
REM P-1 (#2 in standard setting)
CELL 1.54184   7.232240   9.788177  10.003354  91.6303 109.7086  95.8896
ZERR    9.00   0.000572   0.000807   0.000642   0.0060   0.0066   0.0066
LATT  1
SFAC C H N O Cl
UNIT 9.00 9.00 9.00 9.00 9.00
TREF
HKLF 4
END
;
loop_
_space_group_symop_id
_space_group_symop_operation_xyz
1 x,y,z
2 -x,-y,-z
loop_
_atom_site_label
_atom_site_fract_x
_atom_site_fract_y
_atom_site_fract_z
_atom_site_U_iso_or_equiv
_atom_site_adp_type
_atom_site_calc_flag
_atom_site_occupancy
_atom_site_type_symbol
Cu1 0.17305(10) 0.17920(7) 0.70879(6) 0.0253(2) Uani d 1 Cu
O5 0.0929(5) -0.0219(4) 0.6830(3) 0.0273(7) Uani d 1 O
O6 0.0737(5) 0.1751(4) 0.4981(3) 0.0281(7) Uani d 1 O
C1 0.0047(7) -0.0573(5) 0.5527(5) 0.0240(9) Uani d 1 C
N2 0.2160(6) 0.3831(4) 0.7306(4) 0.0272(8) Uani d 1 N
N1 0.2164(6) 0.1976(5) 0.9176(4) 0.0273(8) Uani d 1 N
C11 0.2208(7) 0.4726(6) 0.6354(5) 0.0306(10) Uani d 1 C
H11 0.214101 0.439903 0.545521 0.037 Uiso calc 1 H
C10 0.2355(7) 0.6157(5) 0.6647(5) 0.0319(10) Uani d 1 C
H10 0.238583 0.676308 0.59528 0.038 Uiso calc 1 H
C9 0.2453(7) 0.6645(5) 0.7978(5) 0.0302(9) Uani d 1 C
H9 0.251061 0.758432 0.818391 0.036 Uiso calc 1 H
C8 0.2465(7) 0.5706(5) 0.9027(5) 0.0286(9) Uani d 1 C
C7 0.2313(6) 0.4321(5) 0.8629(4) 0.0253(9) Uani d 1 C
C6 0.2289(7) 0.3298(5) 0.9631(4) 0.0259(9) Uani d 1 C
C5 0.2409(7) 0.3711(6) 1.1020(5) 0.0294(10) Uani d 1 C
C4 0.2351(7) 0.2636(6) 1.1937(5) 0.0334(11) Uani d 1 C
H4 0.240275 0.284521 1.286234 0.04 Uiso calc 1 H
C3 0.2220(8) 0.1308(6) 1.1462(5) 0.0364(11) Uani d 1 C
H3 0.217915 0.060484 1.206174 0.044 Uiso calc 1 H
C2 0.2145(8) 0.0990(6) 1.0064(5) 0.0325(10) Uani d 1 C
H2 0.208178 0.007655 0.975325 0.039 Uiso calc 1 H
C13 0.2593(8) 0.6108(6) 1.0455(5) 0.0338(10) Uani d 1 C
H13 0.269126 0.703713 1.072625 0.041 Uiso calc 1 H
C12 0.2572(7) 0.5156(6) 1.1411(5) 0.0325(10) Uani d 1 C
H12 0.26647 0.543993 1.232868 0.039 Uiso calc 1 H
Cr1 0.57261(15) 0.15016(10) 0.60703(9) 0.0364(3) Uani d 1 Cr
O1 0.4811(5) 0.1354(4) 0.7341(3) 0.0314(7) Uani d 1 O
O2 0.4987(7) 0.2791(6) 0.5172(5) 0.0533(12) Uani d 1 O
O4A 0.8167(13) 0.2010(11) 0.6968(11) 0.040(2) Uani d 0.5 O
O4B 0.7938(14) 0.1466(13) 0.6472(12) 0.045(2) Uani d 0.5 O
O3 0.5834(15) -0.0135(10) 0.5288(10) 0.052(2) Uani d 0.5 O
loop_
_atom_site_aniso_label
_atom_site_aniso_U_11
_atom_site_aniso_U_22
_atom_site_aniso_U_33
_atom_site_aniso_U_12
_atom_site_aniso_U_13
_atom_site_aniso_U_23
Cu1 0.0268(4) 0.0291(4) 0.0201(3) 0.0033(3) 0.0078(3) 0.0052(2)
O5 0.0305(17) 0.0319(17) 0.0186(13) 0.0034(13) 0.0073(12) 0.0042(12)
O6 0.0327(17) 0.0301(16) 0.0213(13) 0.0029(13) 0.0088(12) 0.0050(12)
C1 0.021(2) 0.027(2) 0.027(2) 0.0043(17) 0.0129(16) 0.0069(17)
N2 0.0245(19) 0.032(2) 0.0234(17) 0.0036(16) 0.0064(14) 0.0036(15)
N1 0.0231(19) 0.041(2) 0.0205(16) 0.0052(16) 0.0098(14) 0.0073(15)
C11 0.026(2) 0.040(3) 0.024(2) 0.0015(19) 0.0063(16) 0.0057(18)
C10 0.025(2) 0.033(2) 0.037(2) 0.0018(18) 0.0089(18) 0.0115(19)
C9 0.022(2) 0.029(2) 0.036(2) 0.0015(17) 0.0050(18) 0.0041(18)
C8 0.019(2) 0.034(2) 0.029(2) 0.0015(18) 0.0046(16) 0.0023(18)
C7 0.0128(19) 0.040(3) 0.0210(19) 0.0008(17) 0.0033(15) 0.0049(17)
C6 0.022(2) 0.035(2) 0.0206(18) 0.0045(18) 0.0061(15) 0.0064(17)
C5 0.017(2) 0.045(3) 0.025(2) 0.0028(18) 0.0048(16) 0.0039(19)
C4 0.027(2) 0.055(3) 0.0188(19) 0.003(2) 0.0091(17) 0.0089(19)
C3 0.036(3) 0.049(3) 0.030(2) 0.012(2) 0.0148(19) 0.017(2)
C2 0.031(2) 0.041(3) 0.027(2) 0.005(2) 0.0117(18) 0.0113(19)
C13 0.027(2) 0.037(3) 0.033(2) 0.005(2) 0.0054(18) -0.005(2)
C12 0.024(2) 0.048(3) 0.024(2) 0.006(2) 0.0068(17) -0.0010(19)
Cr1 0.0459(6) 0.0364(5) 0.0363(5) 0.0042(4) 0.0264(4) 0.0033(4)
O1 0.0245(16) 0.043(2) 0.0275(15) 0.0060(14) 0.0090(13) 0.0059(13)
O2 0.038(2) 0.081(4) 0.044(2) 0.010(2) 0.0158(18) 0.034(2)
O4A 0.033(4) 0.046(6) 0.052(6) 0.012(4) 0.027(4) -0.003(4)
O4B 0.041(5) 0.057(7) 0.056(6) 0.022(5) 0.036(5) 0.015(5)
O3 0.062(6) 0.044(5) 0.049(5) 0.007(4) 0.021(4) -0.020(4)
loop_
_atom_type_symbol
_atom_type_description
_atom_type_scat_dispersion_real
_atom_type_scat_dispersion_imag
_atom_type_scat_source
C C 0.0181 0.0091 'International Tables Vol C Tables 4.2.6.8 and 6.1.1.4'
H H 0 0 'International Tables Vol C Tables 4.2.6.8 and 6.1.1.4'
Cl Cl 0.3639 0.7018 'International Tables Vol C Tables 4.2.6.8 and 6.1.1.4'
Cr Cr -0.1635 2.4439 'International Tables Vol C Tables 4.2.6.8 and 6.1.1.4'
K K 0.3868 1.0657 'International Tables Vol C Tables 4.2.6.8 and 6.1.1.4'
N N 0.0311 0.018 'International Tables Vol C Tables 4.2.6.8 and 6.1.1.4'
O O 0.0492 0.0322 'International Tables Vol C Tables 4.2.6.8 and 6.1.1.4'
S S 0.3331 0.5567 'International Tables Vol C Tables 4.2.6.8 and 6.1.1.4'
Cu Cu -1.9646 0.5888 'International Tables Vol C Tables 4.2.6.8 and 6.1.1.4'
loop_
_geom_angle_atom_site_label_1
_geom_angle_atom_site_label_2
_geom_angle_atom_site_label_3
_geom_angle
_geom_angle_site_symmetry_1
_geom_angle_site_symmetry_3
O5 Cu1 O6 85.61(14) . .
O5 Cu1 N2 172.38(16) . .
O6 Cu1 N2 93.24(15) . .
O5 Cu1 N1 96.47(16) . .
O6 Cu1 N1 167.45(16) . .
N2 Cu1 N1 83.05(17) . .
O5 Cu1 O1 87.87(14) . .
O6 Cu1 O1 96.72(13) . .
N2 Cu1 O1 99.74(15) . .
N1 Cu1 O1 95.73(14) . .
C1 O5 Cu1 110.0(3) . .
C1 O6 Cu1 110.0(3) 2_556 .
O6 C1 O5 125.9(4) 2_556 .
O6 C1 C1 117.5(5) 2_556 2_556
O5 C1 C1 116.5(5) . 2_556
C11 N2 C7 118.2(4) . .
C11 N2 Cu1 129.5(3) . .
C7 N2 Cu1 112.2(3) . .
C2 N1 C6 119.4(4) . .
C2 N1 Cu1 128.9(4) . .
C6 N1 Cu1 111.3(3) . .
N2 C11 C10 122.5(4) . .
N2 C11 H11 118.7 . .
C10 C11 H11 118.7 . .
C9 C10 C11 118.9(4) . .
C9 C10 H10 120.6 . .
C11 C10 H10 120.6 . .
C10 C9 C8 119.4(5) . .
C10 C9 H9 120.3 . .
C8 C9 H9 120.3 . .
C7 C8 C9 117.0(4) . .
C7 C8 C13 119.2(4) . .
C9 C8 C13 123.9(5) . .
N2 C7 C8 123.9(4) . .
N2 C7 C6 115.8(4) . .
C8 C7 C6 120.4(4) . .
N1 C6 C5 123.3(4) . .
N1 C6 C7 117.1(4) . .
C5 C6 C7 119.6(5) . .
C6 C5 C4 116.1(5) . .
C6 C5 C12 119.0(4) . .
C4 C5 C12 125.0(4) . .
C3 C4 C5 120.0(4) . .
C3 C4 H4 120 . .
C5 C4 H4 120 . .
C4 C3 C2 120.0(5) . .
C4 C3 H3 120 . .
C2 C3 H3 120 . .
N1 C2 C3 121.2(5) . .
N1 C2 H2 119.4 . .
C3 C2 H2 119.4 . .
C12 C13 C8 121.1(5) . .
C12 C13 H13 119.4 . .
C8 C13 H13 119.4 . .
C13 C12 C5 120.7(4) . .
C13 C12 H12 119.6 . .
C5 C12 H12 119.6 . .
O4B Cr1 O2 112.5(4) . .
O4B Cr1 O1 116.9(4) . .
O2 Cr1 O1 110.6(2) . .
O4B Cr1 O4A 23.7(4) . .
O2 Cr1 O4A 103.7(4) . .
O1 Cr1 O4A 102.7(4) . .
O4B Cr1 O3 78.1(6) . .
O2 Cr1 O3 123.8(4) . .
O1 Cr1 O3 111.8(4) . .
O4A Cr1 O3 101.1(5) . .
O4B Cr1 O3 114.9(6) . 2_656
O2 Cr1 O3 97.0(4) . 2_656
O1 Cr1 O3 102.9(3) . 2_656
O4A Cr1 O3 138.6(4) . 2_656
O3 Cr1 O3 38.7(6) . 2_656
Cr1 O1 Cu1 122.73(18) . .
O4B O4A Cr1 62.8(12) . .
O4A O4B Cr1 93.5(12) . .
O3 O3 Cr1 74.2(8) 2_656 .
O3 O3 Cr1 67.2(8) 2_656 2_656
Cr1 O3 Cr1 141.3(6) . 2_656
loop_
_geom_bond_atom_site_label_1
_geom_bond_atom_site_label_2
_geom_bond_site_symmetry_2
_geom_bond_distance
Cu1 O5 . 1.978(4)
Cu1 O6 . 1.982(3)
Cu1 N2 . 1.983(4)
Cu1 N1 . 2.005(4)
Cu1 O1 . 2.244(3)
O5 C1 . 1.262(6)
O6 C1 2_556 1.244(6)
C1 C1 2_556 1.552(8)
N2 C11 . 1.318(6)
N2 C7 . 1.359(6)
N1 C2 . 1.332(6)
N1 C6 . 1.343(7)
C11 C10 . 1.409(8)
C11 H11 . 0.93
C10 C9 . 1.378(7)
C10 H10 . 0.93
C9 C8 . 1.414(7)
C9 H9 . 0.93
C8 C7 . 1.384(7)
C8 C13 . 1.441(7)
C7 C6 . 1.441(6)
C6 C5 . 1.408(6)
C5 C4 . 1.422(7)
C5 C12 . 1.439(8)
C4 C3 . 1.354(9)
C4 H4 . 0.93
C3 C2 . 1.406(7)
C3 H3 . 0.93
C2 H2 . 0.93
C13 C12 . 1.357(8)
C13 H13 . 0.93
C12 H12 . 0.93
Cr1 O4B . 1.516(9)
Cr1 O2 . 1.602(5)
Cr1 O1 . 1.623(3)
Cr1 O4A . 1.702(9)
Cr1 O3 . 1.783(9)
Cr1 O3 2_656 1.861(9)
O4A O4B . 0.685(11)
O3 O3 2_656 1.21(2)
loop_
_geom_torsion_atom_site_label_1
_geom_torsion_atom_site_label_2
_geom_torsion_atom_site_label_3
_geom_torsion_atom_site_label_4
_geom_torsion
_geom_torsion_site_symmetry_1
_geom_torsion_site_symmetry_4
Cu1 O5 C1 O6 -175.8(4) . 2_556
Cu1 O5 C1 C1 4.6(6) . 2_556
C7 N2 C11 C10 -1.8(7) . .
Cu1 N2 C11 C10 174.2(4) . .
N2 C11 C10 C9 0.0(8) . .
C11 C10 C9 C8 2.0(7) . .
C10 C9 C8 C7 -2.0(7) . .
C10 C9 C8 C13 179.1(5) . .
C11 N2 C7 C8 1.7(7) . .
Cu1 N2 C7 C8 -174.9(4) . .
C11 N2 C7 C6 -178.9(4) . .
Cu1 N2 C7 C6 4.5(5) . .
C9 C8 C7 N2 0.2(7) . .
C13 C8 C7 N2 179.2(4) . .
C9 C8 C7 C6 -179.2(4) . .
C13 C8 C7 C6 -0.2(7) . .
C2 N1 C6 C5 0.2(7) . .
Cu1 N1 C6 C5 174.0(4) . .
C2 N1 C6 C7 179.7(4) . .
Cu1 N1 C6 C7 -6.5(5) . .
N2 C7 C6 N1 1.4(6) . .
C8 C7 C6 N1 -179.2(4) . .
N2 C7 C6 C5 -179.0(4) . .
C8 C7 C6 C5 0.4(7) . .
N1 C6 C5 C4 -1.2(7) . .
C7 C6 C5 C4 179.2(4) . .
N1 C6 C5 C12 179.0(4) . .
C7 C6 C5 C12 -0.6(7) . .
C6 C5 C4 C3 1.0(7) . .
C12 C5 C4 C3 -179.2(5) . .
C5 C4 C3 C2 0.1(8) . .
C6 N1 C2 C3 1.1(7) . .
Cu1 N1 C2 C3 -171.5(4) . .
C4 C3 C2 N1 -1.3(8) . .
C7 C8 C13 C12 0.2(7) . .
C9 C8 C13 C12 179.1(5) . .
C8 C13 C12 C5 -0.4(7) . .
C6 C5 C12 C13 0.6(7) . .
C4 C5 C12 C13 -179.2(5) . .
O4B Cr1 O1 Cu1 167.6(6) . .
O2 Cr1 O1 Cu1 37.2(3) . .
O4A Cr1 O1 Cu1 147.4(4) . .
O3 Cr1 O1 Cu1 -105.0(4) . .
O3 Cr1 O1 Cu1 -65.5(4) 2_656 .
O2 Cr1 O4A O4B -115.0(15) . .
O1 Cr1 O4A O4B 129.8(14) . .
O3 Cr1 O4A O4B 14.1(16) . .
O3 Cr1 O4A O4B 2.8(19) 2_656 .
O2 Cr1 O4B O4A 72.3(15) . .
O1 Cr1 O4B O4A -57.2(16) . .
O3 Cr1 O4B O4A -165.8(16) . .
O3 Cr1 O4B O4A -178.0(14) 2_656 .
O4B Cr1 O3 O3 -162.2(11) . 2_656
O2 Cr1 O3 O3 -53.1(11) . 2_656
O1 Cr1 O3 O3 83.3(10) . 2_656
O4A Cr1 O3 O3 -168.0(9) . 2_656
O4B Cr1 O3 Cr1 -162.2(11) . 2_656
O2 Cr1 O3 Cr1 -53.1(11) . 2_656
O1 Cr1 O3 Cr1 83.3(10) . 2_656
O4A Cr1 O3 Cr1 -168.0(9) . 2_656
O3 Cr1 O3 Cr1 -0.0020(10) 2_656 2_656
