#------------------------------------------------------------------------------
#$Date: 2016-03-26 00:48:51 +0200 (Sat, 26 Mar 2016) $
#$Revision: 180097 $
#$URL: svn://www.crystallography.net/cod/cif/7/05/43/7054312.cif $
#------------------------------------------------------------------------------
#
# This file is available in the Crystallography Open Database (COD),
# http://www.crystallography.net/
#
# All data on this site have been placed in the public domain by the
# contributors.
#
data_7054312
loop_
_publ_author_name
'Karmakar, Anirban'
'Hazra, Susanta'
'Guedes da Silva, M. F\'atima C.'
'Pombeiro, Armando J. L.'
_publ_section_title
;
 Synthesis, structure and catalytic applications of amidoterephthalate
 copper complexes in the diastereoselective Henry reaction in aqueous
 medium
;
_journal_issue                   10
_journal_name_full               'New J. Chem.'
_journal_page_first              4837
_journal_paper_doi               10.1039/C4NJ00878B
_journal_volume                  38
_journal_year                    2014
_chemical_formula_sum            'C11 H17 Cu N O9'
_chemical_formula_weight         370.79
_chemical_name_systematic
;
 ?
;
_space_group_crystal_system      triclinic
_space_group_IT_number           2
_space_group_name_Hall           '-P 1'
_space_group_name_H-M_alt        'P -1'
_symmetry_space_group_name_Hall  '-P 1'
_symmetry_space_group_name_H-M   'P -1'
_atom_sites_solution_hydrogens   mixed
_audit_creation_method           SHELXL-2014
_cell_angle_alpha                78.225(2)
_cell_angle_beta                 84.542(3)
_cell_angle_gamma                83.261(2)
_cell_formula_units_Z            2
_cell_length_a                   7.4875(3)
_cell_length_b                   9.4303(3)
_cell_length_c                   10.4406(4)
_cell_measurement_reflns_used    2492
_cell_measurement_temperature    150(2)
_cell_measurement_theta_max      25.33
_cell_measurement_theta_min      2.68
_cell_volume                     714.78(5)
_computing_publication_material  'WinGX publication routines (Farrugia, 1999)'
_computing_structure_refinement  'SHELXL-2014 (Sheldrick, 2014)'
_computing_structure_solution    'SIR97 (Giacovazzo et al, 1997)'
_diffrn_ambient_temperature      150(2)
_diffrn_measured_fraction_theta_full 0.991
_diffrn_measured_fraction_theta_max 0.983
_diffrn_measurement_device_type  'Bruker APEX-II CCD'
_diffrn_measurement_method       '\f and \w scans'
_diffrn_radiation_source         'fine-focus sealed tube'
_diffrn_radiation_type           MoK\a
_diffrn_radiation_wavelength     0.71073
_diffrn_reflns_av_R_equivalents  0.0390
_diffrn_reflns_av_unetI/netI     0.0588
_diffrn_reflns_Laue_measured_fraction_full 0.991
_diffrn_reflns_Laue_measured_fraction_max 0.983
_diffrn_reflns_limit_h_max       9
_diffrn_reflns_limit_h_min       -7
_diffrn_reflns_limit_k_max       11
_diffrn_reflns_limit_k_min       -11
_diffrn_reflns_limit_l_max       12
_diffrn_reflns_limit_l_min       -12
_diffrn_reflns_number            5462
_diffrn_reflns_point_group_measured_fraction_full 0.991
_diffrn_reflns_point_group_measured_fraction_max 0.983
_diffrn_reflns_theta_full        25.242
_diffrn_reflns_theta_max         25.385
_diffrn_reflns_theta_min         1.998
_exptl_absorpt_coefficient_mu    1.575
_exptl_absorpt_correction_T_max  0.7
_exptl_absorpt_correction_T_min  0.5
_exptl_absorpt_correction_type   multi-scan
_exptl_absorpt_process_details   SADABS
_exptl_crystal_colour            Blue
_exptl_crystal_density_diffrn    1.723
_exptl_crystal_description       plate
_exptl_crystal_F_000             382
_exptl_crystal_size_max          0.350
_exptl_crystal_size_mid          0.280
_exptl_crystal_size_min          0.220
_refine_diff_density_max         0.638
_refine_diff_density_min         -0.566
_refine_diff_density_rms         0.109
_refine_ls_extinction_method     none
_refine_ls_goodness_of_fit_ref   1.059
_refine_ls_hydrogen_treatment    mixed
_refine_ls_matrix_type           full
_refine_ls_number_parameters     224
_refine_ls_number_reflns         2594
_refine_ls_number_restraints     8
_refine_ls_restrained_S_all      1.065
_refine_ls_R_factor_all          0.0553
_refine_ls_R_factor_gt           0.0439
_refine_ls_shift/su_max          0.000
_refine_ls_shift/su_mean         0.000
_refine_ls_structure_factor_coef Fsqd
_refine_ls_weighting_details
'w=1/[\s^2^(Fo^2^)+(0.0517P)^2^+0.7946P] where P=(Fo^2^+2Fc^2^)/3'
_refine_ls_weighting_scheme      calc
_refine_ls_wR_factor_gt          0.1047
_refine_ls_wR_factor_ref         0.1114
_reflns_Friedel_coverage         0.000
_reflns_number_gt                2181
_reflns_number_total             2594
_reflns_threshold_expression     'I > 2\s(I)'
_cod_data_source_file            c4nj00878b2.cif
_cod_data_source_block           1
_cod_depositor_comments
'Adding full bibliography for 7054309--7054312.cif.'
_cod_database_code               7054312
#BEGIN Tags that were not found in dictionaries:
_shelx_space_group_comment
;
The symmetry employed for this shelxl refinement is uniquely defined
by the following loop, which should always be used as a source of
symmetry information in preference to the above space-group names.
They are only intended as comments.
;
_shelx_estimated_absorpt_t_min   0.609
_shelx_estimated_absorpt_t_max   0.723
_shelxl_version_number           2014-1
_shelx_res_file
;
TITL 1 in P-1
CELL 0.71073 7.4875 9.4303 10.4406 78.225 84.542 83.261
ZERR 2.00 0.0003 0.0003 0.0004 0.002 0.002 0.002
LATT 1
SFAC C  H  N  O  Cu
UNIT 22  34  2  18  2
L.S. 10
ACTA
BOND $H
FMAP 2
PLAN 10
SIZE 0.35 0.28 0.22
HTAB O15 O13_$5
EQIV $5 -x+1, -y+1, -z+2
HTAB C7 O5
HTAB N1 O1
HTAB O14 O3_$2
HTAB O14 O4_$1
HTAB O15 O3_$2
HTAB O12 O5_$4
EQIV $4 -x+1, -y+2, -z+1
HTAB O12 O2_$3
EQIV $3 -x+1, -y+2, -z+2
HTAB O13 O4_$2
EQIV $2 x, y-1, z+1
HTAB O13 O3_$1
EQIV $1 -x+2, -y+2, -z+1
CONF
HTAB
HTAB O13 O3_$1
HTAB O13 O4_$2
HTAB O12 O2_$3
HTAB O12 O5_$4
HTAB O15 O3_$2
HTAB O14 O4_$1
HTAB O14 O3_$2
HTAB N1 O1
HTAB C7 O5
HTAB O15 O13_$5
DFIX 0.9 0.02 O12 H12A  O12 H12B  O14 H14A  O14 H14B  O13 H13A  O13 H13B
DFIX 0.9 0.02 O15 H15A  O15 H15B
TEMP 23.000
WGHT    0.051700    0.794600
FVAR       0.19851
C1    1    0.786332    1.003333    0.768851    11.00000    0.01209    0.01828 =
         0.01367   -0.00149    0.00459    0.00024
C2    1    0.811019    1.093188    0.632716    11.00000    0.01079    0.01385 =
         0.00997    0.00310    0.00167    0.00071
C3    1    0.862605    1.232595    0.621099    11.00000    0.01418    0.01625 =
         0.01335   -0.00283   -0.00344   -0.00059
AFIX  43
H3    2    0.883409    1.264403    0.696513    11.00000   -1.20000
AFIX   0
C4    1    0.883803    1.324985    0.501148    11.00000    0.01388    0.01177 =
         0.01604    0.00090   -0.00006   -0.00551
AFIX  43
H4    2    0.920784    1.416832    0.496215    11.00000   -1.20000
AFIX   0
C5    1    0.849666    1.280329    0.387450    11.00000    0.00884    0.01265 =
         0.01045    0.00303   -0.00086    0.00115
C6    1    0.867233    1.384649    0.256745    11.00000    0.01238    0.01698 =
         0.01494   -0.00071    0.00023    0.00154
C7    1    0.798321    1.142082    0.395935    11.00000    0.01409    0.01520 =
         0.01162   -0.00285    0.00205   -0.00224
AFIX  43
H7    2    0.777485    1.111877    0.319737    11.00000   -1.20000
AFIX   0
C8    1    0.777309    1.047463    0.516397    11.00000    0.01149    0.00915 =
         0.01404   -0.00068    0.00199   -0.00218
C9    1    0.668480    0.843698    0.432454    11.00000    0.01346    0.01746 =
         0.01445   -0.00473   -0.00154   -0.00034
C10   1    0.624339    0.690065    0.475627    11.00000    0.01896    0.01375 =
         0.01800   -0.00277   -0.00175   -0.00167
AFIX  23
H10A  2    0.706459    0.630222    0.426117    11.00000   -1.20000
H10B  2    0.503784    0.685431    0.450987    11.00000   -1.20000
AFIX   0
C11   1    0.631582    0.620826    0.620844    11.00000    0.02759    0.01498 =
         0.01907   -0.00097   -0.00144   -0.00389
AFIX 137
H11A  2    0.753585    0.611848    0.644909    11.00000   -1.50000
H11B  2    0.589315    0.526114    0.636438    11.00000   -1.50000
H11C  2    0.556402    0.680983    0.672489    11.00000   -1.50000
AFIX   0
CU1   5    0.675228    0.779207    0.962270    11.00000    0.01662    0.01268 =
         0.00794    0.00310    0.00051   -0.00174
H12A  2    0.423829    0.918779    0.828646    11.00000   -1.50000
H13A  2    0.822915    0.522306    0.869883    11.00000   -1.50000
H14A  2    1.006704    0.739856    0.962191    11.00000   -1.50000
H15A  2    0.468175    0.638282    1.129439    11.00000   -1.50000
H12B  2    0.352668    0.873864    0.976786    11.00000   -1.50000
H13B  2    0.768500    0.480968    0.993321    11.00000   -1.50000
H14B  2    0.940922    0.680701    1.099972    11.00000   -1.50000
H15B  2    0.661264    0.625071    1.179250    11.00000   -1.50000
N1    3    0.723017    0.908267    0.525607    11.00000    0.02142    0.01448 =
         0.01028    0.00245   -0.00152   -0.00539
AFIX  43
H1    2    0.724314    0.854678    0.602832    11.00000   -1.20000
AFIX   0
O1    4    0.769680    0.868341    0.781585    11.00000    0.01697    0.01189 =
         0.00952    0.00311    0.00059   -0.00295
O2    4    0.781473    1.065192    0.863773    11.00000    0.04400    0.01780 =
         0.01279   -0.00209    0.00240   -0.00467
O3    4    0.945584    1.495314    0.250736    11.00000    0.03018    0.01406 =
         0.01721    0.00431   -0.00204   -0.01001
O4    4    0.798794    1.353404    0.160561    11.00000    0.02326    0.02737 =
         0.01152    0.00483   -0.00542   -0.00816
O5    4    0.654996    0.905211    0.316595    11.00000    0.04318    0.02028 =
         0.01683    0.00120   -0.00774   -0.00872
O12   4    0.427578    0.848105    0.905258    11.00000    0.03455    0.03815 =
         0.02414    0.00270    0.00279   -0.00378
O13   4    0.727703    0.533754    0.922017    11.00000    0.02487    0.02314 =
         0.01038    0.00310    0.00107    0.00112
O14   4    0.920048    0.760079    1.031067    11.00000    0.03750    0.03714 =
         0.02996    0.00357   -0.00580   -0.00104
O15   4    0.565212    0.689422    1.141271    11.00000    0.04529    0.04983 =
         0.03169    0.00868   -0.00022   -0.00390
HKLF 4 1 1 0 0 0 1 0 0 0 1

REM  1 in P-1
REM R1 =  0.0439 for    2181 Fo > 4sig(Fo)  and  0.0553 for all    2594 data
REM    224 parameters refined using      8 restraints

END

WGHT      0.0531      0.6904

REM Instructions for potential hydrogen bonds
HTAB C7 O5
HTAB O12 O5_$4
HTAB O13 O3_$1
HTAB O14 O4_$1
HTAB O15 O13_$5
HTAB O12 O2_$3
HTAB O13 O4_$2
HTAB O14 O3_$2
HTAB O15 O3_$2
HTAB N1 O1

REM Highest difference peak  0.638,  deepest hole -0.566,  1-sigma level  0.109
Q1    1   0.9340  0.8575  1.0501  11.00000  0.05    0.64
Q2    1   0.3389  0.7710  0.8798  11.00000  0.05    0.58
Q3    1   0.5023  0.7741  1.2031  11.00000  0.05    0.50
Q4    1   0.8694  1.3014  0.4377  11.00000  0.05    0.46
Q5    1   0.8379  1.0835  0.4557  11.00000  0.05    0.43
Q6    1   0.7543  1.0397  0.3240  11.00000  0.05    0.42
Q7    1   0.7887  1.0767  0.5789  11.00000  0.05    0.41
Q8    1   0.4362  0.7636  1.1657  11.00000  0.05    0.40
Q9    1   0.8398  1.1621  0.6200  11.00000  0.05    0.38
Q10   1   0.6529  0.8340  0.7522  11.00000  0.05    0.37
;
_shelx_res_checksum              86835
_shelx_hkl_file
;
   2   0   0  429.07   15.04
   2   0   0  438.32   16.13
   2   0   0  413.18   16.12
   3   0   0   15.33    0.90
   3   0   0   15.30    0.75
   3   0   0   14.50    0.72
   4   0   0    8.46    0.59
   4   0   0    7.81    0.53
   5   0   0    1.31    0.34
   5   0   0    2.26    0.34
   6   0   0   11.92    0.78
   6   0   0   11.21    0.86
   7   0   0    6.01    0.75
   8   0   0   10.45    0.98
   8  -1   0   20.05    1.24
   6  -1   0    0.38    0.26
   3  -1   0    1.84    0.31
   2  -1   0 1000.00   34.19
  -2   1   0  963.93   34.22
   1  -1   0   17.18    0.70
  -1   1   0   17.52    0.71
   0  -1   0   41.41    1.46
   0   1   0   30.08    1.43
   0   1   0   32.11    1.41
  -1  -1   0  157.83    5.88
  -1  -1   0  153.60    5.86
   1   1   0  145.73    5.85
   1   1   0  147.74    5.88
  -2  -1   0  106.66    4.20
  -2  -1   0  111.80    4.23
   2   1   0  106.11    4.23
   2   1   0  100.77    4.24
  -3  -1   0    0.16    0.19
  -3  -1   0    0.15    0.22
   3   1   0    0.09    0.22
   3   1   0    0.00    0.18
   4   1   0  126.54    5.10
   4   1   0  122.94    5.04
   5   1   0   22.19    1.31
   5   1   0   21.61    1.23
   6   1   0    2.39    0.46
   6   1   0    2.31    0.51
   7   1   0   37.09    2.06
   8   1   0    1.27    0.52
   4  -2   0  242.21    8.78
   3  -2   0   55.20    2.22
  -3   2   0   57.47    2.30
   2  -2   0    0.09    0.12
   2  -2   0    0.03    0.09
  -2   2   0    0.08    0.15
   1  -2   0   92.91    3.37
   1  -2   0   91.09    3.81
   1  -2   0  102.84    3.79
   0  -2   0  112.57    4.35
   0  -2   0  117.35    4.40
   0   2   0  105.66    4.39
   0   2   0  101.20    4.32
   0   2   0  108.60    3.85
  -1  -2   0    1.05    0.31
  -1  -2   0    0.81    0.26
   1   2   0    0.82    0.25
   1   2   0    1.43    0.35
  -2  -2   0   17.86    1.04
  -2  -2   0   16.88    1.07
   2   2   0   19.99    1.05
   2   2   0   18.65    1.11
  -3  -2   0    8.08    0.68
   3   2   0    7.20    0.76
   3   2   0    6.54    0.65
  -4  -2   0    1.58    0.40
   4   2   0    1.94    0.49
   4   2   0    1.54    0.39
  -5  -2   0   94.02    3.71
   5   2   0   83.00    3.88
   5   2   0   91.44    4.02
   6   2   0    8.21    0.97
   6   2   0    9.85    0.90
   7   2   0    7.30    1.02
   8   2   0    9.68    1.18
   8  -3   0   26.22    1.95
   7  -3   0   15.25    1.33
   6  -3   0    7.90    0.87
   5  -3   0   26.03    1.48
   4  -3   0    9.45    0.65
   4  -3   0   10.38    0.78
  -4   3   0   10.11    0.81
   3  -3   0   67.24    2.94
   3  -3   0   74.33    2.82
   3  -3   0   73.58    2.92
  -3   3   0   73.86    2.82
   2  -3   0   15.94    0.77
   2  -3   0   17.26    0.90
   2  -3   0   17.28    0.94
  -2   3   0   15.42    0.81
   1  -3   0   24.06    1.23
   1  -3   0   24.96    0.97
   1  -3   0   25.17    1.30
  -1   3   0   24.70    0.98
  -1   3   0   24.54    1.27
   0  -3   0   28.73    1.50
   0  -3   0   32.06    1.48
   0   3   0   28.40    1.54
   0   3   0   28.38    1.43
   0   3   0   27.44    1.17
  -1  -3   0   68.89    2.97
  -1  -3   0   66.10    3.00
   1   3   0   64.99    2.90
   1   3   0   68.11    3.00
  -2  -3   0    2.59    0.47
   2   3   0    3.35    0.50
   2   3   0    3.68    0.61
  -3  -3   0   78.97    3.39
   3   3   0   76.45    3.57
   3   3   0   73.34    3.37
  -4  -3   0    0.07    0.32
   4   3   0    0.22    0.26
   4   3   0    0.47    0.43
  -5  -3   0    7.66    0.82
   5   3   0    6.31    0.76
   5   3   0    7.51    1.00
  -6  -3   0    0.88    0.41
   6   3   0    0.54    0.39
   6   3   0    0.67    0.50
   7   3   0   16.28    1.51
   8   3   0    0.09    0.52
   7  -4   0    4.94    0.84
   6  -4   0    5.48    0.77
   5  -4   0    5.10    0.67
   4  -4   0   17.02    0.94
   4  -4   0   16.22    0.98
   4  -4   0   18.51    1.02
  -4   4   0   17.48    1.02
   3  -4   0  108.67    4.45
   3  -4   0  107.33    3.97
   3  -4   0  103.63    4.37
  -3   4   0  109.90    4.05
   2  -4   0   -0.05    0.13
   2  -4   0   -0.06    0.23
   2  -4   0    0.03    0.24
  -2   4   0    0.12    0.25
   1  -4   0   41.94    2.14
   1  -4   0   45.67    2.12
  -1   4   0   42.24    2.14
  -1   4   0   45.84    1.69
   0  -4   0    2.02    0.42
   0  -4   0    1.91    0.45
   0   4   0    3.00    0.36
   0   4   0    2.53    0.61
  -1  -4   0  174.77    6.95
   1   4   0  162.98    7.02
  -2  -4   0   20.29    1.39
   2   4   0   20.22    1.51
  -3  -4   0   -0.19    0.36
   3   4   0    0.41    0.48
  -4  -4   0    3.02    0.62
   4   4   0    2.79    0.67
  -5  -4   0   65.76    3.22
   5   4   0   69.50    3.48
  -6  -4   0    5.12    0.81
   6   4   0    4.19    0.88
   7   4   0   11.13    1.36
   8   4   0   24.21    2.16
   6  -5   0    2.74    0.44
   6  -5   0    2.70    0.60
   5  -5   0   16.83    1.07
   5  -5   0   15.84    1.06
   5  -5   0   19.37    1.09
   4  -5   0    1.85    0.36
   4  -5   0    1.63    0.40
   4  -5   0    1.61    0.43
  -4   5   0    2.53    0.42
   3  -5   0   23.63    1.39
   3  -5   0   23.61    1.41
   3  -5   0   26.88    1.14
  -3   5   0   24.57    1.22
   2  -5   0   20.13    1.27
   2  -5   0   20.61    1.24
   2  -5   0   18.39    0.83
   1  -5   0    1.00    0.36
   1  -5   0   -0.06    0.30
  -1   5   0    0.82    0.24
  -1   5   0   -0.07    0.40
   0  -5   0    5.22    0.75
   0   5   0    6.51    0.96
   0   5   0    5.99    0.59
  -1  -5   0   27.30    1.73
   1   5   0   28.71    1.88
  -2  -5   0    1.82    0.56
   2   5   0    0.90    0.54
  -3  -5   0   11.11    1.13
   3   5   0   10.72    1.18
  -4  -5   0   39.81    2.30
   4   5   0   40.88    2.45
  -5  -5   0    5.05    0.87
   5   5   0    4.51    0.88
  -6  -5   0   38.23    2.39
   6   5   0   38.42    2.55
   7   5   0    8.08    1.39
   8   5   0    3.07    1.03
   6  -6   0    9.88    0.88
   5  -6   0    1.95    0.43
   5  -6   0    1.65    0.45
  -5   6   0    2.45    0.51
   4  -6   0   35.58    1.90
   4  -6   0   33.93    1.51
  -4   6   0   34.29    1.62
   3  -6   0   -0.22    0.30
   3  -6   0   -0.21    0.29
  -3   6   0   -0.21    0.24
   2  -6   0    0.81    0.41
   2  -6   0    0.63    0.33
  -2   6   0    1.03    0.39
   1  -6   0    1.62    0.49
  -1   6   0    1.31    0.60
  -1   6   0    1.37    0.28
   0  -6   0    3.37    0.71
   0   6   0    4.03    0.50
   0   6   0    4.61    0.86
  -1  -6   0    0.26    0.38
   1   6   0    0.43    0.34
   1   6   0    0.36    0.54
  -2  -6   0   60.10    3.27
   2   6   0   70.78    3.55
  -3  -6   0   29.50    2.00
   3   6   0   29.50    2.21
  -4  -6   0   17.55    1.56
   4   6   0   16.73    1.71
  -5  -6   0   58.66    3.23
   5   6   0   60.94    3.55
  -6  -6   0    1.50    0.79
   6   6   0    3.54    1.06
   7   6   0   24.51    2.35
   6  -7   0   12.61    1.10
   5  -7   0    8.71    0.96
   4  -7   0    1.22    0.45
  -4   7   0    0.78    0.35
   3  -7   0   20.68    1.47
  -3   7   0   18.62    1.12
   2  -7   0   18.14    1.44
   2  -7   0   19.27    1.62
  -2   7   0   19.33    1.33
   1  -7   0    3.49    0.70
  -1   7   0    4.30    0.48
  -1   7   0    4.73    0.88
   0  -7   0   51.72    2.87
   0   7   0   51.30    2.17
   0   7   0   56.61    3.04
  -1  -7   0    5.17    0.88
   1   7   0    7.83    1.22
  -2  -7   0    4.98    0.91
   2   7   0    7.23    1.23
  -3  -7   0   44.88    2.76
   3   7   0   46.78    3.01
  -4  -7   0   17.75    1.70
   4   7   0   15.14    1.84
  -5  -7   0   15.67    1.67
   5   7   0   16.71    1.96
   6   7   0    7.37    1.43
   7   7   0    2.42    1.21
   5  -8   0    1.04    0.56
   4  -8   0   13.97    1.32
   3  -8   0    1.86    0.62
  -3   8   0    1.09    0.43
   2  -8   0   15.49    1.43
   1  -8   0   16.27    1.49
  -1   8   0   18.28    1.57
   0  -8   0   10.68    1.32
   0   8   0    8.97    1.41
  -1  -8   0   61.83    3.42
   1   8   0   58.40    3.52
  -2  -8   0   34.62    2.51
   2   8   0   38.48    2.73
  -3  -8   0    0.09    0.60
   3   8   0    0.47    0.85
  -4  -8   0   19.86    2.00
   4   8   0   20.50    2.23
  -5  -8   0    2.64    1.04
   5   8   0    3.25    1.19
   6   8   0    2.79    1.28
   4  -9   0    0.04    0.51
   3  -9   0    7.27    1.20
   2  -9   0    3.38    0.82
   1  -9   0    4.82    0.91
   0  -9   0   18.30    1.76
   0   9   0   16.84    1.88
  -1  -9   0    2.14    0.88
   1   9   0    1.92    0.99
  -2  -9   0   23.11    2.13
   2   9   0   25.42    2.39
  -3  -9   0   26.04    2.28
   3   9   0   24.02    2.40
  -4  -9   0    6.00    1.33
   4   9   0    3.99    1.27
  -5  -9   0   12.95    1.89
   5   9   0   10.96    1.86
   3 -10   0    1.80    0.77
   2 -10   0    1.10    0.72
   1 -10   0    6.11    1.26
   0 -10   0    0.42    0.72
  -1 -10   0   15.08    1.80
   1  10   0   15.66    2.00
  -2 -10   0    5.05    1.16
   2  10   0    5.26    1.45
  -3 -10   0    7.02    1.44
   3  10   0    7.09    1.64
  -4 -10   0   10.69    1.69
   4  10   0    6.23    1.61
   0 -11   0   16.29    1.97
  -1 -11   0    2.36    1.08
  -2 -11   0    7.39    1.65
   2  11   0    4.47    1.43
   4  10  -1   11.39    2.02
  -4 -10   1   12.38    1.88
   3  10  -1   -0.62    0.88
  -3 -10   1    1.33    0.88
   2  10  -1    0.39    0.97
  -2 -10   1    0.94    0.89
   1  10  -1   26.39    2.52
  -1 -10   1   21.59    2.22
   0 -10   1   -0.07    0.66
   1 -10   1   10.39    1.54
   2 -10   1   14.47    1.66
   5   9  -1    4.54    1.36
  -5  -9   1    2.09    0.96
   4   9  -1   -0.39    0.92
  -4  -9   1   -0.02    0.73
   3   9  -1   27.36    2.63
  -3  -9   1   28.39    2.43
   2   9  -1    9.89    1.68
  -2  -9   1   12.26    1.70
   1   9  -1    2.36    1.03
  -1  -9   1    2.47    0.92
   0   9  -1   60.18    3.63
   0  -9   1   61.28    3.56
   1  -9   1   11.31    1.42
   2  -9   1   21.40    1.85
   3  -9   1    5.17    1.05
   4  -9   1    0.31    0.50
   6   8  -1    6.45    1.48
   5   8  -1    7.71    1.41
  -5  -8   1    6.06    1.28
   4   8  -1    6.88    1.38
  -4  -8   1    4.46    1.09
   3   8  -1    1.85    0.89
  -3  -8   1    1.20    0.81
   2   8  -1   26.40    2.30
  -2  -8   1   27.59    2.19
   1   8  -1   26.86    2.22
  -1  -8   1   27.07    2.11
   0   8  -1    3.19    1.02
   0  -8   1    1.87    0.75
  -1   8  -1   12.17    1.45
   1  -8   1   10.46    1.31
   2  -8   1   34.47    2.26
  -3   8  -1    2.76    0.60
   3  -8   1    1.76    0.59
   4  -8   1   21.53    1.66
   5  -8   1   10.20    1.16
   7   7  -1    4.89    1.37
   6   7  -1    4.59    1.24
   5   7  -1    6.41    1.35
  -5  -7   1    8.83    1.42
   4   7  -1    5.95    1.19
  -4  -7   1    6.28    1.16
   3   7  -1   10.17    1.51
  -3  -7   1   10.16    1.42
   2   7  -1   37.40    2.58
  -2  -7   1   35.26    2.38
   1   7  -1    3.70    0.90
  -1  -7   1    0.99    0.63
   0   7  -1   42.08    2.56
   0   7  -1   38.61    1.87
   0  -7   1   37.90    2.35
  -1   7  -1    3.61    0.81
  -1   7  -1    5.23    0.60
   1  -7   1    4.15    0.80
  -2   7  -1    6.07    0.69
  -2   7  -1    6.35    0.94
   2  -7   1    5.92    0.93
  -3   7  -1   21.60    1.36
   3  -7   1   22.79    1.08
   3  -7   1   22.65    1.57
  -4   7  -1    0.76    0.41
   4  -7   1    0.42    0.40
   5  -7   1    6.55    0.90
   6  -7   1   27.40    1.71
   7   6  -1    4.42    1.12
   6   6  -1    0.98    0.72
  -6  -6   1    0.40    0.72
   5   6  -1   11.22    1.58
  -5  -6   1   11.71    1.39
   4   6  -1   35.27    2.48
  -4  -6   1   36.96    2.40
   3   6  -1    4.75    0.97
  -3  -6   1    5.90    0.94
   2   6  -1   41.13    2.52
  -2  -6   1   41.09    2.44
   1   6  -1   50.21    2.92
  -1  -6   1   52.96    2.80
   0   6  -1    3.66    0.54
   0   6  -1    4.33    0.89
   0  -6   1    2.00    0.55
  -1   6  -1   13.77    0.91
  -1   6  -1   18.25    1.39
   1  -6   1   14.54    1.22
  -2   6  -1   11.37    0.75
  -2   6  -1   10.94    0.98
   2  -6   1   11.83    1.02
   2  -6   1   11.91    1.04
   2  -6   1   11.32    0.71
  -3   6  -1    0.32    0.35
   3  -6   1   -0.23    0.31
   3  -6   1    0.19    0.37
   3  -6   1   -0.08    0.22
  -4   6  -1   17.01    1.14
   4  -6   1   17.33    1.23
   4  -6   1   18.42    1.02
  -5   6  -1    0.82    0.47
   5  -6   1    1.07    0.39
   5  -6   1    1.73    0.44
   6  -6   1    0.16    0.30
   8   5  -1    3.83    1.02
   7   5  -1   -0.40    0.55
   6   5  -1   43.82    2.79
  -6  -5   1   41.97    2.47
   5   5  -1   22.65    1.87
  -5  -5   1   21.41    1.71
   4   5  -1   23.06    1.84
  -4  -5   1   25.62    1.77
   3   5  -1  135.43    6.04
  -3  -5   1  134.65    5.95
   2   5  -1   -0.30    0.42
  -2  -5   1   -0.10    0.36
   1   5  -1   78.81    3.14
   1   5  -1   74.15    3.67
  -1  -5   1   79.38    3.65
   0   5  -1   17.02    1.04
   0   5  -1   20.71    1.49
   0  -5   1   17.50    1.28
  -1   5  -1    4.14    0.50
  -1   5  -1    5.16    0.79
   1  -5   1    3.57    0.63
   1  -5   1    3.27    0.58
   1  -5   1    3.47    0.42
  -2   5  -1   10.73    0.71
   2  -5   1   10.70    0.68
   2  -5   1   13.41    0.99
   2  -5   1   11.60    0.97
  -3   5  -1   35.94    1.76
   3  -5   1   35.49    1.92
   3  -5   1   39.15    1.93
   3  -5   1   38.86    1.67
  -4   5  -1    1.91    0.46
   4  -5   1    0.23    0.25
   4  -5   1    1.36    0.39
   4  -5   1    1.92    0.42
  -5   5  -1   41.53    2.01
   5  -5   1   39.20    1.91
   5  -5   1   39.91    1.92
   6  -5   1    8.16    0.86
   6  -5   1    9.43    0.73
   8   4  -1    7.25    1.33
   7   4  -1    6.27    1.14
   6   4  -1    2.61    0.81
  -6  -4   1    2.65    0.65
   5   4  -1   93.14    4.61
  -5  -4   1  100.72    4.41
   4   4  -1   12.95    1.30
  -4  -4   1   12.81    1.19
   3   4  -1    6.98    1.01
  -3  -4   1    7.24    0.93
   2   4  -1  110.95    4.90
  -2  -4   1  109.77    4.81
   1   4  -1  110.99    4.34
   1   4  -1  116.07    4.98
  -1  -4   1  116.52    4.90
   0   4  -1   12.59    0.88
   0   4  -1   15.51    1.17
   0  -4   1   15.28    1.09
   0  -4   1   12.78    1.04
  -1   4  -1   96.04    4.29
  -1   4  -1  102.86    3.74
   1  -4   1  100.68    3.70
   1  -4   1   96.32    4.23
   1  -4   1  102.03    4.29
  -2   4  -1    9.45    0.70
  -2   4  -1    9.00    0.68
   2  -4   1    8.79    0.76
   2  -4   1    9.83    0.80
   2  -4   1   10.59    0.63
  -3   4  -1  105.39    4.06
   3  -4   1  103.85    3.95
   3  -4   1  102.78    4.30
   3  -4   1  105.64    4.34
  -4   4  -1   35.29    1.70
   4  -4   1   35.55    1.67
   4  -4   1   34.33    1.65
   4  -4   1   34.67    1.67
  -5   4  -1   -0.20    0.37
   5  -4   1    0.25    0.21
   5  -4   1    0.18    0.31
   5  -4   1    0.43    0.23
   6  -4   1   19.21    1.33
   7  -4   1   12.80    1.24
   8   3  -1    0.54    0.66
   7   3  -1   17.15    1.61
   6   3  -1   20.22    1.56
  -6  -3   1   12.84    1.04
   5   3  -1    0.20    0.44
   5   3  -1    0.18    0.29
  -5  -3   1    0.10    0.37
   4   3  -1  128.68    5.62
   4   3  -1  127.25    5.50
  -4  -3   1  133.19    5.47
   3   3  -1   13.26    1.14
   3   3  -1   10.77    0.92
  -3  -3   1   12.86    1.06
   2   3  -1    4.27    0.59
   2   3  -1    4.42    0.68
  -2  -3   1    3.80    0.63
   1   3  -1  157.45    6.83
   1   3  -1  166.69    6.94
  -1  -3   1  176.25    6.93
  -1  -3   1  182.05    6.90
   0   3  -1   56.27    2.47
   0   3  -1   52.00    2.09
   0  -3   1   49.98    2.41
   0  -3   1   54.32    2.43
  -1   3  -1   15.01    0.97
  -1   3  -1   14.98    0.77
   1  -3   1   14.33    0.76
   1  -3   1   15.72    0.95
   1  -3   1   14.19    0.92
  -2   3  -1   82.37    3.08
  -2   3  -1   79.26    3.20
  -2   3  -1   79.92    3.14
   2  -3   1   82.81    3.06
   2  -3   1   78.38    3.35
  -3   3  -1  113.75    4.32
   3  -3   1  110.61    4.51
   3  -3   1  115.44    4.27
  -4   3  -1   25.13    1.34
   4  -3   1   23.74    1.13
   4  -3   1   24.08    1.34
  -5   3  -1   33.57    1.78
   5  -3   1   31.42    1.75
   6  -3   1    5.31    0.82
   7  -3   1    7.00    1.07
   8  -3   1    5.06    1.05
   8   2  -1   25.25    1.90
   7   2  -1    0.64    0.51
   6   2  -1   56.88    2.83
   6   2  -1   60.11    2.99
   5   2  -1   49.80    2.45
   5   2  -1   49.61    2.56
  -5  -2   1   50.59    2.29
   4   2  -1    2.80    0.57
   4   2  -1    3.29    0.52
  -4  -2   1    3.46    0.54
   3   2  -1   80.07    3.45
   3   2  -1   77.62    3.37
  -3  -2   1   75.64    3.35
   2   2  -1   21.22    1.16
   2   2  -1   21.32    1.22
  -2  -2   1   19.07    1.17
  -2  -2   1   19.79    1.16
   1   2  -1    6.84    0.62
   1   2  -1    7.57    0.70
  -1  -2   1    8.31    0.69
  -1  -2   1    6.66    0.64
   0   2  -1  148.60    5.25
   0   2  -1  146.26    5.86
   0  -2   1  145.73    5.82
   0  -2   1  145.47    5.84
   0  -2   1  148.84    5.25
  -1   2  -1    0.21    0.21
  -1   2  -1    0.69    0.24
   1  -2   1    0.57    0.19
   1  -2   1    0.21    0.20
  -2   2  -1   14.19    0.80
   2  -2   1   14.47    0.76
   2  -2   1   14.99    0.78
  -3   2  -1   42.69    1.90
   3  -2   1   43.00    1.91
   3  -2   1   45.39    1.87
  -4   2  -1   69.58    2.87
   4  -2   1   65.00    2.87
   5  -2   1    0.22    0.31
   6  -2   1    6.57    0.92
   7  -2   1   22.70    1.69
   8  -2   1    4.67    1.01
   8   1  -1    1.95    0.65
   7   1  -1   14.98    1.28
   6   1  -1   37.68    1.98
   6   1  -1   33.56    1.84
   5   1  -1   42.20    2.06
   5   1  -1   38.12    1.94
   4   1  -1  130.31    5.21
   4   1  -1  124.38    5.12
  -4  -1   1  123.70    4.97
   3   1  -1    6.87    0.66
   3   1  -1    5.96    0.56
  -3  -1   1    6.70    0.60
   2   1  -1   33.78    1.60
   2   1  -1   34.38    1.65
  -2  -1   1   37.15    1.63
  -2  -1   1   35.86    1.60
   1   1  -1   15.36    0.87
  -1  -1   1   16.20    0.86
  -1  -1   1   15.43    0.86
   0   1  -1    3.17    0.38
   0   1  -1    2.75    0.30
   0  -1   1    3.21    0.35
   0  -1   1    2.89    0.29
  -1   1  -1   11.19    0.61
  -1   1  -1   11.61    0.61
   1  -1   1   12.19    0.60
   1  -1   1   11.10    0.59
  -2   1  -1   16.58    0.85
   2  -1   1   15.62    0.81
   2  -1   1   16.02    0.71
   2  -1   1   18.43    0.89
  -3   1  -1   11.43    0.78
   3  -1   1   10.91    0.70
  -4   1  -1   31.18    1.64
   7  -1   1    9.39    0.71
   8   0  -1   36.29    2.07
   7   0  -1    0.62    0.45
   6   0  -1    4.23    0.64
   6   0  -1    4.60    0.56
   5   0  -1   13.13    0.88
   5   0  -1   11.50    0.78
   4   0  -1    2.49    0.40
   4   0  -1    3.31    0.40
   3   0  -1    1.93    0.31
   3   0  -1    2.32    0.34
   2   0  -1    0.63    0.21
   2   0  -1    0.98    0.20
  -2   0   1    0.59    0.18
  -2   0   1    0.53    0.15
   1   0  -1    7.38    0.46
  -1   0   1    7.43    0.45
   0   0  -1   14.67    0.71
   0   0  -1   16.25    0.66
  -1   0  -1   75.54    2.86
  -1   0  -1   71.57    2.71
  -1   0  -1   72.24    2.70
   1   0   1   75.25    2.87
   1   0   1   72.38    2.71
   1   0   1   74.97    2.71
   1   0   1   70.53    2.86
  -2   0  -1   -0.01    0.22
   2   0   1    0.00    0.15
   2   0   1   -0.11    0.17
   2   0   1    0.05    0.12
  -3   0  -1  300.89   10.98
   3   0   1  306.01   11.58
   3   0   1  310.58   10.94
   3   0   1  297.39   11.56
   4   0   1    5.38    0.43
   4   0   1    4.46    0.45
   5   0   1   16.57    0.95
   5   0   1   19.41    1.00
   6   0   1    1.93    0.38
   6   0   1    1.98    0.44
   7   0   1    0.38    0.39
   8   0   1   10.67    1.00
   8  -1  -1    4.56    0.71
   7  -1  -1   16.82    1.10
   6  -1  -1    1.87    0.38
   5  -1  -1    6.73    0.57
   4  -1  -1    1.49    0.27
   4  -1  -1    0.82    0.30
   3  -1  -1    0.61    0.21
   3  -1  -1    0.28    0.16
   2  -1  -1  644.16   24.33
   1  -1  -1  194.95    7.81
  -1   1   1  212.49    7.77
   0  -1  -1   66.17    2.69
   0  -1  -1   64.77    2.66
   0  -1  -1   67.35    2.39
   0  -1  -1   64.88    2.36
   0   1   1   67.97    2.39
   0   1   1   66.18    2.36
   0   1   1   63.14    2.67
  -1  -1  -1  328.89   12.99
  -1  -1  -1  340.42   13.01
  -1  -1  -1  339.93   12.00
   1   1   1  339.77   12.00
   1   1   1  347.40   13.01
   1   1   1  345.35   13.02
  -2  -1  -1    6.04    0.49
  -2  -1  -1    6.18    0.50
   2   1   1    5.96    0.54
   2   1   1    5.87    0.55
   2   1   1    6.14    0.51
  -3  -1  -1    8.38    0.54
  -3  -1  -1    7.94    0.57
   3   1   1    8.20    0.62
   3   1   1    8.18    0.63
   4   1   1   71.74    3.03
   4   1   1   69.23    3.01
   5   1   1    0.55    0.28
   5   1   1    1.47    0.37
   6   1   1    1.71    0.46
   6   1   1    1.57    0.38
   7   1   1   17.66    1.29
   8   1   1    9.24    1.07
   9   1   1    3.10    0.78
   4  -2  -1   50.01    2.07
   3  -2  -1  210.18    7.95
   3  -2  -1  203.56    7.39
   2  -2  -1    0.40    0.17
   2  -2  -1    0.07    0.09
   1  -2  -1  160.71    6.35
   1  -2  -1  168.17    6.36
  -1   2   1  161.15    6.31
   0  -2  -1   12.07    0.76
   0  -2  -1   11.84    0.78
   0   2   1   11.99    0.78
   0   2   1   14.45    0.77
  -1  -2  -1    8.04    0.70
  -1  -2  -1    9.05    0.65
   1   2   1    7.75    0.63
   1   2   1    8.72    0.74
  -2  -2  -1    9.19    0.74
  -2  -2  -1    8.06    0.71
   2   2   1    7.98    0.67
   2   2   1    8.61    0.76
  -3  -2  -1   12.72    0.91
   3   2   1   13.65    0.91
   3   2   1   11.97    0.93
   4   2   1   13.57    1.03
   4   2   1   15.74    1.03
  -5  -2  -1   17.70    0.99
   5   2   1   20.27    1.29
   5   2   1   18.36    1.21
   6   2   1   21.31    1.43
   6   2   1   23.76    1.54
   7   2   1    0.54    0.49
   8   2   1   42.24    2.54
   5  -3  -1   52.65    2.21
   4  -3  -1   14.50    0.79
   4  -3  -1   14.29    0.77
   3  -3  -1    1.87    0.29
   2  -3  -1   27.07    1.30
   2  -3  -1   25.69    1.30
  -2   3   1   28.34    1.07
   1  -3  -1  152.19    6.04
   1  -3  -1  153.57    6.10
  -1   3   1  150.59    5.97
   0  -3  -1   92.97    3.96
   0  -3  -1   96.68    3.88
   0   3   1   97.97    3.87
   0   3   1   84.51    3.90
  -1  -3  -1  212.86    8.27
   1   3   1  205.86    8.29
   1   3   1  202.00    8.19
  -2  -3  -1   27.83    1.58
   2   3   1   33.04    1.76
   2   3   1   30.99    1.62
  -3  -3  -1    4.58    0.71
   3   3   1    5.15    0.76
   3   3   1    6.25    0.69
  -4  -3  -1   56.73    2.73
   4   3   1   56.96    2.79
   4   3   1   60.74    2.89
  -5  -3  -1    6.31    0.79
   5   3   1    7.54    0.86
   5   3   1    9.32    1.01
  -6  -3  -1    8.65    0.80
   6   3   1    8.79    1.12
   6   3   1    9.59    0.99
   7   3   1    2.38    0.74
   8   3   1    6.40    1.12
   7  -4  -1    7.13    1.00
   6  -4  -1    3.75    0.64
   5  -4  -1   14.12    0.89
   5  -4  -1   13.69    0.85
   5  -4  -1   13.99    1.00
   4  -4  -1   39.77    1.78
   4  -4  -1   38.99    1.84
   4  -4  -1   40.21    1.85
   3  -4  -1  126.11    5.12
   3  -4  -1  126.16    4.54
   3  -4  -1  123.32    5.07
  -3   4   1  124.95    4.55
   2  -4  -1   11.57    0.82
   2  -4  -1   10.43    0.85
  -2   4   1   11.98    0.59
   1  -4  -1   55.83    2.56
   1  -4  -1   52.11    2.62
  -1   4   1   60.16    2.56
   0  -4  -1  284.21   11.68
   0  -4  -1  292.31   11.59
   0   4   1  309.42   11.69
  -1  -4  -1    4.49    0.67
   1   4   1    4.71    0.75
  -2  -4  -1  128.73    5.58
   2   4   1  137.98    5.78
  -3  -4  -1   50.78    2.60
   3   4   1   56.61    2.82
  -4  -4  -1   40.88    2.23
   4   4   1   42.72    2.43
  -5  -4  -1   10.97    1.10
   5   4   1   11.87    1.31
  -6  -4  -1   17.84    1.32
   6   4   1   17.63    1.64
   7   4   1    0.44    0.72
   8   4   1    6.25    1.23
   6  -5  -1    4.56    0.62
   6  -5  -1    4.22    0.66
   5  -5  -1   10.83    0.84
   5  -5  -1    9.12    0.76
   4  -5  -1   14.37    0.96
   4  -5  -1   12.40    0.97
   4  -5  -1   14.26    0.79
   3  -5  -1   11.48    0.89
   3  -5  -1   11.69    0.58
   3  -5  -1   10.91    0.92
  -3   5   1   10.96    0.62
   2  -5  -1  151.92    6.42
   2  -5  -1  155.78    6.33
   1  -5  -1   79.19    3.71
   1  -5  -1   74.64    3.59
  -1   5   1   89.79    3.64
   0  -5  -1  170.68    7.08
   0   5   1  169.98    6.08
   0   5   1  175.63    7.18
  -1  -5  -1  103.42    4.55
   1   5   1  102.87    4.70
  -2  -5  -1    0.71    0.43
   2   5   1    0.40    0.55
  -3  -5  -1    6.73    0.96
   3   5   1    6.88    1.03
  -4  -5  -1   68.96    3.41
   4   5   1   69.47    3.63
  -5  -5  -1    6.91    1.07
   5   5   1    5.67    1.06
  -6  -5  -1    7.39    1.07
   6   5   1    7.75    1.27
   7   5   1   30.88    2.44
   8   5   1    1.17    0.83
   7  -6  -1    7.79    0.81
   6  -6  -1   15.34    1.17
   5  -6  -1    0.16    0.35
   4  -6  -1   79.12    3.58
   3  -6  -1   30.61    1.76
   3  -6  -1   32.49    1.88
  -3   6   1   30.14    1.33
   2  -6  -1   46.11    2.50
   2  -6  -1   49.55    2.46
   1  -6  -1   15.64    1.17
   1  -6  -1   15.25    1.28
  -1   6   1   11.88    1.12
   0  -6  -1    3.83    0.69
   0   6   1    4.88    0.80
   0   6   1    3.47    0.42
  -1  -6  -1   -0.01    0.32
   1   6   1    0.31    0.51
  -2  -6  -1   38.35    2.29
   2   6   1   40.65    2.49
  -3  -6  -1   29.38    1.95
   3   6   1   27.92    2.10
  -4  -6  -1    1.70    0.69
   4   6   1    1.41    0.81
  -5  -6  -1   57.54    3.11
   5   6   1   51.94    3.31
  -6  -6  -1    2.48    0.86
   6   6   1    5.15    1.16
   7   6   1    0.34    0.68
   8   6   1   12.38    1.96
   6  -7  -1    8.09    1.00
   5  -7  -1   31.37    1.89
   4  -7  -1    0.44    0.36
   3  -7  -1   34.41    2.07
  -3   7   1   36.77    1.56
   2  -7  -1   28.94    1.94
   2  -7  -1   32.35    1.94
   1  -7  -1    0.21    0.39
  -1   7   1    0.08    0.47
   0  -7  -1   26.84    1.87
   0   7   1   29.11    2.00
   0   7   1   29.16    1.27
  -1  -7  -1    3.79    0.82
   1   7   1    4.19    0.91
   1   7   1    4.75    0.62
  -2  -7  -1    2.10    0.69
   2   7   1    0.78    0.73
  -3  -7  -1    8.71    1.26
   3   7   1   12.62    1.54
  -4  -7  -1    5.97    1.11
   4   7   1    4.16    1.06
  -5  -7  -1    1.50    0.83
   5   7   1    0.41    0.78
  -6  -7  -1   35.54    2.56
   6   7   1   36.77    2.84
   7   7   1   17.58    2.21
   5  -8  -1    0.46    0.46
   4  -8  -1   18.48    1.50
   3  -8  -1    2.38    0.68
   2  -8  -1    4.12    0.82
   1  -8  -1   18.55    1.54
  -1   8   1   15.54    1.46
   0  -8  -1    1.26    0.66
   0   8   1    0.58    0.42
   0   8   1    1.50    0.83
  -1  -8  -1   16.77    1.61
   1   8   1   17.05    1.14
   1   8   1   17.43    1.91
  -2  -8  -1    9.65    1.37
   2   8   1   12.81    1.72
  -3  -8  -1   16.97    1.76
   3   8   1   14.73    1.90
  -4  -8  -1   33.39    2.48
   4   8   1   33.04    2.72
  -5  -8  -1   19.95    2.03
   5   8   1   18.28    2.18
   6   8   1    5.07    1.42
   4  -9  -1    0.16    0.50
   3  -9  -1   11.68    1.36
   2  -9  -1    0.47    0.51
   1  -9  -1    2.12    0.73
   0  -9  -1    1.70    0.74
   0   9   1    2.18    0.84
  -1  -9  -1   26.32    2.11
   1   9   1   24.51    2.23
  -2  -9  -1   11.03    1.56
   2   9   1   11.88    1.79
  -3  -9  -1   33.23    2.61
   3   9   1   33.85    2.82
  -4  -9  -1    9.96    1.64
   4   9   1   10.36    1.82
  -5  -9  -1   15.94    2.04
   5   9   1   16.56    2.31
   6   9   1   12.55    2.04
   3 -10  -1    2.92    0.83
   2 -10  -1    2.15    0.85
   1 -10  -1   23.46    2.04
   0 -10  -1   -0.05    0.49
  -1 -10  -1   16.78    1.87
   1  10   1   17.21    1.99
  -2 -10  -1   12.58    1.81
   2  10   1   12.97    1.94
  -3 -10  -1   -0.56    0.85
   3  10   1    2.23    1.20
  -4 -10  -1    9.30    1.59
   4  10   1    8.36    1.66
  -5 -10  -1    2.95    1.26
   1 -11  -1    1.69    0.92
   0 -11  -1   16.03    1.96
  -1 -11  -1    0.44    0.77
  -2 -11  -1   10.67    1.73
   2  11   1    7.90    1.67
   3  10  -2   11.29    2.06
  -3 -10   2    9.71    1.64
   2  10  -2    0.86    1.06
  -2 -10   2    4.41    1.27
   1  10  -2   11.95    1.93
  -1 -10   2   10.99    1.66
   0 -10   2    1.01    0.75
   1 -10   2   -0.13    0.61
   2 -10   2   23.08    2.13
   5   9  -2   16.86    2.37
  -5  -9   2   14.33    2.10
   4   9  -2    0.55    0.99
  -4  -9   2   -0.33    0.78
   3   9  -2    2.95    1.17
  -3  -9   2    2.73    1.03
   2   9  -2   36.95    2.91
  -2  -9   2   33.83    2.66
   1   9  -2    0.67    0.87
  -1  -9   2    0.57    0.65
   0   9  -2   22.88    2.23
   0  -9   2   25.65    2.15
   1  -9   2    3.56    0.93
   2  -9   2   10.02    1.36
  -3   9  -2   15.47    1.39
   3  -9   2   16.33    1.64
   4  -9   2    6.02    1.09
   6   8  -2    8.08    1.59
   5   8  -2   -0.05    0.88
  -5  -8   2    1.01    0.82
   4   8  -2   11.58    1.78
  -4  -8   2   13.77    1.77
   3   8  -2    2.49    1.02
  -3  -8   2    4.41    1.11
   2   8  -2    0.67    0.87
  -2  -8   2    0.09    0.62
   1   8  -2    8.27    1.40
  -1  -8   2    8.96    1.36
   0   8  -2   67.26    3.69
   0  -8   2   58.99    3.43
  -1   8  -2   32.25    2.33
   1  -8   2   33.16    2.24
   2  -8   2   49.84    2.88
  -3   8  -2    9.15    1.05
   3  -8   2    7.64    1.12
  -4   8  -2    3.70    0.71
   4  -8   2    3.48    0.78
   5  -8   2    0.53    0.48
   6   7  -2    7.15    1.35
   5   7  -2    2.48    0.96
  -5  -7   2    2.02    0.93
   4   7  -2    2.39    0.94
  -4  -7   2    3.07    0.90
   3   7  -2    6.73    1.24
  -3  -7   2    6.56    1.15
   2   7  -2  100.79    5.09
  -2  -7   2  105.75    5.03
   1   7  -2   15.54    1.64
  -1  -7   2   17.89    1.57
   0   7  -2   30.32    2.14
   0  -7   2   23.64    1.85
  -1   7  -2    0.35    0.73
   1  -7   2    0.73    0.49
  -2   7  -2    0.95    0.56
   2  -7   2    0.67    0.48
  -3   7  -2    6.90    0.92
   3  -7   2    7.64    0.70
   3  -7   2    5.54    0.88
  -4   7  -2    2.79    0.63
   4  -7   2    1.79    0.58
  -5   7  -2    5.78    0.83
   5  -7   2    6.04    0.86
   6  -7   2    3.70    0.71
   7   6  -2    2.92    1.07
   6   6  -2   12.15    1.64
   5   6  -2    8.80    1.36
  -5  -6   2    8.40    1.33
   4   6  -2   29.70    2.41
  -4  -6   2   36.55    2.35
   3   6  -2    6.24    1.05
  -3  -6   2    8.03    1.19
   2   6  -2   28.30    2.10
  -2  -6   2   31.32    2.04
   1   6  -2   51.74    2.99
  -1  -6   2   57.61    2.97
   0   6  -2    4.32    0.84
   0  -6   2    6.39    0.91
  -1   6  -2   28.01    1.48
  -1   6  -2   32.24    1.99
   1  -6   2   28.98    1.86
  -2   6  -2   13.41    1.20
  -2   6  -2   12.24    0.97
   2  -6   2   14.78    1.22
   2  -6   2   14.24    1.16
   2  -6   2   13.71    0.90
  -3   6  -2    1.44    0.43
  -3   6  -2    2.75    0.64
   3  -6   2    2.23    0.44
   3  -6   2    2.12    0.55
   3  -6   2    1.22    0.46
  -4   6  -2    0.19    0.44
   4  -6   2   -0.09    0.28
   4  -6   2    0.60    0.38
  -5   6  -2    6.25    0.87
   5  -6   2    6.92    0.81
   5  -6   2    7.15    0.76
  -6   6  -2   -0.11    0.54
   6  -6   2   -0.08    0.33
   7   5  -2    1.30    0.79
   6   5  -2   23.86    2.06
   5   5  -2   13.85    1.62
  -5  -5   2   16.25    1.52
   4   5  -2   21.11    1.78
  -4  -5   2   16.08    1.55
   3   5  -2   71.96    3.84
  -3  -5   2   78.87    3.76
   2   5  -2    2.36    0.74
  -2  -5   2    2.22    0.66
   1   5  -2   56.29    3.04
  -1  -5   2   61.85    3.00
   0   5  -2   28.49    1.81
   0   5  -2   28.08    1.48
   0  -5   2   28.75    1.77
  -1   5  -2    5.46    0.65
  -1   5  -2    4.41    0.76
   1  -5   2    5.00    0.75
   1  -5   2    4.25    0.52
   1  -5   2    4.33    0.72
  -2   5  -2    2.66    0.58
  -2   5  -2    2.81    0.53
   2  -5   2    2.54    0.51
   2  -5   2    2.62    0.45
   2  -5   2    1.92    0.51
  -3   5  -2   59.77    2.66
   3  -5   2   60.90    2.51
   3  -5   2   60.26    2.81
   3  -5   2   54.96    2.78
  -4   5  -2    0.57    0.42
   4  -5   2    1.14    0.35
   4  -5   2    0.84    0.40
   4  -5   2    1.16    0.42
  -5   5  -2   13.83    1.16
   5  -5   2   16.10    1.04
   5  -5   2   12.15    0.98
  -6   5  -2   10.26    1.11
   6  -5   2   10.11    0.97
   6  -5   2   11.11    0.86
   8   4  -2    2.81    0.98
   7   4  -2    0.57    0.67
   6   4  -2    2.09    0.74
   5   4  -2   16.54    1.58
  -5  -4   2   18.07    1.47
   4   4  -2   12.11    1.28
  -4  -4   2   10.93    1.19
   3   4  -2    1.34    0.55
  -3  -4   2    0.66    0.43
   2   4  -2   89.04    3.99
  -2  -4   2   79.13    3.80
   1   4  -2   96.60    4.21
  -1  -4   2   85.78    4.05
   0   4  -2    1.26    0.44
   0   4  -2    0.88    0.49
   0  -4   2    0.88    0.46
   0  -4   2    1.07    0.43
   0  -4   2    0.76    0.44
  -1   4  -2   71.90    2.87
  -1   4  -2   67.35    3.22
   1  -4   2   72.92    2.83
   1  -4   2   72.01    3.25
   1  -4   2   70.58    3.23
  -2   4  -2    1.86    0.43
   2  -4   2    2.80    0.43
   2  -4   2    3.32    0.52
  -3   4  -2    6.68    0.71
   3  -4   2    6.00    0.58
   3  -4   2    5.03    0.64
  -4   4  -2   37.24    1.87
   4  -4   2   35.94    1.78
   4  -4   2   36.96    1.82
  -5   4  -2    6.41    0.88
   5  -4   2    8.11    0.79
   5  -4   2    6.43    0.65
  -6   4  -2   16.44    1.39
   6  -4   2   16.75    1.27
   7  -4   2   29.77    1.89
   8   3  -2    0.67    0.68
   7   3  -2    2.14    0.76
   6   3  -2   18.10    1.58
   5   3  -2    0.61    0.50
  -5  -3   2    1.03    0.53
   4   3  -2   19.16    1.48
  -4  -3   2   22.05    1.45
   3   3  -2    6.89    0.93
  -3  -3   2    5.38    0.81
   2   3  -2   13.17    1.21
  -2  -3   2   14.90    1.15
   1   3  -2   34.72    1.83
   1   3  -2   32.39    1.57
  -1  -3   2   30.35    1.73
   0   3  -2   22.33    1.16
   0   3  -2   22.43    1.37
   0  -3   2   22.12    1.14
   0  -3   2   20.54    1.30
   0  -3   2   23.28    1.33
  -1   3  -2   19.48    1.06
  -1   3  -2   19.45    1.22
   1  -3   2   20.22    1.21
   1  -3   2   21.64    1.09
  -2   3  -2   87.54    3.48
  -2   3  -2   85.84    3.37
   2  -3   2   87.65    3.39
   2  -3   2   84.60    3.66
  -3   3  -2   64.90    2.73
   3  -3   2   65.56    2.66
   3  -3   2   62.43    2.77
  -4   3  -2    5.70    0.69
   4  -3   2    5.29    0.52
   4  -3   2    5.35    0.61
  -5   3  -2   29.69    1.70
   5  -3   2   30.45    1.68
   5  -3   2   29.76    1.41
  -6   3  -2   20.27    1.51
   6  -3   2   19.60    1.40
   7  -3   2    3.15    0.71
   8  -3   2   11.44    1.32
   8   2  -2    7.33    1.18
   7   2  -2    2.85    0.70
   6   2  -2    0.15    0.40
   5   2  -2   65.14    3.19
   4   2  -2   58.51    2.86
  -4  -2   2   57.54    2.70
   3   2  -2   16.44    1.34
  -3  -2   2   15.26    1.10
   2   2  -2   73.20    3.44
  -2  -2   2   82.39    3.42
   1   2  -2   24.73    1.26
   1   2  -2   25.99    1.44
  -1  -2   2   24.76    1.38
  -1  -2   2   25.36    1.39
   0   2  -2   76.65    2.87
   0   2  -2   72.68    3.19
   0  -2   2   73.37    2.85
   0  -2   2   71.66    3.16
  -1   2  -2   79.09    3.00
  -1   2  -2   79.05    3.28
   1  -2   2   74.91    3.28
   1  -2   2   78.67    3.02
  -2   2  -2    1.67    0.38
  -2   2  -2    2.35    0.42
  -2   2  -2    1.67    0.30
   2  -2   2    1.37    0.32
   2  -2   2    1.59    0.32
  -3   2  -2   18.59    1.12
   3  -2   2   19.20    1.00
   3  -2   2   19.76    1.15
  -4   2  -2   61.99    2.63
   4  -2   2   56.99    2.61
   4  -2   2   57.62    2.43
  -5   2  -2    3.05    0.65
   5  -2   2    5.07    0.72
   6  -2   2   22.16    1.57
   7  -2   2   40.50    2.42
   8  -2   2    1.46    0.70
   8   1  -2    9.64    1.22
   7   1  -2    8.24    1.05
   6   1  -2   55.18    2.79
   5   1  -2    0.54    0.37
  -5  -1   2    0.22    0.22
   3   1  -2   30.58    1.63
  -3  -1   2   29.93    1.53
   2   1  -2    7.42    0.70
  -2  -1   2    5.81    0.64
  -2  -1   2    6.71    0.64
   1   1  -2   27.96    1.47
   1   1  -2   30.07    1.36
  -1  -1   2   29.19    1.46
   0   1  -2   78.19    2.96
   0   1  -2   80.42    3.27
   0  -1   2   78.62    2.96
   0  -1   2   76.06    3.25
  -1   1  -2   19.87    1.01
  -1   1  -2   21.40    1.05
   1  -1   2   19.40    0.99
   1  -1   2   20.20    1.04
  -2   1  -2   48.58    2.12
  -2   1  -2   48.40    2.11
  -2   1  -2   51.01    2.07
  -2   1  -2   53.34    2.07
   2  -1   2   49.45    2.14
   2  -1   2   50.68    2.11
   2  -1   2   52.96    2.12
  -3   1  -2   42.43    1.92
   3  -1   2   40.82    1.79
   3  -1   2   42.68    1.95
  -4   1  -2   48.09    2.23
   4  -1   2   45.66    1.96
   4  -1   2   46.81    2.24
  -5   1  -2   41.95    2.16
   5  -1   2   40.19    1.76
   5  -1   2   37.52    2.11
   5  -1   2   41.19    1.80
   6  -1   2   -0.46    0.44
   6  -1   2    0.11    0.21
   6  -1   2   -0.15    0.20
   7  -1   2   11.72    0.83
   7  -1   2   11.35    1.30
   8  -1   2    4.01    1.00
   8   0  -2   11.79    1.21
   7   0  -2    5.13    0.80
   6   0  -2    9.00    0.89
   5   0  -2   90.92    3.93
   4   0  -2    8.84    0.77
   3   0  -2    7.16    0.66
  -3   0   2    4.44    0.45
  -3   0   2    5.00    0.52
   2   0  -2   66.43    2.77
  -2   0   2   64.45    2.69
  -2   0   2   62.59    2.69
   1   0  -2    0.23    0.24
   1   0  -2   -0.25    0.20
  -1   0   2   -0.01    0.21
  -1   0   2    0.11    0.25
   0   0  -2  133.58    5.35
   0   0  -2  138.70    4.89
   0   0   2  137.09    5.35
   0   0   2  133.49    4.88
  -1   0  -2  164.01    5.92
  -1   0  -2  167.38    5.99
  -1   0  -2  172.96    6.45
   1   0   2  161.94    5.93
   1   0   2  166.41    5.98
   1   0   2  158.62    6.43
  -2   0  -2    5.52    0.47
  -2   0  -2    6.08    0.54
   2   0   2    6.65    0.49
   2   0   2    6.01    0.50
   2   0   2    5.81    0.60
  -3   0  -2  320.03   11.65
   3   0   2  320.57   11.57
   3   0   2  332.65   12.39
   3   0   2  315.62   12.34
  -4   0  -2   89.38    3.75
   4   0   2   83.59    3.62
   4   0   2   95.73    3.71
   5   0   2   14.39    0.90
   5   0   2   13.62    0.85
   6   0   2   13.41    0.94
   6   0   2   13.55    0.90
   7   0   2    2.38    0.50
   8   0   2    1.05    0.45
   8   0   2    1.36    0.66
   8  -1  -2    9.19    0.97
   7  -1  -2   27.56    1.59
   6  -1  -2    1.74    0.41
   5  -1  -2   27.42    1.45
   4  -1  -2   70.15    3.00
   3  -1  -2   14.53    0.86
   2  -1  -2    0.86    0.25
  -2   1   2    0.63    0.22
   1  -1  -2  336.07   13.07
   1  -1  -2  345.87   11.89
  -1   1   2  333.85   13.06
  -1   1   2  347.95   11.90
   0  -1  -2    8.66    0.52
   0  -1  -2    8.77    0.49
   0   1   2    9.98    0.55
   0   1   2    9.20    0.50
  -1  -1  -2   81.70    3.42
  -1  -1  -2   82.56    3.44
  -1  -1  -2   81.71    3.17
  -1  -1  -2   83.34    3.14
   1   1   2   81.56    3.15
   1   1   2   84.86    3.17
   1   1   2   92.85    3.46
  -2  -1  -2  241.60    8.92
  -2  -1  -2  246.85    9.52
  -2  -1  -2  250.39    9.57
   2   1   2  252.47    8.92
   2   1   2  250.58    9.60
   2   1   2  238.22    8.84
   2   1   2  243.39    9.56
  -3  -1  -2    3.74    0.58
  -3  -1  -2    3.96    0.51
   3   1   2    3.58    0.54
   3   1   2    3.90    0.47
   4   1   2   46.82    2.21
   4   1   2   49.78    2.28
   5   1   2   36.84    1.90
   5   1   2   37.15    1.84
   6   1   2   12.24    0.92
   6   1   2   11.62    0.99
   7   1   2   14.98    1.18
   8   1   2   12.63    1.17
   8  -2  -2   14.00    1.07
   7  -2  -2    0.49    0.31
   6  -2  -2   56.72    2.55
   5  -2  -2   44.70    2.04
   4  -2  -2   97.99    3.72
   4  -2  -2   96.03    3.95
   3  -2  -2   89.21    3.69
   3  -2  -2   90.65    3.35
   2  -2  -2    4.62    0.49
  -2   2   2    4.41    0.40
   1  -2  -2   31.05    1.44
   1  -2  -2   27.61    1.13
   1  -2  -2   27.93    1.03
  -1   2   2   27.27    1.35
   0  -2  -2  444.33   15.13
   0  -2  -2  451.69   15.32
   0  -2  -2  461.90   16.76
   0  -2  -2  438.03   16.81
   0   2   2  366.11   16.74
   0   2   2  445.15   15.14
   0   2   2  451.84   15.30
  -1  -2  -2   52.39    2.25
  -1  -2  -2   47.58    2.00
   1   2   2   48.91    2.23
   1   2   2   47.30    1.97
   1   2   2   46.00    1.98
   1   2   2   51.92    2.25
  -2  -2  -2   24.22    1.39
  -2  -2  -2   25.81    1.39
   2   2   2   26.36    1.40
   2   2   2   24.93    1.42
   2   2   2   25.00    1.27
  -3  -2  -2  170.66    7.16
   3   2   2  183.07    7.24
   3   2   2  186.06    7.31
   4   2   2   61.88    2.88
   4   2   2   65.06    2.97
  -5  -2  -2    4.56    0.54
   5   2   2    5.12    0.65
   5   2   2    5.39    0.79
   6   2   2    8.14    0.89
   6   2   2    8.61    0.96
   7   2   2    4.41    0.79
   8   2   2    7.07    1.10
   7  -3  -2   27.61    1.46
   6  -3  -2    8.20    0.70
   5  -3  -2    8.68    0.63
   5  -3  -2   10.49    0.73
   4  -3  -2   44.78    1.74
   4  -3  -2   41.85    1.99
   3  -3  -2    7.51    0.37
   3  -3  -2    6.81    0.67
   2  -3  -2  122.57    5.07
   2  -3  -2  125.44    4.44
  -2   3   2  123.73    4.88
   1  -3  -2   86.39    3.53
   1  -3  -2   83.00    2.96
   1  -3  -2   81.66    3.57
  -1   3   2   84.05    3.52
   0  -3  -2    7.06    0.68
   0  -3  -2    6.35    0.70
   0   3   2    6.31    0.42
   0   3   2    7.50    0.66
   0   3   2    6.80    0.48
   0   3   2    5.60    0.68
  -1  -3  -2  311.40   11.78
   1   3   2  291.47   11.77
   1   3   2  298.29   10.72
   1   3   2  297.19   11.73
  -2  -3  -2   36.48    1.95
   2   3   2   37.12    2.01
   2   3   2   38.92    1.93
  -3  -3  -2    3.83    0.69
   3   3   2    4.23    0.66
   3   3   2    3.81    0.80
  -4  -3  -2   49.97    2.33
   4   3   2   45.32    2.41
   4   3   2   41.53    2.28
  -5  -3  -2   11.64    0.95
   5   3   2   12.54    1.17
   5   3   2   10.58    1.00
  -6  -3  -2   -0.31    0.29
   6   3   2    0.07    0.34
   6   3   2    1.41    0.55
   7   3   2   13.07    1.38
   8   3   2    5.30    1.02
   7  -4  -2   -0.03    0.33
   6  -4  -2   16.18    1.01
   5  -4  -2    6.83    0.66
   4  -4  -2   28.64    1.45
   4  -4  -2   28.11    1.54
   3  -4  -2   13.12    0.95
   3  -4  -2   12.62    0.85
   2  -4  -2   52.25    2.53
   2  -4  -2   57.92    2.54
   1  -4  -2   40.71    1.96
   1  -4  -2   37.16    1.97
   0  -4  -2  177.16    7.64
   0  -4  -2  201.47    7.60
   0   4   2  189.62    6.57
   0   4   2  180.74    7.58
  -1  -4  -2    8.89    0.91
   1   4   2   11.05    1.07
  -2  -4  -2   44.43    2.32
   2   4   2   44.69    2.44
  -3  -4  -2   34.45    1.92
   3   4   2   29.45    1.95
  -4  -4  -2    9.85    1.08
   4   4   2    9.68    1.09
  -5  -4  -2   45.30    2.46
   5   4   2   49.67    2.73
  -6  -4  -2    1.97    0.57
   6   4   2    2.31    0.71
   7   4   2    5.46    1.06
   8   4   2   12.09    1.61
   7  -5  -2    1.92    0.47
   6  -5  -2    0.77    0.40
   6  -5  -2    0.51    0.34
   5  -5  -2    0.58    0.30
   5  -5  -2    1.20    0.42
   4  -5  -2   19.09    1.23
   4  -5  -2   18.94    0.97
   4  -5  -2   20.45    1.31
   3  -5  -2    9.17    0.87
   3  -5  -2   10.98    0.91
   2  -5  -2   14.14    1.12
   2  -5  -2   17.09    1.14
   1  -5  -2   11.16    0.98
   1  -5  -2   10.86    0.98
   0  -5  -2   15.41    1.16
   0   5   2   13.45    1.16
   0   5   2   13.53    0.68
  -1  -5  -2   25.94    1.65
   1   5   2   27.25    1.78
  -2  -5  -2   20.04    1.45
   2   5   2   20.61    1.60
  -3  -5  -2   13.31    1.22
   3   5   2   11.22    1.27
  -4  -5  -2   20.35    1.60
   4   5   2   22.25    1.76
  -5  -5  -2    0.02    0.54
   5   5   2    0.60    0.61
  -6  -5  -2   16.92    1.51
   6   5   2   17.49    1.70
   7   5   2   25.67    2.20
   8   5   2    4.25    1.11
   6  -6  -2   10.26    1.00
   5  -6  -2    1.70    0.55
   4  -6  -2    4.68    0.76
   3  -6  -2    5.87    0.84
   3  -6  -2    6.79    0.80
   2  -6  -2    5.44    0.76
   2  -6  -2    5.77    0.82
   1  -6  -2    8.93    0.97
  -1   6   2    9.94    1.00
   0  -6  -2   28.45    1.79
   0   6   2   28.94    1.18
   0   6   2   27.92    1.83
  -1  -6  -2   47.79    2.56
   1   6   2   46.15    2.65
  -2  -6  -2    3.85    0.80
   2   6   2    5.56    0.99
  -3  -6  -2    1.13    0.58
   3   6   2    2.35    0.85
  -4  -6  -2   15.26    1.53
   4   6   2   16.06    1.66
  -5  -6  -2   28.55    2.10
   5   6   2   29.78    2.33
  -6  -6  -2    1.18    0.77
   6   6   2   -0.40    0.63
   7   6   2    1.57    0.83
   8   6   2   28.96    2.60
   6  -7  -2    2.56    0.68
   5  -7  -2    6.44    0.97
   4  -7  -2   16.65    1.36
   3  -7  -2   21.91    1.56
   2  -7  -2   49.22    2.67
   1  -7  -2    0.71    0.46
  -1   7   2    0.84    0.55
   0  -7  -2   13.83    1.32
   0   7   2   12.01    1.33
   0   7   2   15.33    0.72
  -1  -7  -2   14.25    1.42
   1   7   2   18.38    1.60
  -2  -7  -2    5.91    1.06
   2   7   2    7.42    1.22
  -3  -7  -2    8.33    1.26
   3   7   2    7.87    1.30
  -4  -7  -2    7.24    1.13
   4   7   2    5.49    1.25
  -5  -7  -2   10.91    1.52
   5   7   2    8.11    1.48
  -6  -7  -2   19.66    1.95
   6   7   2   20.36    2.14
   7   7   2    2.40    1.08
   5  -8  -2    0.26    0.48
   4  -8  -2   18.74    1.57
   3  -8  -2    7.99    1.09
   2  -8  -2    0.12    0.48
   1  -8  -2   43.32    2.62
  -1   8   2   44.76    2.54
   0  -8  -2    2.56    0.80
   0   8   2    3.79    1.01
  -1  -8  -2   24.76    1.95
   1   8   2   26.21    1.34
   1   8   2   23.88    2.08
  -2  -8  -2   27.18    2.13
   2   8   2   30.35    2.41
  -3  -8  -2   -0.09    0.56
   3   8   2   -0.25    0.74
  -4  -8  -2    4.13    1.04
   4   8   2    1.62    1.05
  -5  -8  -2    8.11    1.47
   5   8   2    5.22    1.29
   6   8   2    8.85    1.62
   7   8   2    3.64    1.30
   4  -9  -2    0.09    0.49
   3  -9  -2   25.95    1.97
   2  -9  -2    6.67    1.11
   1  -9  -2   -0.21    0.46
   0  -9  -2   10.49    1.39
   0   9   2   11.36    1.50
  -1  -9  -2    0.69    0.65
   1   9   2    0.01    0.63
  -2  -9  -2    5.84    1.15
   2   9   2    5.22    1.23
  -3  -9  -2    9.16    1.44
   3   9   2   12.79    1.91
  -4  -9  -2   43.28    3.12
   4   9   2   46.62    3.35
  -5  -9  -2    6.32    1.48
   5   9   2    9.00    1.71
   6   9   2   12.53    2.06
   3 -10  -2    0.19    0.54
   2 -10  -2    6.77    1.14
   1 -10  -2   -0.04    0.56
   0 -10  -2   10.86    1.53
  -1 -10  -2    7.02    1.40
   1  10   2    6.96    1.42
  -2 -10  -2   23.96    2.24
   2  10   2   22.20    2.27
  -3 -10  -2    2.18    0.99
   3  10   2    3.76    1.28
  -4 -10  -2    3.59    1.25
   4  10   2    2.52    1.16
  -5 -10  -2    9.73    1.87
   5  10   2   11.21    1.98
   1 -11  -2    0.74    0.76
   0 -11  -2   13.25    1.77
  -1 -11  -2    1.38    0.90
  -2 -11  -2    8.07    1.64
   2  11   2    6.40    1.51
  -3 -11  -2   16.45    2.33
   3  11   2   20.16    2.44
   2  10  -3    6.17    1.49
  -2 -10   3    5.13    1.35
  -1 -10   3    1.38    0.82
   0 -10   3    6.52    1.34
   1 -10   3    0.12    0.75
   4   9  -3   10.28    1.79
  -4  -9   3   10.42    1.69
   3   9  -3    1.91    1.21
  -3  -9   3    2.17    1.03
   2   9  -3   24.72    2.57
  -2  -9   3   26.71    2.37
   1   9  -3   -0.02    0.84
  -1  -9   3    2.88    1.03
   0   9  -3   11.61    1.81
   0  -9   3    9.89    1.47
   1  -9   3   13.49    1.60
   2  -9   3    0.10    0.50
  -3   9  -3   10.67    1.32
   3  -9   3    8.36    1.31
   5   8  -3    0.61    0.95
  -5  -8   3    1.33    0.92
   4   8  -3   11.47    1.75
  -4  -8   3   12.45    1.77
   3   8  -3    2.39    1.01
  -3  -8   3    2.18    0.97
   2   8  -3   -0.67    0.62
  -2  -8   3    0.06    0.66
   1   8  -3   28.89    2.36
  -1  -8   3   24.61    2.11
   0   8  -3    0.63    0.82
   0  -8   3   -0.77    0.48
  -1   8  -3    1.77    0.94
   1  -8   3    0.57    0.59
   2  -8   3   38.05    2.43
  -3   8  -3   47.88    2.55
   3  -8   3   42.85    2.66
  -4   8  -3   29.64    1.93
   4  -8   3   29.29    2.04
   6   7  -3   14.51    2.01
   5   7  -3    8.82    1.51
  -5  -7   3    6.13    1.30
   4   7  -3   14.59    1.86
  -4  -7   3   10.54    1.55
   3   7  -3   25.78    2.23
  -3  -7   3   25.12    2.06
   2   7  -3    0.93    0.71
  -2  -7   3    1.05    0.65
   1   7  -3   10.43    1.51
  -1  -7   3   12.71    1.38
   0   7  -3   16.67    1.68
   0  -7   3   18.23    1.60
  -1   7  -3  158.74    7.07
   1  -7   3  159.64    7.03
   2  -7   3    6.22    0.76
   2  -7   3    7.15    1.05
  -3   7  -3   84.84    3.84
   3  -7   3   83.32    3.50
   3  -7   3   86.45    4.14
  -4   7  -3    4.98    0.87
   4  -7   3    4.97    0.73
   4  -7   3    6.77    0.97
  -5   7  -3    1.78    0.66
   5  -7   3    2.06    0.60
   7   6  -3   18.08    2.14
   6   6  -3   -0.14    0.71
   5   6  -3    4.64    1.15
  -5  -6   3    6.66    1.13
   4   6  -3    5.90    1.19
  -4  -6   3    5.79    1.14
   3   6  -3   57.67    3.35
  -3  -6   3   52.41    3.07
   2   6  -3   29.59    2.22
  -2  -6   3   29.76    2.03
   1   6  -3  209.63    8.83
  -1  -6   3  200.78    8.68
   0   6  -3   15.23    1.49
   0  -6   3   16.40    1.44
  -1   6  -3   91.50    4.35
   1  -6   3   93.33    3.77
   1  -6   3   92.30    4.36
  -2   6  -3   29.40    1.93
   2  -6   3   32.30    1.64
   2  -6   3   31.06    1.94
  -3   6  -3   -0.44    0.41
   3  -6   3    0.07    0.37
   3  -6   3    0.23    0.35
  -4   6  -3    7.40    1.01
   4  -6   3    8.06    0.83
   4  -6   3    6.39    0.88
  -5   6  -3    8.78    1.04
   5  -6   3    8.64    0.95
   5  -6   3    6.54    0.85
  -6   6  -3    0.51    0.63
   6  -6   3    0.38    0.41
   7   5  -3   -0.09    0.74
   6   5  -3    0.09    0.58
   5   5  -3   96.53    5.01
  -5  -5   3   99.92    4.77
   4   5  -3    8.35    1.30
  -4  -5   3    8.94    1.25
   3   5  -3   99.13    4.85
  -3  -5   3  100.59    4.71
   2   5  -3   20.87    1.80
  -2  -5   3   23.34    1.67
   1   5  -3   28.06    1.98
  -1  -5   3   29.33    1.87
   0   5  -3   74.54    3.66
   0  -5   3   74.81    3.59
  -1   5  -3    5.74    0.94
   1  -5   3    5.53    0.83
   1  -5   3    6.33    0.70
  -2   5  -3   26.37    1.66
   2  -5   3   28.34    1.71
   2  -5   3   26.12    1.65
   2  -5   3   25.65    1.44
  -3   5  -3   23.03    1.28
  -3   5  -3   24.52    1.53
   3  -5   3   23.35    1.38
   3  -5   3   22.03    1.50
  -4   5  -3   -0.02    0.46
   4  -5   3    0.28    0.33
  -5   5  -3    2.62    0.70
   5  -5   3    2.82    0.57
  -6   5  -3   23.15    1.75
   6  -5   3   25.46    1.61
   6  -5   3   24.60    1.47
  -7   5  -3    1.50    0.77
   7  -5   3    0.86    0.38
   7  -5   3    0.65    0.49
   8   4  -3    0.02    0.69
   7   4  -3   30.20    2.37
   6   4  -3    1.15    0.69
   5   4  -3   17.08    1.73
  -5  -4   3   18.96    1.58
   4   4  -3   29.36    2.08
  -4  -4   3   30.50    1.95
   3   4  -3    0.58    0.55
  -3  -4   3    0.01    0.40
   2   4  -3   84.56    3.97
  -2  -4   3   80.08    3.86
   1   4  -3  102.47    4.83
  -1  -4   3  112.74    4.80
   0   4  -3    1.96    0.57
   0  -4   3    2.68    0.54
   0  -4   3    1.99    0.54
  -1   4  -3    5.63    0.85
   1  -4   3    4.36    0.70
   1  -4   3    6.40    0.70
  -2   4  -3   66.13    3.09
   2  -4   3   72.38    2.91
   2  -4   3   67.62    3.18
  -3   4  -3    0.11    0.36
  -3   4  -3   -0.10    0.24
   3  -4   3   -0.23    0.27
   3  -4   3    0.22    0.29
  -4   4  -3   54.24    2.58
   4  -4   3   54.25    2.57
   4  -4   3   52.61    2.48
  -5   4  -3    4.86    0.80
   5  -4   3    7.03    0.80
  -6   4  -3    8.01    1.03
   6  -4   3    5.57    0.89
  -7   4  -3    8.42    1.22
   7  -4   3    8.69    1.08
   8   3  -3    1.84    0.85
   7   3  -3    8.55    1.28
   6   3  -3   35.22    2.34
   5   3  -3    0.15    0.48
  -5  -3   3   -0.54    0.40
   4   3  -3   15.57    1.40
  -4  -3   3   12.72    1.16
   3   3  -3   11.10    1.14
  -3  -3   3    9.96    1.03
   2   3  -3   24.47    1.67
  -2  -3   3   24.15    1.56
   1   3  -3    1.12    0.58
  -1  -3   3    0.64    0.42
   0   3  -3  180.36    6.77
   0   3  -3  181.09    7.47
   0  -3   3  184.89    7.55
   0  -3   3  179.97    6.71
  -1   3  -3    0.76    0.45
  -1   3  -3    2.21    0.52
   1  -3   3    0.86    0.48
   1  -3   3    1.77    0.65
  -2   3  -3   74.91    3.16
  -2   3  -3   71.66    3.09
   2  -3   3   68.85    3.20
   2  -3   3   71.31    2.97
  -3   3  -3    0.83    0.39
  -3   3  -3    1.13    0.26
   3  -3   3    1.09    0.35
   3  -3   3    0.69    0.33
  -4   3  -3   -0.18    0.31
   4  -3   3    0.27    0.32
   4  -3   3   -0.21    0.20
  -5   3  -3    4.07    0.75
   5  -3   3    3.85    0.55
   5  -3   3    4.49    0.75
  -6   3  -3   11.02    1.23
   6  -3   3   12.75    1.18
  -7   3  -3    1.59    0.72
   7  -3   3   -0.28    0.44
   8  -3   3   14.02    1.52
   8   2  -3    7.83    1.23
   7   2  -3    0.88    0.59
   6   2  -3    1.31    0.55
   5   2  -3   56.78    2.94
  -5  -2   3   54.46    2.66
   4   2  -3   46.33    2.41
  -4  -2   3   40.24    2.17
   3   2  -3    7.97    0.98
  -3  -2   3    7.60    0.88
   2   2  -3  341.39   13.82
  -2  -2   3  360.47   13.77
   1   2  -3    5.06    0.77
   1   2  -3    4.37    0.62
  -1  -2   3    5.25    0.69
   0   2  -3   40.66    2.07
   0   2  -3   42.26    1.85
   0  -2   3   41.74    1.85
   0  -2   3   39.44    2.02
  -1   2  -3   43.63    1.99
  -1   2  -3   46.77    2.19
   1  -2   3   45.41    2.17
   1  -2   3   45.79    2.00
  -2   2  -3    4.32    0.68
  -2   2  -3    4.18    0.68
  -2   2  -3    4.67    0.72
   2  -2   3    3.66    0.53
   2  -2   3    4.32    0.57
  -3   2  -3    3.86    0.62
   3  -2   3    3.43    0.57
   3  -2   3    4.44    0.54
  -4   2  -3    8.83    0.89
   4  -2   3    8.24    0.86
   4  -2   3   10.48    0.73
  -5   2  -3    8.76    1.04
   5  -2   3    9.82    1.00
   5  -2   3   10.67    0.76
  -6   2  -3   16.62    1.45
   6  -2   3   14.33    1.30
   6  -2   3   15.04    0.94
   7  -2   3   26.54    1.95
   8  -2   3    2.32    0.79
   8   1  -3    0.33    0.56
   7   1  -3    3.33    0.78
   6   1  -3   23.74    1.67
   5   1  -3    2.66    0.63
  -5  -1   3    3.74    0.52
   4   1  -3  120.92    5.35
  -4  -1   3  128.65    5.17
   3   1  -3   40.83    2.13
  -3  -1   3   40.19    2.02
   2   1  -3    1.71    0.48
   1   1  -3  265.84    9.28
   1   1  -3  265.16   10.20
  -1  -1   3  243.37   10.14
  -1  -1   3  258.31    9.28
   0   1  -3   20.44    1.11
   0   1  -3   23.43    1.28
   0  -1   3   20.89    1.13
   0  -1   3   20.41    1.21
  -1   1  -3   22.42    1.21
  -1   1  -3   23.94    1.32
   1  -1   3   26.28    1.34
   1  -1   3   24.07    1.25
  -2   1  -3    9.56    0.76
  -2   1  -3    8.96    0.76
  -2   1  -3    9.49    0.73
   2  -1   3    8.58    0.74
   2  -1   3    9.50    0.73
  -3   1  -3   52.79    2.37
  -3   1  -3   51.33    2.14
   3  -1   3   54.33    2.33
   3  -1   3   51.42    2.38
  -4   1  -3    3.39    0.61
   4  -1   3    5.39    0.80
   4  -1   3    4.92    0.50
  -5   1  -3    7.62    0.92
   5  -1   3    8.27    0.65
   5  -1   3    8.07    0.96
  -6   1  -3   32.91    2.06
   6  -1   3   33.97    2.09
   6  -1   3   32.62    1.63
   7  -1   3    5.17    0.97
   8  -1   3   30.95    2.26
   8   0  -3    4.30    0.86
   7   0  -3    4.91    0.83
   6   0  -3   12.20    1.12
   5   0  -3   68.48    3.21
   4   0  -3    6.70    0.78
  -4   0   3    7.08    0.62
   3   0  -3   47.43    2.33
  -3   0   3   48.19    2.19
   2   0  -3    9.19    0.74
   2   0  -3    8.67    0.81
   1   0  -3   28.43    1.58
   1   0  -3   31.63    1.45
  -1   0   3   30.29    1.54
  -1   0   3   33.18    1.47
   0   0  -3    2.50    0.38
   0   0  -3    2.80    0.45
   0   0   3    2.21    0.40
   0   0   3    2.91    0.44
  -1   0  -3   46.76    2.23
  -1   0  -3   53.24    2.12
   1   0   3   48.97    2.08
   1   0   3   50.01    2.23
  -2   0  -3    7.11    0.65
  -2   0  -3    7.53    0.60
  -2   0  -3    6.18    0.65
  -2   0  -3    6.78    0.63
   2   0   3    6.79    0.60
   2   0   3    7.14    0.68
  -3   0  -3  117.07    4.69
  -3   0  -3  118.52    4.65
   3   0   3  118.89    4.80
   3   0   3  119.22    4.68
   4   0   3  190.35    7.20
   4   0   3  186.38    7.45
  -5   0  -3    4.99    0.85
   5   0   3    6.88    0.90
   5   0   3    4.31    0.51
   5   0   3    4.73    0.61
   6   0   3   68.06    3.34
   6   0   3   64.16    3.00
   6   0   3   70.24    3.06
   7   0   3    5.64    0.75
   7   0   3    4.46    1.02
   8   0   3    5.96    1.11
   8  -1  -3    3.48    0.72
   7  -1  -3    6.75    0.89
   6  -1  -3    4.76    0.73
   5  -1  -3   16.42    1.15
   4  -1  -3   16.92    1.13
  -3   1   3   17.97    0.96
   2  -1  -3    0.87    0.29
   2  -1  -3    0.76    0.31
   1  -1  -3   49.85    2.31
   1  -1  -3   50.45    2.08
  -1   1   3   50.99    2.10
  -1   1   3   53.44    2.30
   0  -1  -3   13.47    0.90
   0  -1  -3   13.74    0.74
   0  -1  -3   12.81    0.76
   0   1   3   12.43    0.84
   0   1   3   13.68    0.79
  -1  -1  -3    5.49    0.53
  -1  -1  -3    6.44    0.54
  -1  -1  -3    6.34    0.64
   1   1   3    6.41    0.51
   1   1   3    6.08    0.58
   1   1   3    7.20    0.61
  -2  -1  -3  124.89    5.09
  -2  -1  -3  125.55    4.75
  -2  -1  -3  124.14    4.79
   2   1   3  126.71    4.79
   2   1   3  129.68    4.82
   2   1   3  123.21    5.10
  -3  -1  -3   11.15    0.88
  -3  -1  -3    9.21    0.77
   3   1   3    9.30    0.90
   3   1   3    9.87    0.84
   3   1   3    9.02    0.75
  -4  -1  -3   78.73    3.57
  -4  -1  -3   81.91    3.36
   4   1   3   84.53    3.61
   4   1   3   86.09    3.61
   4   1   3   81.19    3.56
   5   1   3   37.32    2.13
   5   1   3   37.23    1.93
   5   1   3   36.17    1.89
   6   1   3    0.26    0.51
   6   1   3   -0.12    0.29
   6   1   3    0.37    0.35
   7   1   3   13.98    1.18
   7   1   3   20.08    1.63
   8   1   3   20.61    1.85
   8   1   3   17.30    1.35
   8  -2  -3   15.96    1.26
   7  -2  -3    3.34    0.65
   6  -2  -3    8.84    0.89
   5  -2  -3   55.80    2.61
   4  -2  -3    4.23    0.57
   3  -2  -3    0.14    0.25
   3  -2  -3   -0.01    0.22
   2  -2  -3    1.27    0.31
   2  -2  -3    1.71    0.38
   1  -2  -3    2.51    0.27
   1  -2  -3    2.34    0.44
   1  -2  -3    1.62    0.29
  -1   2   3    2.49    0.36
   0  -2  -3  104.00    3.81
   0  -2  -3   99.67    3.79
   0  -2  -3  115.59    4.37
   0   2   3  104.68    3.81
   0   2   3  100.51    3.80
   0   2   3   95.58    4.27
  -1  -2  -3    0.00    0.20
  -1  -2  -3    0.42    0.29
  -1  -2  -3   -0.21    0.23
  -1  -2  -3    0.14    0.21
   1   2   3   -0.03    0.25
   1   2   3    0.22    0.18
   1   2   3    0.50    0.29
  -2  -2  -3   19.71    1.21
   2   2   3   18.55    1.21
   2   2   3   18.71    1.13
   2   2   3   18.57    1.16
  -3  -2  -3   99.68    4.16
  -3  -2  -3  100.15    4.32
   3   2   3  106.45    4.18
   3   2   3  100.36    4.40
   3   2   3  105.06    4.40
  -4  -2  -3    2.21    0.48
   4   2   3    2.81    0.56
   4   2   3    2.52    0.50
  -5  -2  -3    4.14    0.56
   5   2   3    3.92    0.65
   5   2   3    4.28    0.68
   6   2   3   17.52    1.33
   6   2   3   16.45    1.24
   7   2   3   -0.17    0.43
   8   2   3    4.63    1.05
   8   2   3    2.75    0.70
   8  -3  -3   -0.52    0.41
   7  -3  -3   11.02    0.99
   6  -3  -3   19.17    1.27
   5  -3  -3   -0.02    0.29
   4  -3  -3   66.79    3.01
   4  -3  -3   68.31    2.55
   3  -3  -3    5.07    0.61
   3  -3  -3    5.98    0.52
   2  -3  -3    4.61    0.71
   2  -3  -3    5.25    0.51
   1  -3  -3   13.00    0.66
   1  -3  -3   11.62    0.97
  -1   3   3   12.41    0.68
   0  -3  -3   45.24    1.80
   0  -3  -3   48.11    1.85
   0  -3  -3   42.02    2.24
   0  -3  -3   44.00    2.16
   0   3   3   46.45    1.82
   0   3   3   44.65    1.81
  -1  -3  -3   40.84    2.06
   1   3   3   38.33    1.70
   1   3   3   37.54    1.70
   1   3   3   38.64    2.02
  -2  -3  -3    9.40    0.96
   2   3   3    8.54    0.88
   2   3   3   10.79    0.91
   2   3   3    8.04    0.89
  -3  -3  -3    1.72    0.54
   3   3   3    1.05    0.39
   3   3   3    1.25    0.50
  -4  -3  -3  124.65    5.11
   4   3   3  112.53    5.21
   4   3   3  120.73    5.15
  -5  -3  -3    3.59    0.62
   5   3   3    5.24    0.71
   5   3   3    3.66    0.73
  -6  -3  -3   -0.08    0.37
   6   3   3    0.20    0.35
   6   3   3    0.87    0.51
   7   3   3   23.42    1.77
   8   3   3    0.17    0.52
   7  -4  -3    0.09    0.35
   6  -4  -3    7.92    0.80
   5  -4  -3    1.44    0.42
   4  -4  -3    0.03    0.21
   4  -4  -3   -0.02    0.25
   3  -4  -3    2.80    0.58
   3  -4  -3    2.20    0.34
   2  -4  -3   11.84    0.90
   2  -4  -3   11.38    0.62
   2  -4  -3   13.65    1.08
   1  -4  -3    0.21    0.51
   1  -4  -3    0.32    0.32
   1  -4  -3    0.70    0.22
  -1   4   3    0.47    0.14
   0  -4  -3  179.46    7.42
   0  -4  -3  182.61    7.49
   0   4   3  185.12    6.45
   0   4   3  177.76    6.56
  -1  -4  -3   44.28    2.38
   1   4   3   45.70    2.37
   1   4   3   44.69    1.97
   1   4   3   43.82    1.93
  -2  -4  -3   61.50    3.05
   2   4   3   61.51    2.66
   2   4   3   61.52    3.07
  -3  -4  -3   55.41    2.82
   3   4   3   55.67    2.90
  -4  -4  -3    1.34    0.56
   4   4   3    1.04    0.54
  -5  -4  -3   31.28    1.91
   5   4   3   31.90    2.08
  -6  -4  -3    0.39    0.43
   6   4   3    0.33    0.59
   7   4   3    0.07    0.53
   8   4   3    1.03    0.71
   7  -5  -3    3.78    0.63
   6  -5  -3    5.97    0.79
   5  -5  -3    9.76    0.95
   4  -5  -3    6.67    0.86
   4  -5  -3    7.20    0.76
   4  -5  -3    5.42    0.52
   3  -5  -3   -0.04    0.28
   3  -5  -3    0.23    0.16
   3  -5  -3    0.84    0.44
   2  -5  -3   23.08    1.54
   2  -5  -3   22.74    1.44
   1  -5  -3   36.99    2.00
   1  -5  -3   29.71    1.85
  -1   5   3   34.49    1.36
   0  -5  -3   11.20    1.13
   0   5   3   11.94    0.71
   0   5   3   13.02    1.17
   0   5   3   14.11    0.80
  -1  -5  -3   58.04    2.86
   1   5   3   53.56    2.83
   1   5   3   53.15    2.27
  -2  -5  -3   65.79    3.35
   2   5   3   70.05    3.44
  -3  -5  -3   -0.96    0.42
   3   5   3   -0.19    0.45
  -4  -5  -3   28.70    1.94
   4   5   3   26.87    1.96
  -5  -5  -3   18.24    1.59
   5   5   3   19.53    1.68
  -6  -5  -3    0.63    0.57
   6   5   3   -0.31    0.52
   7   5   3    4.25    1.01
   8   5   3    4.80    1.13
   6  -6  -3    7.73    0.94
   5  -6  -3    3.69    0.73
   4  -6  -3   28.60    1.87
   3  -6  -3   38.68    2.23
   3  -6  -3   42.10    2.33
   2  -6  -3    1.57    0.50
   2  -6  -3    1.66    0.56
   1  -6  -3   36.70    2.12
  -1   6   3   34.70    1.49
   0  -6  -3   62.36    3.17
   0   6   3   63.06    2.34
   0   6   3   59.25    3.12
   0   6   3   64.48    2.59
  -1  -6  -3    0.69    0.45
   1   6   3    0.62    0.52
   1   6   3    1.01    0.37
  -2  -6  -3    3.51    0.77
   2   6   3    3.32    0.85
  -3  -6  -3   34.41    2.30
   3   6   3   39.56    2.47
  -4  -6  -3    3.05    0.83
   4   6   3    2.77    0.82
  -5  -6  -3    2.24    0.80
   5   6   3    2.50    0.89
  -6  -6  -3   29.22    2.22
   6   6   3   31.73    2.42
   7   6   3    6.24    1.27
   8   6   3    8.42    1.54
   6  -7  -3    2.24    0.61
   5  -7  -3   19.73    1.60
   4  -7  -3    2.19    0.72
   3  -7  -3   10.77    1.18
   2  -7  -3   42.88    2.50
   1  -7  -3   52.28    2.81
  -1   7   3   49.01    2.07
   0  -7  -3   14.64    1.37
   0   7   3   13.88    1.37
  -1  -7  -3   86.12    4.16
   1   7   3   85.28    3.30
   1   7   3   79.49    4.14
  -2  -7  -3   26.59    1.97
   2   7   3   23.19    1.95
  -3  -7  -3    1.23    0.66
   3   7   3    1.08    0.69
  -4  -7  -3   34.17    2.42
   4   7   3   33.65    2.53
  -5  -7  -3   -0.15    0.65
   5   7   3   -0.50    0.61
  -6  -7  -3    0.04    0.72
   6   7   3    0.39    0.74
   7   7   3   10.45    1.75
   5  -8  -3    4.15    0.93
   4  -8  -3    6.65    1.13
   3  -8  -3   41.81    2.63
   2  -8  -3    1.13    0.60
   1  -8  -3   42.64    2.61
   0  -8  -3   45.61    2.72
   0   8   3   40.61    2.61
  -1  -8  -3    4.57    0.96
   1   8   3    5.79    0.77
   1   8   3    7.54    1.24
  -2  -8  -3   29.45    2.28
   2   8   3   34.09    2.46
  -3  -8  -3   11.07    1.61
   3   8   3    8.05    1.41
  -4  -8  -3   -0.06    0.69
   4   8   3   -0.45    0.73
  -5  -8  -3   28.60    2.43
   5   8   3   27.33    2.48
   6   8   3    4.15    1.23
   7   8   3    1.81    1.04
   4  -9  -3    0.46    0.61
   3  -9  -3    9.24    1.42
   2  -9  -3   25.40    2.02
   1  -9  -3    4.14    0.95
   0  -9  -3    9.48    1.38
   0   9   3    9.56    1.41
  -1  -9  -3    6.94    1.26
   1   9   3   11.21    1.53
   1   9   3    9.08    0.82
  -2  -9  -3    0.87    0.80
   2   9   3    1.90    0.89
  -3  -9  -3   16.71    1.93
   3   9   3   12.65    1.86
  -4  -9  -3    4.24    1.19
   4   9   3    5.14    1.31
  -5  -9  -3    2.76    1.03
   5   9   3    3.20    1.29
   6   9   3   24.59    2.61
   3 -10  -3    0.70    0.68
   2 -10  -3    1.99    0.76
   1 -10  -3   11.59    1.59
   0 -10  -3    0.59    0.62
  -1 -10  -3    6.10    1.30
   1  10   3    8.20    1.43
  -2 -10  -3    1.84    0.92
   2  10   3    0.14    0.79
  -3 -10  -3   10.41    1.75
   3  10   3    8.63    1.60
  -4 -10  -3   13.83    2.07
   4  10   3   12.60    1.92
  -5 -10  -3   12.28    1.95
   5  10   3   17.05    2.29
   1 -11  -3    0.33    0.74
   0 -11  -3    5.07    1.21
  -1 -11  -3    2.28    1.03
  -2 -11  -3   24.61    2.47
   2  11   3   14.41    2.12
  -3 -11  -3    9.48    1.82
   3  11   3    8.89    1.67
   3   9  -4    2.72    1.18
  -3  -9   4    5.00    1.24
   2   9  -4   31.64    2.75
  -2  -9   4   31.68    2.66
   1   9  -4   -0.79    0.79
  -1  -9   4    0.04    0.67
   0  -9   4    9.53    1.55
   1  -9   4   24.30    2.45
   2  -9   4    1.33    0.71
   5   8  -4   -0.65    0.85
  -5  -8   4    0.29    0.79
   4   8  -4   12.82    2.00
  -4  -8   4   17.19    2.13
   3   8  -4   26.27    2.42
  -3  -8   4   21.54    2.14
   2   8  -4   -0.97    0.69
  -2  -8   4    0.87    0.70
   1   8  -4   23.96    2.17
  -1  -8   4   23.86    2.06
   0   8  -4    0.30    0.70
   0  -8   4    0.68    0.65
   1  -8   4   -0.41    0.55
   2  -8   4   11.40    1.44
  -3   8  -4    1.20    0.67
   3  -8   4    1.36    0.61
  -4   8  -4    0.07    0.62
   4  -8   4    0.59    0.56
   6   7  -4    9.96    1.83
   5   7  -4   31.40    2.79
  -5  -7   4   32.64    2.58
   4   7  -4    0.65    0.86
  -4  -7   4    0.58    0.75
   3   7  -4    6.34    1.30
  -3  -7   4    8.86    1.38
   2   7  -4    7.90    1.39
  -2  -7   4    8.90    1.30
   1   7  -4    0.27    0.66
  -1  -7   4    0.71    0.57
   0   7  -4    0.35    0.76
   0  -7   4    0.22    0.53
  -1   7  -4    1.71    0.73
   1  -7   4    1.90    0.63
   2  -7   4   21.09    1.41
   2  -7   4   23.14    1.81
  -3   7  -4   10.78    1.28
   3  -7   4   11.24    1.27
   3  -7   4   10.42    1.01
  -4   7  -4    8.49    1.18
   4  -7   4    9.84    1.22
   4  -7   4    9.21    1.01
  -5   7  -4    1.10    0.68
   5  -7   4    1.10    0.57
   6   6  -4   23.36    2.40
   5   6  -4    0.99    0.88
  -5  -6   4    0.88    0.78
   4   6  -4   25.82    2.32
  -4  -6   4   26.09    2.07
   3   6  -4    0.01    0.66
  -3  -6   4    0.75    0.62
   2   6  -4   -0.35    0.77
  -2  -6   4    0.79    0.59
   1   6  -4    1.32    0.75
  -1  -6   4    2.83    0.74
   0   6  -4   18.90    1.70
   0  -6   4   18.39    1.59
  -1   6  -4    6.08    1.06
   1  -6   4    4.98    0.75
   1  -6   4    4.58    0.88
  -2   6  -4   35.58    2.24
   2  -6   4   37.33    1.99
   2  -6   4   43.09    2.42
  -3   6  -4    0.48    0.58
   3  -6   4   -0.29    0.40
   3  -6   4    0.24    0.39
  -4   6  -4    4.74    0.92
   4  -6   4    6.24    0.96
   4  -6   4    5.54    0.86
  -5   6  -4    1.68    0.73
   5  -6   4    1.62    0.59
   5  -6   4    1.63    0.53
  -6   6  -4    0.16    0.66
   6  -6   4    0.20    0.41
   7   5  -4    0.84    0.86
   6   5  -4   34.49    2.68
   5   5  -4    0.48    0.75
  -5  -5   4    0.72    0.68
   4   5  -4    5.66    1.15
  -4  -5   4    7.56    1.18
   3   5  -4    8.68    1.36
  -3  -5   4    7.94    1.15
   2   5  -4  137.93    6.16
  -2  -5   4  128.86    5.96
   1   5  -4    1.10    0.61
  -1  -5   4    0.27    0.45
   0   5  -4   50.05    2.87
   0  -5   4   51.97    2.81
   0  -5   4   51.91    2.46
  -1   5  -4   17.46    1.43
   1  -5   4   14.01    1.10
  -2   5  -4   13.32    1.22
   2  -5   4   14.48    1.10
  -3   5  -4   20.66    1.58
  -3   5  -4   18.02    1.34
   3  -5   4   18.91    1.29
   3  -5   4   16.78    1.37
  -4   5  -4   -0.44    0.50
   4  -5   4   -0.43    0.30
  -5   5  -4    3.36    0.78
   5  -5   4    0.96    0.53
  -6   5  -4    5.37    1.02
   6  -5   4    4.51    0.83
   7   4  -4    2.19    0.91
   6   4  -4   24.89    2.14
   5   4  -4    3.39    0.91
  -5  -4   4    2.91    0.78
   4   4  -4   47.17    2.83
  -4  -4   4   45.41    2.62
   3   4  -4   -0.28    0.50
  -3  -4   4    0.18    0.46
   2   4  -4   23.66    1.80
  -2  -4   4   21.95    1.64
   1   4  -4   48.55    2.62
  -1  -4   4   43.21    2.47
   0   4  -4   -0.09    0.42
   0  -4   4    0.24    0.32
  -1   4  -4   19.60    1.48
   1  -4   4   20.52    1.28
  -2   4  -4  124.43    5.26
   2  -4   4  124.92    5.34
   2  -4   4  117.29    4.85
  -3   4  -4    4.07    0.58
  -3   4  -4    3.55    0.72
   3  -4   4    3.65    0.68
   3  -4   4    3.44    0.66
  -4   4  -4   14.58    1.30
   4  -4   4   15.31    1.20
   4  -4   4   15.29    1.17
  -5   4  -4   34.78    2.07
   5  -4   4   33.00    1.93
  -6   4  -4    2.38    0.73
   6  -4   4    2.85    0.68
  -7   4  -4   27.74    2.13
   7  -4   4   29.87    1.98
   7   3  -4   -0.26    0.63
   6   3  -4   28.68    2.17
   5   3  -4    0.57    0.63
  -5  -3   4    1.06    0.55
   4   3  -4    1.48    0.63
  -4  -3   4    1.63    0.58
   3   3  -4   12.96    1.37
  -3  -3   4   13.32    1.24
   2   3  -4   16.78    1.43
  -2  -3   4   15.74    1.30
   1   3  -4   33.97    1.99
  -1  -3   4   28.37    1.73
   0   3  -4   79.22    3.83
   0  -3   4   85.31    3.44
  -1   3  -4   19.94    1.37
   1  -3   4   16.78    1.24
   1  -3   4   17.76    1.27
  -2   3  -4   10.30    0.96
  -2   3  -4   12.19    1.02
   2  -3   4    9.43    0.89
   2  -3   4   10.19    0.91
  -3   3  -4  191.70    7.69
  -3   3  -4  197.48    7.49
   3  -3   4  197.15    7.90
   3  -3   4  189.88    7.32
  -4   3  -4   -0.47    0.36
   4  -3   4    0.57    0.33
   4  -3   4   -0.09    0.32
  -5   3  -4   20.94    1.58
   5  -3   4   24.65    1.58
  -6   3  -4   18.47    1.59
   6  -3   4   18.13    1.50
  -7   3  -4    6.07    1.13
   7  -3   4    6.00    1.07
   8   2  -4    1.92    0.76
   7   2  -4    6.81    1.15
   6   2  -4    0.01    0.50
   5   2  -4   40.86    2.46
  -5  -2   4   39.94    2.20
   4   2  -4    6.25    0.96
  -4  -2   4    7.38    0.93
   3   2  -4   13.57    1.24
  -3  -2   4   13.61    1.16
   2   2  -4   78.64    3.72
   1   2  -4  157.84    6.78
  -1  -2   4  165.10    6.18
   0   2  -4    1.58    0.67
   0  -2   4    1.94    0.56
  -1   2  -4  344.96   13.51
   1  -2   4  336.45   13.51
   1  -2   4  351.31   12.40
  -2   2  -4    7.21    0.83
  -2   2  -4    9.29    0.88
   2  -2   4    8.06    0.82
   2  -2   4    8.24    0.81
  -3   2  -4   33.81    1.83
  -3   2  -4   33.76    1.66
   3  -2   4   33.82    1.79
   3  -2   4   35.27    1.80
  -4   2  -4    8.49    0.97
   4  -2   4    9.14    0.81
   4  -2   4    9.54    0.96
  -5   2  -4    2.27    0.65
   5  -2   4    3.90    0.74
   5  -2   4    2.44    0.48
  -6   2  -4    1.55    0.72
   6  -2   4    0.92    0.57
  -7   2  -4   19.36    1.76
   7  -2   4   20.01    1.69
   8  -2   4    9.05    1.43
   8   1  -4    1.12    0.72
   7   1  -4    1.16    0.59
   6   1  -4    5.90    0.96
   5   1  -4   14.59    1.32
  -5  -1   4   14.19    1.06
   4   1  -4    0.39    0.44
  -4  -1   4    0.00    0.40
   3   1  -4  189.76    8.11
  -3  -1   4  203.24    8.00
   2   1  -4   17.43    1.33
   1   1  -4  771.53   29.31
  -1  -1   4  755.67   26.68
   0   1  -4   33.61    1.88
   0  -1   4   36.49    1.72
   0  -1   4   34.02    1.93
  -1   1  -4   21.62    1.34
  -1   1  -4   22.01    1.27
   1  -1   4   20.25    1.22
   1  -1   4   19.33    1.25
  -2   1  -4   47.48    2.24
  -2   1  -4   47.00    2.26
   2  -1   4   48.85    2.27
   2  -1   4   43.41    2.19
  -3   1  -4   12.70    1.01
   3  -1   4   13.27    0.95
   3  -1   4   13.68    1.07
  -4   1  -4    0.22    0.41
   4  -1   4    0.55    0.30
   4  -1   4    0.23    0.35
  -5   1  -4   11.51    1.18
   5  -1   4   14.00    1.19
   5  -1   4   11.26    0.88
  -6   1  -4   19.78    1.70
   6  -1   4   22.53    1.68
   7  -1   4    4.17    0.93
   8  -1   4    3.89    0.97
   8   0  -4    1.78    0.70
   7   0  -4    8.58    1.19
   6   0  -4    1.68    0.64
   5   0  -4   99.84    4.53
  -5   0   4   99.94    4.12
   4   0  -4   19.72    1.39
  -4   0   4   18.25    1.18
   3   0  -4   36.51    2.02
   2   0  -4   49.20    2.48
   1   0  -4   86.87    3.52
   1   0  -4   90.90    3.91
  -1   0   4   87.24    3.52
   0   0  -4   10.29    0.93
   0   0  -4    9.01    0.75
   0   0   4   10.00    0.81
   0   0   4    8.84    0.81
  -1   0  -4    7.67    0.81
  -1   0  -4    7.98    0.72
  -1   0  -4    6.84    0.70
   1   0   4    6.74    0.70
   1   0   4    6.47    0.68
  -2   0  -4   25.73    1.48
  -2   0  -4   25.29    1.45
   2   0   4   27.77    1.49
   2   0   4   28.92    1.48
  -3   0  -4  106.13    4.20
  -3   0  -4  100.05    4.24
   3   0   4  100.82    4.31
   3   0   4  103.47    4.18
  -4   0  -4   18.67    1.35
  -4   0  -4   20.92    1.08
   4   0   4   21.52    1.43
   4   0   4   22.79    1.27
  -5   0  -4    1.26    0.57
   5   0   4    1.08    0.52
   5   0   4    1.28    0.40
  -6   0  -4    3.38    0.90
   6   0   4    5.77    1.06
   6   0   4    3.94    0.65
   7   0   4   36.23    2.39
   8   0   4    0.40    0.60
   8  -1  -4    0.85    0.65
   7  -1  -4   10.83    1.15
   6  -1  -4   14.37    1.28
   5  -1  -4    2.13    0.57
   4  -1  -4   48.16    2.52
  -4   1   4   51.91    2.25
   3  -1  -4   27.21    1.60
   2  -1  -4    9.11    0.94
   2  -1  -4    9.52    0.95
   1  -1  -4   42.26    2.14
   1  -1  -4   42.70    1.91
  -1   1   4   45.13    1.94
   0  -1  -4   33.49    1.55
   0  -1  -4   32.59    1.53
   0  -1  -4   36.19    1.79
   0   1   4   32.24    1.57
  -1  -1  -4    0.05    0.26
  -1  -1  -4   -0.03    0.32
  -1  -1  -4    0.27    0.30
   1   1   4   -0.48    0.28
   1   1   4    0.15    0.28
   1   1   4   -0.49    0.17
  -2  -1  -4    8.66    0.77
  -2  -1  -4    9.58    0.88
   2   1   4    8.33    0.84
   2   1   4    9.00    0.79
  -3  -1  -4   33.36    1.77
  -3  -1  -4   34.17    1.80
   3   1   4   34.76    1.79
   3   1   4   35.95    1.85
  -4  -1  -4    2.76    0.61
   4   1   4    2.36    0.46
   4   1   4    2.82    0.64
  -5  -1  -4   69.47    3.28
   5   1   4   66.50    3.10
   5   1   4   64.32    3.20
   6   1   4   17.49    1.53
   6   1   4   15.59    1.24
   7   1   4   26.49    2.03
   8   1   4   12.67    1.59
   8  -2  -4   17.91    1.45
   7  -2  -4    3.14    0.72
   6  -2  -4   24.73    1.63
   5  -2  -4   58.75    2.86
   4  -2  -4    1.57    0.47
   3  -2  -4   23.68    1.43
   2  -2  -4   69.94    2.92
   2  -2  -4   76.85    3.32
   1  -2  -4   29.60    1.45
   1  -2  -4   32.03    1.72
   1  -2  -4   32.16    1.38
  -1   2   4   32.24    1.58
   0  -2  -4    0.59    0.35
   0  -2  -4    0.44    0.24
   0  -2  -4    0.60    0.27
   0   2   4    0.27    0.30
  -1  -2  -4    4.67    0.50
  -1  -2  -4    3.75    0.52
  -1  -2  -4    3.42    0.57
   1   2   4    4.28    0.57
   1   2   4    3.99    0.55
   1   2   4    3.80    0.50
  -2  -2  -4   10.67    0.99
  -2  -2  -4   10.56    0.86
   2   2   4   12.36    0.96
   2   2   4   12.06    0.93
  -3  -2  -4   69.43    3.12
  -3  -2  -4   64.07    2.98
   3   2   4   70.31    3.15
   3   2   4   68.54    3.04
  -4  -2  -4   39.89    2.22
  -4  -2  -4   43.19    2.14
   4   2   4   41.92    2.24
   4   2   4   45.00    2.24
   4   2   4   41.45    2.24
  -5  -2  -4    2.93    0.50
   5   2   4    2.74    0.71
   5   2   4    1.87    0.51
   5   2   4    2.84    0.64
   6   2   4   10.80    1.12
   6   2   4   10.91    1.29
   7   2   4   25.86    1.96
   7   2   4   24.19    1.73
   8   2   4    0.23    0.53
   8   2   4    0.76    0.67
   7  -3  -4    8.38    1.01
   6  -3  -4   25.09    1.63
   5  -3  -4   31.65    1.81
   4  -3  -4  112.52    4.29
   4  -3  -4  121.73    5.00
   3  -3  -4    0.70    0.27
   3  -3  -4    1.52    0.44
   2  -3  -4   -0.21    0.24
   2  -3  -4   -0.28    0.28
   2  -3  -4    0.09    0.11
   1  -3  -4   87.38    4.19
   1  -3  -4   96.51    3.63
   1  -3  -4   97.99    3.52
  -1   3   4   97.48    3.65
   0  -3  -4   17.01    1.30
   0  -3  -4   16.57    1.31
   0  -3  -4   18.87    0.95
   0  -3  -4   18.24    0.97
   0   3   4   19.02    1.04
   0   3   4   18.69    0.94
  -1  -3  -4    2.62    0.45
  -1  -3  -4    2.37    0.42
  -1  -3  -4    3.20    0.64
   1   3   4    2.45    0.40
   1   3   4    2.42    0.48
  -2  -3  -4   71.77    3.60
  -2  -3  -4   82.95    3.34
   2   3   4   82.27    3.35
  -3  -3  -4   15.04    1.21
  -3  -3  -4   13.64    1.11
   3   3   4   13.84    1.22
   3   3   4   14.15    1.14
  -4  -3  -4   59.76    2.81
   4   3   4   54.76    2.86
   4   3   4   53.54    2.81
   4   3   4   58.25    2.79
  -5  -3  -4   53.87    2.72
   5   3   4   58.53    2.90
   5   3   4   59.00    2.91
   5   3   4   56.15    2.94
   6   3   4   -0.39    0.41
   6   3   4   -0.60    0.50
   7   3   4    9.77    1.44
   7   3   4    7.66    1.11
   8   3   4    2.31    0.75
   8   3   4    3.91    1.08
   7  -4  -4    6.93    0.98
   6  -4  -4   12.73    1.12
   5  -4  -4    7.90    0.89
   4  -4  -4    0.81    0.41
   3  -4  -4   26.55    1.28
   3  -4  -4   27.89    1.67
   2  -4  -4   70.49    3.14
   2  -4  -4   59.55    2.47
   1  -4  -4    0.26    0.41
   1  -4  -4    0.29    0.23
   1  -4  -4    0.71    0.34
  -1   4   4    0.36    0.36
   0  -4  -4  146.65    6.85
   0  -4  -4  165.91    5.92
   0   4   4  169.35    5.95
   0   4   4  169.57    5.99
  -1  -4  -4   75.40    3.62
   1   4   4   76.26    3.05
  -2  -4  -4    3.14    0.71
   2   4   4    1.48    0.59
   2   4   4    1.33    0.50
  -3  -4  -4  177.15    7.13
   3   4   4  163.69    6.46
   3   4   4  161.73    7.12
  -4  -4  -4    8.07    1.06
   4   4   4    9.83    1.14
   4   4   4    8.69    1.09
  -5  -4  -4    1.43    0.55
   5   4   4    0.93    0.56
   5   4   4    1.64    0.60
   6   4   4   25.73    1.91
   7   4   4   12.80    1.48
   7   4   4   12.20    1.41
   8   4   4   47.90    2.99
   8   4   4   44.34    2.85
   7  -5  -4   14.01    1.28
   6  -5  -4    3.73    0.69
   5  -5  -4   23.70    1.58
   4  -5  -4   28.36    1.77
   4  -5  -4   27.27    1.37
   3  -5  -4    2.31    0.53
   3  -5  -4    1.00    0.27
   3  -5  -4    2.41    0.60
   2  -5  -4    6.26    0.44
   2  -5  -4    7.16    0.96
   2  -5  -4    6.81    0.75
   1  -5  -4   27.73    1.18
   1  -5  -4   31.89    1.93
  -1   5   4   28.59    1.18
  -1   5   4   28.70    1.21
   0  -5  -4    0.96    0.54
   0   5   4    1.17    0.26
   0   5   4    0.77    0.31
  -1  -5  -4   72.91    3.55
   1   5   4   68.02    3.47
   1   5   4   70.71    2.85
  -2  -5  -4   60.53    3.05
   2   5   4   55.71    3.00
   2   5   4   55.48    2.54
  -3  -5  -4    7.42    1.09
   3   5   4    5.97    0.85
   3   5   4    6.79    1.08
  -4  -5  -4  119.20    5.47
   4   5   4  121.95    5.02
   4   5   4  120.17    5.56
  -5  -5  -4   33.61    2.19
   5   5   4   34.51    2.30
  -6  -5  -4   21.03    1.77
   6   5   4   23.71    1.94
   7   5   4    5.72    1.16
   8   5   4    0.61    0.71
   6  -6  -4   12.77    1.21
   5  -6  -4   11.18    1.14
   4  -6  -4   11.43    1.22
   3  -6  -4   23.85    1.76
   2  -6  -4    4.18    0.84
   1  -6  -4   28.80    1.99
  -1   6   4   29.22    1.22
   0  -6  -4   17.24    1.53
   0   6   4   17.15    0.93
   0   6   4   17.16    0.97
  -1  -6  -4    4.99    0.96
   1   6   4    3.56    0.81
   1   6   4    5.01    0.67
  -2  -6  -4   34.92    2.23
   2   6   4   30.79    1.71
   2   6   4   31.30    2.16
  -3  -6  -4   31.24    2.23
   3   6   4   33.23    1.89
   3   6   4   36.40    2.33
  -4  -6  -4   12.20    1.43
   4   6   4   11.11    1.41
  -5  -6  -4   15.25    1.61
   5   6   4   14.67    1.64
  -6  -6  -4    5.63    1.20
   6   6   4    4.68    1.02
   7   6   4    2.97    0.97
   8   6   4    9.76    1.54
   6  -7  -4    0.66    0.56
   5  -7  -4    5.25    0.94
   4  -7  -4    2.07    0.71
   3  -7  -4    0.59    0.56
   2  -7  -4    2.26    0.73
   1  -7  -4   28.32    1.99
  -1   7   4   24.22    1.15
   0  -7  -4   41.26    2.45
   0   7   4   33.36    1.49
  -1  -7  -4   57.78    3.20
   1   7   4   56.39    2.39
   1   7   4   55.55    3.15
  -2  -7  -4    0.98    0.70
   2   7   4    2.14    0.80
   2   7   4    1.62    0.56
  -3  -7  -4   28.91    2.29
   3   7   4   33.64    1.91
   3   7   4   34.32    2.38
  -4  -7  -4   11.26    1.59
   4   7   4   10.96    1.52
  -5  -7  -4   10.08    1.51
   5   7   4   10.06    1.57
   6   7   4    4.05    1.05
   7   7   4    4.00    1.18
   5  -8  -4    1.07    0.67
   4  -8  -4    0.67    0.64
   3  -8  -4    6.87    1.16
   2  -8  -4   -0.06    0.47
   1  -8  -4   10.85    1.42
   0  -8  -4    8.79    1.32
  -1  -8  -4   12.91    1.61
   1   8   4   13.45    1.61
   1   8   4   16.11    1.04
  -2  -8  -4   14.09    1.67
   2   8   4   12.67    1.14
   2   8   4   14.70    1.69
  -3  -8  -4    4.41    1.13
   3   8   4    5.68    1.20
   3   8   4    4.18    0.81
  -4  -8  -4   15.22    1.81
   4   8   4   13.54    1.80
  -5  -8  -4   14.64    1.85
   5   8   4   15.24    1.93
   6   8   4    0.35    0.83
   4  -9  -4   -0.31    0.59
   3  -9  -4    2.97    0.95
   2  -9  -4   10.41    1.44
   1  -9  -4   -0.06    0.67
   0  -9  -4   10.32    1.49
  -1  -9  -4   10.06    1.51
   1   9   4    8.46    1.39
  -2  -9  -4   -0.10    0.73
   2   9   4    0.97    0.87
   2   9   4    0.73    0.53
  -3  -9  -4    0.87    0.85
   3   9   4    0.56    0.79
   3   9   4    0.70    0.57
  -4  -9  -4    2.34    1.08
   4   9   4    1.98    1.01
   4   9   4    2.90    0.80
  -5  -9  -4    0.37    0.93
   5   9   4    0.80    0.98
   6   9   4    3.73    1.28
   3 -10  -4    1.02    0.72
   2 -10  -4    3.05    0.98
   1 -10  -4   10.77    1.68
   0 -10  -4    0.71    0.75
  -1 -10  -4   -0.12    0.66
   1  10   4   -0.23    0.74
  -2 -10  -4    6.92    1.48
   2  10   4    7.66    1.44
  -3 -10  -4   12.14    1.88
   3  10   4    9.48    1.26
   3  10   4   11.46    1.79
  -4 -10  -4    0.48    0.93
   4  10   4    1.41    0.76
   4  10   4   -0.10    0.84
  -5 -10  -4    5.88    1.54
   5  10   4    7.03    1.53
   0 -11  -4   13.60    1.90
  -1 -11  -4    4.70    1.26
  -2 -11  -4    1.06    0.93
   2  11   4    0.69    0.89
  -3 -11  -4    3.09    1.29
   3  11   4    1.89    1.13
   2   9  -5    5.76    1.50
  -2  -9   5    4.28    1.19
   1   9  -5   14.89    2.01
  -1  -9   5   12.69    1.83
   0  -9   5   -0.35    0.63
   1  -9   5   12.86    1.71
   4   8  -5    2.21    1.22
  -4  -8   5   -0.20    0.81
   3   8  -5   45.55    3.35
  -3  -8   5   44.24    3.10
   2   8  -5    3.07    1.08
  -2  -8   5    2.46    0.90
   1   8  -5    6.91    1.41
  -1  -8   5    7.52    1.32
   0   8  -5    4.90    1.15
   0  -8   5    5.53    1.17
   1  -8   5    5.71    1.18
   2  -8   5    5.70    1.11
  -3   8  -5    5.92    1.15
   3  -8   5    8.67    1.33
   5   7  -5   28.05    2.65
  -5  -7   5   22.65    2.28
   4   7  -5    0.60    0.91
  -4  -7   5    1.44    0.87
   3   7  -5    2.84    1.11
  -3  -7   5    1.74    0.78
   2   7  -5   28.57    2.38
  -2  -7   5   23.25    2.09
   1   7  -5    0.64    0.80
  -1  -7   5    1.58    0.75
   0   7  -5    5.14    1.10
   0  -7   5    7.35    1.23
  -1   7  -5   20.95    1.92
   1  -7   5   23.59    1.64
   1  -7   5   25.90    2.00
   2  -7   5   10.24    1.33
   2  -7   5   10.37    1.11
  -3   7  -5   13.85    1.59
   3  -7   5   13.80    1.25
   3  -7   5   16.05    1.56
  -4   7  -5   30.80    2.13
   4  -7   5   30.54    2.16
   4  -7   5   27.44    1.83
   6   6  -5   17.45    2.18
   5   6  -5    0.61    0.91
  -5  -6   5    1.14    0.85
   4   6  -5   51.07    3.37
  -4  -6   5   49.04    3.08
   3   6  -5   13.18    1.74
  -3  -6   5   13.47    1.52
   2   6  -5    4.35    1.12
  -2  -6   5    5.36    1.06
   1   6  -5   31.98    2.47
  -1  -6   5   34.53    2.35
   0   6  -5    2.98    0.85
   0  -6   5    3.76    0.89
  -1   6  -5    6.64    1.14
   1  -6   5    7.34    1.16
   1  -6   5    9.40    1.00
  -2   6  -5   80.86    4.12
   2  -6   5   83.19    3.74
   2  -6   5   90.06    4.26
  -3   6  -5   12.71    1.45
   3  -6   5   13.37    1.20
  -4   6  -5   25.60    1.84
   4  -6   5   21.45    1.59
  -5   6  -5   20.87    1.81
   5  -6   5   24.94    1.68
   6   5  -5   13.34    1.96
   5   5  -5   21.55    2.17
  -5  -5   5   19.64    1.82
   4   5  -5    1.02    0.87
  -4  -5   5    0.75    0.61
   3   5  -5   50.37    3.14
  -3  -5   5   51.20    2.99
   2   5  -5   60.76    3.46
  -2  -5   5   60.96    3.32
   1   5  -5   -0.04    0.62
  -1  -5   5   -0.52    0.41
   0   5  -5   96.80    4.78
   0  -5   5  103.61    4.29
   0  -5   5   97.84    4.71
  -1   5  -5   50.80    2.85
   1  -5   5   48.99    2.48
  -2   5  -5    9.95    1.32
   2  -5   5   10.52    1.04
  -3   5  -5   47.74    2.59
   3  -5   5   46.19    2.44
  -4   5  -5   14.96    1.43
   4  -5   5   16.96    1.32
  -5   5  -5    1.44    0.77
   5  -5   5    1.07    0.54
  -6   5  -5   14.38    1.54
   6  -5   5   10.67    1.28
   7   4  -5   34.64    2.77
   6   4  -5    8.08    1.34
   5   4  -5   35.46    2.62
  -5  -4   5   34.84    2.28
   4   4  -5    7.26    1.24
  -4  -4   5    6.84    1.08
   3   4  -5    4.31    1.01
  -3  -4   5    3.66    0.79
   2   4  -5   23.48    1.91
  -2  -4   5   25.16    1.82
   1   4  -5   35.97    2.31
   0   4  -5    1.44    0.65
   0  -4   5    0.97    0.50
  -1   4  -5   29.35    1.90
   1  -4   5   27.73    1.68
  -2   4  -5  148.41    6.25
  -2   4  -5  158.67    6.56
   2  -4   5  152.71    6.08
  -3   4  -5    2.86    0.61
  -3   4  -5    1.84    0.67
   3  -4   5    2.78    0.63
   3  -4   5    4.44    0.74
  -4   4  -5   21.14    1.65
   4  -4   5   22.71    1.52
  -5   4  -5   21.82    1.71
   5  -4   5   19.26    1.50
  -6   4  -5   -0.20    0.67
   6  -4   5    0.76    0.51
  -7   4  -5    4.90    1.06
   7  -4   5    4.06    0.90
   7   3  -5   12.17    1.59
   6   3  -5   12.75    1.58
   5   3  -5   22.60    1.96
  -5  -3   5   23.50    1.76
   4   3  -5    8.41    1.32
  -4  -3   5    7.30    1.12
   3   3  -5   20.11    1.68
  -3  -3   5   17.17    1.50
   2   3  -5   15.75    1.52
   1   3  -5    9.07    1.17
  -1  -3   5    9.05    0.99
   0   3  -5   18.61    1.51
   0  -3   5   17.59    1.24
  -1   3  -5   10.20    1.12
   1  -3   5   11.35    0.99
  -2   3  -5    2.44    0.64
  -2   3  -5    1.56    0.58
   2  -3   5    1.27    0.48
  -3   3  -5   42.22    2.20
  -3   3  -5   37.15    1.98
   3  -3   5   37.24    2.08
   3  -3   5   37.34    2.04
  -4   3  -5    3.50    0.75
   4  -3   5    3.60    0.66
   4  -3   5    1.93    0.54
  -5   3  -5    0.70    0.65
   5  -3   5    1.56    0.54
  -6   3  -5   22.66    1.86
   6  -3   5   24.98    1.78
  -7   3  -5   -0.50    0.64
   7  -3   5   -0.17    0.45
   7   2  -5   36.80    2.64
   6   2  -5    0.32    0.65
   5   2  -5   13.58    1.48
  -5  -2   5   12.59    1.23
   4   2  -5    6.26    1.01
  -4  -2   5    5.53    0.86
   3   2  -5    0.00    0.52
  -3  -2   5    0.01    0.44
   2   2  -5   21.51    1.61
  -1  -2   5   62.55    2.85
   0   2  -5    0.32    0.43
   0  -2   5    1.41    0.60
  -1   2  -5   18.65    1.40
   1  -2   5   18.86    1.35
  -2   2  -5   39.37    2.17
  -2   2  -5   42.03    2.15
   2  -2   5   42.01    2.11
   2  -2   5   41.68    2.20
  -3   2  -5    2.85    0.57
  -3   2  -5    1.61    0.58
   3  -2   5    2.39    0.55
   3  -2   5    1.96    0.50
  -4   2  -5    8.97    1.05
  -4   2  -5    9.45    0.74
   4  -2   5   11.43    1.07
   4  -2   5    9.60    0.95
  -5   2  -5    4.68    0.91
   5  -2   5    5.08    0.87
  -6   2  -5    0.03    0.67
   6  -2   5    0.87    0.55
  -7   2  -5    9.43    1.43
   7  -2   5    6.97    1.19
   7   1  -5    0.57    0.65
   6   1  -5   22.31    1.84
   5   1  -5   19.68    1.67
  -5  -1   5   19.41    1.37
   4   1  -5    0.54    0.47
  -4  -1   5    0.25    0.44
   3   1  -5   25.01    1.76
   2   1  -5   12.35    1.26
   1   1  -5    7.27    0.97
  -1  -1   5    7.09    0.90
   0   1  -5   79.03    3.71
   0  -1   5   81.14    3.40
  -1   1  -5    2.53    0.67
  -1   1  -5    4.25    0.68
   1  -1   5    3.43    0.58
  -2   1  -5   53.11    2.54
  -2   1  -5   53.22    2.63
   2  -1   5   53.20    2.62
   2  -1   5   55.31    2.57
  -3   1  -5   10.14    0.92
  -3   1  -5   10.45    1.02
   3  -1   5    9.81    0.97
   3  -1   5   10.67    0.92
  -4   1  -5    0.54    0.31
  -4   1  -5   -0.07    0.43
   4  -1   5   -0.19    0.28
   4  -1   5    0.19    0.41
  -5   1  -5   14.35    1.32
   5  -1   5   13.93    1.29
   5  -1   5   12.34    1.05
  -6   1  -5    7.81    1.19
   6  -1   5    6.72    1.12
  -7   1  -5    2.54    0.94
   7  -1   5    3.56    1.01
   8  -1   5   13.50    1.60
   7   0  -5    0.53    0.60
   6   0  -5    3.82    0.87
   5   0  -5    1.83    0.63
   4   0  -5    5.43    0.91
  -4   0   5    4.60    0.69
   3   0  -5   40.95    2.31
   2   0  -5  126.32    5.49
   1   0  -5   87.65    4.06
  -1   0   5   90.95    3.69
   0   0  -5    4.09    0.79
   0   0   5    3.70    0.73
  -1   0  -5   30.41    1.64
  -1   0  -5   29.81    1.79
   1   0   5   27.78    1.75
  -2   0  -5   28.88    1.74
  -2   0  -5   32.14    1.69
   2   0   5   29.40    1.69
   2   0   5   29.73    1.67
  -3   0  -5   37.89    2.00
  -3   0  -5   37.77    2.04
   3   0   5   39.00    2.02
   3   0   5   40.64    2.05
  -4   0  -5   14.67    1.21
   4   0   5   14.81    1.28
   4   0   5   13.74    1.07
  -5   0  -5    2.43    0.72
   5   0   5    3.11    0.57
   5   0   5    2.55    0.71
  -6   0  -5   22.35    1.82
   6   0   5   26.52    1.89
  -7   0  -5   24.14    2.03
   7   0   5   23.49    1.94
   8   0   5   -0.21    0.65
   7  -1  -5    1.19    0.65
   6  -1  -5   11.76    1.28
   5  -1  -5    7.20    1.01
   4  -1  -5   46.44    2.56
  -4   1   5   47.64    2.30
   3  -1  -5   15.43    1.25
   2  -1  -5   -0.28    0.34
   1  -1  -5   90.27    4.08
  -1   1   5   91.93    3.70
   0  -1  -5   58.27    2.81
   0  -1  -5   59.68    2.50
   0   1   5   53.88    2.56
  -1  -1  -5    7.79    0.81
  -1  -1  -5    6.34    1.01
   1   1   5    5.59    0.80
  -2  -1  -5   55.03    2.47
  -2  -1  -5   52.16    2.62
   2   1   5   56.18    2.61
   2   1   5   49.58    2.43
  -3  -1  -5   84.70    3.62
  -3  -1  -5   76.79    3.47
   3   1   5   78.27    3.48
   3   1   5   80.49    3.62
  -4  -1  -5   23.92    1.45
  -4  -1  -5   19.93    1.51
   4   1   5   25.13    1.51
   4   1   5   26.09    1.68
  -5  -1  -5    7.21    1.01
  -5  -1  -5    8.21    0.74
   5   1   5    8.26    1.18
   5   1   5    8.18    0.87
  -6  -1  -5    9.91    1.31
   6   1   5    8.91    1.30
   7   1   5    2.88    0.93
   8   1   5   13.73    1.77
   7  -2  -5    8.25    1.19
   6  -2  -5    5.21    0.94
   5  -2  -5   33.35    2.05
   4  -2  -5   27.65    1.75
   3  -2  -5   20.96    1.43
   2  -2  -5  151.70    6.39
   1  -2  -5    7.82    0.92
   1  -2  -5    9.20    0.68
  -1   2   5    8.77    0.83
   0  -2  -5  187.81    8.03
   0  -2  -5  201.46    7.25
   0   2   5  199.59    7.29
  -1  -2  -5   18.46    1.38
  -1  -2  -5   17.78    1.09
   1   2   5   16.87    1.30
  -2  -2  -5   68.38    3.14
  -2  -2  -5   64.46    2.85
   2   2   5   62.63    2.86
  -3  -2  -5    4.02    0.71
  -3  -2  -5    3.29    0.61
   3   2   5    3.56    0.71
   3   2   5    2.81    0.51
  -4  -2  -5   17.10    1.32
   4   2   5   19.97    1.47
   4   2   5   18.93    1.32
  -5  -2  -5   13.52    1.37
   5   2   5   14.13    1.16
   5   2   5   13.04    1.36
   6   2   5   19.44    1.68
   7   2   5   32.03    2.28
   8   2   5    1.07    0.85
   7  -3  -5    0.41    0.56
   6  -3  -5   21.55    1.64
   5  -3  -5    2.83    0.70
   4  -3  -5   66.21    3.23
   3  -3  -5   62.11    3.04
   2  -3  -5   57.63    2.91
   2  -3  -5   60.44    2.33
   1  -3  -5   74.56    3.08
   1  -3  -5   78.90    3.00
   1  -3  -5   77.35    3.63
  -1   3   5   77.95    3.14
   0  -3  -5    3.93    0.48
   0  -3  -5    3.60    0.68
   0  -3  -5    3.14    0.48
   0   3   5    2.71    0.54
  -1  -3  -5    2.87    0.69
  -1  -3  -5    3.31    0.51
   1   3   5    3.03    0.56
  -2  -3  -5   43.64    2.44
  -2  -3  -5   46.60    2.20
   2   3   5   47.82    2.26
  -3  -3  -5    3.24    0.63
  -3  -3  -5    3.50    0.71
   3   3   5    3.34    0.67
  -4  -3  -5   44.11    2.37
  -4  -3  -5   41.58    2.33
   4   3   5   43.88    2.41
  -5  -3  -5   23.79    1.63
   5   3   5   26.46    1.83
   5   3   5   24.48    1.81
   6   3   5    0.16    0.47
   6   3   5    0.82    0.62
   7   3   5   10.32    1.37
   7   3   5    8.86    1.22
   8   3   5    9.50    1.39
   8   3   5   11.50    1.62
   7  -4  -5    4.01    0.87
   6  -4  -5    4.72    0.87
   5  -4  -5   41.08    2.33
   4  -4  -5    6.55    0.90
   3  -4  -5    2.30    0.58
   2  -4  -5    2.23    0.39
   2  -4  -5    1.10    0.46
   2  -4  -5    2.24    0.25
   1  -4  -5    0.66    0.21
   1  -4  -5    1.00    0.44
   1  -4  -5    0.54    0.23
  -1   4   5    0.51    0.35
   0  -4  -5   29.61    1.43
   0  -4  -5   31.45    1.92
   0  -4  -5   31.25    1.44
   0   4   5   28.39    1.39
   0   4   5   28.54    1.47
  -1  -4  -5   10.31    0.85
  -1  -4  -5    9.58    1.12
   1   4   5   10.21    0.87
  -2  -4  -5    1.17    0.54
  -2  -4  -5   -0.02    0.35
   2   4   5    0.72    0.42
  -3  -4  -5   70.66    3.41
   3   4   5   63.89    3.07
  -4  -4  -5   29.27    1.89
   4   4   5   27.10    1.83
   4   4   5   26.32    1.90
  -5  -4  -5    7.20    1.06
   5   4   5    5.34    1.01
   5   4   5    4.45    0.88
   6   4   5   32.37    2.23
   6   4   5   32.08    2.22
   7   4   5    1.89    0.72
   7   4   5    0.45    0.66
   8   4   5    0.06    0.56
   8   4   5    0.21    0.68
   6  -5  -5    0.56    0.50
   5  -5  -5    3.54    0.77
   4  -5  -5    6.30    0.93
   3  -5  -5    4.59    0.51
   3  -5  -5    4.28    0.76
   2  -5  -5   -0.31    0.34
   2  -5  -5    0.11    0.21
   1  -5  -5    9.26    1.08
   1  -5  -5    6.92    0.58
  -1   5   5    6.93    0.66
   0  -5  -5    0.71    0.23
   0  -5  -5    0.63    0.48
   0   5   5    0.62    0.26
   0   5   5   -0.14    0.36
  -1  -5  -5    9.86    1.15
   1   5   5   10.13    0.87
   2   5   5   26.75    1.56
  -3  -5  -5    5.24    0.99
   3   5   5    4.49    0.94
   3   5   5    7.03    0.99
  -4  -5  -5   27.24    1.90
   4   5   5   22.74    1.88
   4   5   5   26.13    1.78
  -5  -5  -5    0.79    0.61
   5   5   5    0.25    0.60
   5   5   5    1.91    0.77
   6   5   5   41.48    2.69
   6   5   5   41.00    2.55
   7   5   5   18.87    1.81
   7   5   5   20.19    1.91
   8   5   5   24.01    2.19
   8   5   5   23.75    2.12
   6  -6  -5    7.32    1.08
   5  -6  -5   17.14    1.49
   4  -6  -5    4.53    0.90
   3  -6  -5   22.01    1.74
   2  -6  -5    5.24    1.00
   1  -6  -5   21.44    1.72
  -1   6   5   20.85    1.01
   0  -6  -5   19.15    1.65
   0   6   5   17.54    1.03
   0   6   5   20.03    1.07
  -1  -6  -5    4.00    0.85
   1   6   5    4.30    0.61
  -2  -6  -5    9.30    1.34
   2   6   5    8.12    1.28
   2   6   5   10.98    1.01
  -3  -6  -5    2.22    0.71
   3   6   5    3.20    0.84
   3   6   5    1.97    0.67
  -4  -6  -5   74.64    3.89
   4   6   5   76.11    3.53
   4   6   5   70.61    3.92
  -5  -6  -5   22.12    1.87
   5   6   5   20.28    1.77
   5   6   5   21.20    1.90
   6   6   5   27.41    2.27
   6   6   5   29.93    2.20
   7   6   5    1.85    0.89
   7   6   5    1.37    0.86
   5  -7  -5   12.66    1.40
   4  -7  -5   15.60    1.55
   3  -7  -5    0.61    0.58
   2  -7  -5    8.80    1.29
   1  -7  -5    0.90    0.67
  -1   7   5    2.80    0.40
   0  -7  -5    3.80    0.95
   0   7   5    6.17    0.64
  -1  -7  -5   16.25    1.71
   1   7   5   15.36    1.07
  -2  -7  -5  141.23    6.15
   2   7   5  124.30    5.08
   2   7   5  123.14    6.03
  -3  -7  -5    8.85    1.38
   3   7   5    8.44    1.21
   3   7   5    7.57    1.33
  -4  -7  -5   35.42    2.59
   4   7   5   36.67    2.21
   4   7   5   39.02    2.71
  -5  -7  -5    5.49    1.15
   5   7   5    3.62    0.96
   5   7   5    3.28    0.98
   6   7   5    1.42    0.82
   6   7   5   -0.71    0.56
   7   7   5    3.70    1.03
   7   7   5    4.59    1.21
   4  -8  -5    6.88    1.23
   3  -8  -5    1.07    0.61
   2  -8  -5   47.19    2.99
   1  -8  -5    0.31    0.59
   0  -8  -5  111.52    5.52
  -1  -8  -5    9.78    1.49
   1   8   5   10.16    0.93
  -2  -8  -5   19.85    2.03
   2   8   5   22.53    1.49
   2   8   5   22.85    2.05
  -3  -8  -5   58.11    3.52
   3   8   5   56.26    3.49
   3   8   5   58.28    2.86
  -4  -8  -5    0.86    0.85
   4   8   5    0.41    0.63
   4   8   5    0.28    0.79
  -5  -8  -5    7.16    1.41
   5   8   5   12.51    1.52
   5   8   5   11.26    1.71
   6   8   5    2.91    1.00
   6   8   5    3.15    1.13
   4  -9  -5   16.65    1.80
   3  -9  -5   -0.05    0.63
   2  -9  -5   36.70    2.74
   1  -9  -5   29.97    2.45
   0  -9  -5   13.89    1.73
  -1  -9  -5   42.36    3.05
  -2  -9  -5    6.42    1.32
   2   9   5    6.71    0.94
   2   9   5    6.44    1.27
  -3  -9  -5   -0.07    0.82
   3   9   5    0.14    0.74
   3   9   5    0.54    0.64
  -4  -9  -5    8.10    1.45
   4   9   5    8.04    1.14
   4   9   5    6.34    1.39
  -5  -9  -5    2.11    1.05
   5   9   5    3.88    1.25
   5   9   5    2.46    0.94
   2 -10  -5   -0.43    0.60
   1 -10  -5   15.47    1.98
   0 -10  -5    6.31    1.39
  -1 -10  -5    0.72    0.84
  -2 -10  -5   12.63    1.96
   2  10   5    7.83    1.55
  -3 -10  -5    8.63    1.72
   3  10   5    7.22    1.13
   3  10   5    8.96    1.58
  -4 -10  -5    0.85    0.94
   4  10   5    0.43    0.96
   4  10   5    1.03    0.76
   0 -11  -5    5.42    1.39
  -1 -11  -5    2.91    1.18
  -2 -11  -5   -1.00    0.92
   2  11   5   -0.31    0.88
   3   8  -6   38.79    3.22
  -3  -8   6   35.50    2.89
   2   8  -6    0.37    0.90
  -2  -8   6   -0.40    0.70
   1   8  -6   16.62    2.04
  -1  -8   6   15.09    1.88
   0  -8   6   17.60    1.98
   1  -8   6    0.47    0.66
   2  -8   6    6.46    1.04
   2  -8   6    7.01    1.37
   4   7  -6    5.37    1.43
  -4  -7   6    6.07    1.23
   3   7  -6    4.03    1.26
  -3  -7   6    4.74    1.21
   2   7  -6   45.72    3.29
  -2  -7   6   46.61    3.10
   1   7  -6    2.56    0.99
  -1  -7   6    1.21    0.71
   0   7  -6    8.49    1.49
   0  -7   6   10.11    1.50
   1  -7   6    9.77    1.41
   1  -7   6    8.59    1.18
   2  -7   6    0.18    0.50
   2  -7   6   -0.07    0.56
  -3   7  -6    0.75    0.79
   3  -7   6    0.39    0.49
   3  -7   6   -0.02    0.50
  -4   7  -6    2.79    0.90
   4  -7   6    2.62    0.83
   4  -7   6    2.48    0.73
   5   6  -6    0.34    0.93
  -5  -6   6    1.05    0.88
   4   6  -6   27.49    2.56
  -4  -6   6   29.75    2.30
   3   6  -6   14.30    1.87
  -3  -6   6   14.87    1.73
   2   6  -6   -0.07    0.68
  -2  -6   6   -0.02    0.56
   1   6  -6    7.91    1.29
  -1  -6   6    7.56    1.25
   0   6  -6   -0.31    0.67
   0  -6   6   -0.49    0.54
   0  -6   6    0.08    0.48
  -1   6  -6    3.25    0.98
   1  -6   6    2.69    0.73
   1  -6   6    2.18    0.76
   2  -6   6    8.38    1.09
  -3   6  -6    5.10    1.11
   3  -6   6    4.92    0.93
  -4   6  -6    3.28    0.95
   4  -6   6    3.38    0.82
  -5   6  -6   23.58    2.09
   5  -6   6   29.02    1.95
   6   5  -6    0.27    0.89
   5   5  -6    9.98    1.59
  -5  -5   6    7.44    1.29
   4   5  -6   12.45    1.70
  -4  -5   6    9.92    1.43
   3   5  -6    4.82    1.11
  -3  -5   6    3.20    0.93
   2   5  -6   20.84    1.99
  -2  -5   6   19.75    1.80
   1   5  -6   11.06    1.53
  -1  -5   6   13.28    1.49
   0   5  -6    0.54    0.65
   0  -5   6    1.18    0.63
  -1   5  -6   19.16    1.76
   1  -5   6   21.87    1.58
  -2   5  -6    3.55    0.86
  -2   5  -6    1.99    0.89
   2  -5   6    1.91    0.65
  -3   5  -6   26.48    1.96
   3  -5   6   26.23    1.81
  -4   5  -6    1.41    0.78
   4  -5   6    0.65    0.55
  -5   5  -6   -0.61    0.70
   5  -5   6    0.18    0.55
  -6   5  -6   15.06    1.68
   6  -5   6    9.93    1.33
   6   4  -6   19.25    2.39
   5   4  -6    0.21    0.70
  -5  -4   6    0.83    0.74
   4   4  -6    1.24    0.83
  -4  -4   6    1.48    0.68
   3   4  -6   30.41    2.44
  -3  -4   6   36.38    2.34
   2   4  -6    6.37    1.23
  -2  -4   6    8.29    1.23
   1   4  -6    8.80    1.32
  -1  -4   6    6.68    1.05
   0   4  -6   10.43    1.36
   0  -4   6   10.70    1.20
  -1   4  -6    7.91    1.20
   1  -4   6    7.88    1.04
  -2   4  -6   25.25    1.86
  -2   4  -6   24.72    1.88
   2  -4   6   24.53    1.67
  -3   4  -6    7.34    1.09
  -3   4  -6    8.77    1.11
   3  -4   6    9.37    1.05
  -4   4  -6   10.86    1.37
   4  -4   6   12.01    1.22
  -5   4  -6   16.15    1.60
   5  -4   6   15.71    1.46
  -6   4  -6    0.93    0.82
   6  -4   6    1.35    0.61
   7   3  -6   10.03    1.74
   6   3  -6   11.28    1.68
   5   3  -6   36.19    2.61
  -5  -3   6   32.84    2.21
   4   3  -6    1.95    0.84
  -4  -3   6    1.33    0.66
   3   3  -6   19.66    1.83
  -3  -3   6   18.47    1.65
   2   3  -6   13.67    1.53
   1   3  -6    1.07    0.63
  -1  -3   6    0.77    0.59
   0   3  -6    4.48    0.89
   0  -3   6    3.98    0.77
  -1   3  -6   21.14    1.69
   1  -3   6   25.35    1.60
  -2   3  -6    0.36    0.49
  -2   3  -6    0.13    0.44
   2  -3   6   -0.31    0.34
  -3   3  -6   25.62    1.82
  -3   3  -6   25.58    1.67
   3  -3   6   27.97    1.77
  -4   3  -6   28.14    1.91
   4  -3   6   24.93    1.77
  -5   3  -6    2.73    0.80
   5  -3   6    1.54    0.56
  -6   3  -6   50.63    3.03
   6  -3   6   52.86    2.93
  -7   3  -6    0.39    0.75
   7  -3   6   -0.41    0.58
   7   2  -6   16.93    1.89
   6   2  -6   15.90    1.77
   5   2  -6    9.22    1.41
  -5  -2   6    9.26    1.17
   4   2  -6    9.72    1.44
  -4  -2   6   10.10    1.20
   3   2  -6    2.28    0.71
   2   2  -6    8.46    1.21
   1   2  -6   78.53    3.90
   0   2  -6    0.28    0.50
   0  -2   6    0.65    0.42
  -1   2  -6   54.93    2.82
   1  -2   6   48.93    2.54
  -2   2  -6  123.51    5.27
  -2   2  -6  131.49    5.58
   2  -2   6  126.74    5.19
  -3   2  -6    1.46    0.58
  -3   2  -6    2.23    0.61
   3  -2   6    2.48    0.61
  -4   2  -6   24.71    1.77
  -4   2  -6   23.41    1.45
   4  -2   6   25.33    1.60
   4  -2   6   22.62    1.63
  -5   2  -6    4.50    0.96
   5  -2   6    3.53    0.84
  -6   2  -6    0.90    0.71
   6  -2   6    1.12    0.57
  -7   2  -6    3.64    1.01
   7  -2   6    2.67    0.83
   7   1  -6   -0.25    0.67
   6   1  -6   21.92    1.93
   5   1  -6   19.00    1.74
   4   1  -6   -0.39    0.51
  -4  -1   6    0.81    0.57
   3   1  -6   43.40    2.59
   2   1  -6   18.15    1.54
   1   1  -6   24.76    1.76
  -1  -1   6   24.22    1.58
   0   1  -6  159.34    6.76
   0  -1   6  155.44    6.16
  -1   1  -6   17.70    1.30
  -1   1  -6   16.36    1.39
   1  -1   6   18.56    1.31
  -2   1  -6   62.29    3.17
  -2   1  -6   66.95    3.09
   2  -1   6   66.97    3.04
  -3   1  -6  123.17    5.35
  -3   1  -6  126.29    5.22
   3  -1   6  124.42    5.14
  -4   1  -6    1.27    0.57
   4  -1   6    1.66    0.52
   4  -1   6    1.48    0.61
  -5   1  -6    6.54    1.04
   5  -1   6    6.06    1.01
  -6   1  -6   11.10    1.45
   6  -1   6   14.13    1.52
  -7   1  -6    5.15    1.25
   7  -1   6    4.28    0.97
   7   0  -6    5.67    1.14
   6   0  -6   -0.48    0.57
   5   0  -6   19.63    1.74
   4   0  -6   10.18    1.24
  -4   0   6   10.27    1.08
   3   0  -6    1.62    0.58
   2   0  -6  104.61    4.90
  -2   0   6  109.70    4.48
   1   0  -6   52.73    2.80
  -1   0   6   53.04    2.53
   0   0  -6    0.63    0.56
   0   0   6    0.64    0.46
  -1   0  -6  115.79    4.75
  -1   0  -6  122.75    5.20
   1   0   6  112.73    4.72
  -2   0  -6   62.55    2.87
  -2   0  -6   63.02    3.05
   2   0   6   57.60    2.82
  -3   0  -6    0.00    0.46
  -3   0  -6   -0.56    0.42
   3   0   6   -0.68    0.34
  -4   0  -6   26.12    1.76
  -4   0  -6   28.11    1.59
   4   0   6   24.39    1.61
   4   0   6   23.30    1.69
  -5   0  -6   25.36    1.86
   5   0   6   26.64    1.90
  -6   0  -6    1.18    0.76
   6   0   6    1.74    0.66
  -7   0  -6   25.90    2.25
   7   0   6   25.82    2.09
   8   0   6    4.72    1.21
   7  -1  -6   15.57    1.64
   6  -1  -6   30.03    2.16
   5  -1  -6    3.88    0.86
   4  -1  -6    8.21    1.12
   3  -1  -6    5.94    0.94
   2  -1  -6    1.61    0.62
  -2   1   6    3.67    0.72
   1  -1  -6   65.79    3.24
  -1   1   6   64.70    2.90
   0  -1  -6   51.22    2.83
   0  -1  -6   56.55    2.53
   0   1   6   59.63    2.67
  -1  -1  -6   42.22    2.08
  -1  -1  -6   41.90    2.33
   1   1   6   40.07    2.12
  -2  -1  -6   61.43    2.91
  -2  -1  -6   64.03    3.13
   2   1   6   66.42    2.95
  -3  -1  -6   53.04    2.72
  -3  -1  -6   58.33    2.87
   3   1   6   59.20    2.80
  -4  -1  -6    1.50    0.54
  -4  -1  -6    0.56    0.43
   4   1   6    0.35    0.54
  -5  -1  -6    4.43    0.89
   5   1   6    4.76    0.93
   5   1   6    5.11    0.76
  -6  -1  -6   14.62    1.62
   6   1   6   11.77    1.41
  -7  -1  -6    1.15    0.90
   7   1   6   -0.06    0.55
   8   1   6    4.93    1.19
   7  -2  -6    0.63    0.64
   6  -2  -6    0.60    0.65
   5  -2  -6   29.55    2.06
   4  -2  -6   21.46    1.64
   3  -2  -6    2.89    0.65
   2  -2  -6  102.78    4.57
  -2   2   6   95.72    4.06
   1  -2  -6   39.81    1.84
   1  -2  -6   40.57    2.24
  -1   2   6   36.53    1.94
   0  -2  -6   34.48    1.69
   0  -2  -6   31.21    2.00
   0   2   6   34.35    1.82
  -1  -2  -6   10.83    1.16
  -1  -2  -6   12.51    0.96
   1   2   6   11.21    1.02
  -2  -2  -6    7.83    1.02
  -2  -2  -6    7.48    0.83
   2   2   6    7.96    0.93
  -3  -2  -6   18.32    1.37
  -3  -2  -6   23.65    1.60
   3   2   6   21.37    1.52
  -4  -2  -6    8.21    1.00
  -4  -2  -6    7.24    1.03
   4   2   6    8.93    1.06
  -5  -2  -6    1.66    0.60
  -5  -2  -6    1.42    0.66
   5   2   6    2.19    0.72
  -6  -2  -6    4.46    1.02
   6   2   6    5.52    1.01
   7   2   6   24.22    2.06
   8   2   6    1.64    0.83
   7  -3  -6    0.70    0.62
   6  -3  -6    8.48    1.27
   5  -3  -6    1.08    0.62
   4  -3  -6   12.69    1.28
   3  -3  -6   52.25    2.80
   2  -3  -6    1.21    0.31
   2  -3  -6    0.24    0.46
   1  -3  -6   82.13    3.38
   1  -3  -6   91.19    4.09
  -1   3   6   84.82    3.52
   0  -3  -6   92.48    4.43
   0  -3  -6   98.84    3.84
   0   3   6   95.78    3.89
  -1  -3  -6   13.57    1.27
  -1  -3  -6   12.15    0.92
   1   3   6   12.54    1.04
  -2  -3  -6   17.74    1.47
  -2  -3  -6   17.44    1.24
   2   3   6   17.90    1.29
  -3  -3  -6    1.15    0.61
  -3  -3  -6    1.30    0.48
   3   3   6    0.59    0.49
  -4  -3  -6    4.69    0.83
  -4  -3  -6    4.15    0.80
   4   3   6    3.42    0.80
  -5  -3  -6    6.59    1.10
  -5  -3  -6    7.02    1.10
   5   3   6    6.84    1.07
   6   3   6    3.17    0.87
   7   3   6   10.70    1.55
   8   3   6   22.67    2.15
   6  -4  -6    1.49    0.65
   5  -4  -6   26.05    1.86
   4  -4  -6   12.58    1.30
   3  -4  -6    7.77    0.48
   3  -4  -6    8.32    1.06
   2  -4  -6   78.94    3.68
   2  -4  -6   69.51    2.78
   1  -4  -6    1.53    0.58
   1  -4  -6    2.00    0.36
  -1   4   6    2.33    0.58
   0  -4  -6    1.55    0.36
   0  -4  -6    0.28    0.45
   0   4   6    0.56    0.45
  -1  -4  -6   20.36    1.62
  -1  -4  -6   19.70    1.24
   1   4   6   22.88    1.37
  -2  -4  -6   14.21    1.14
  -2  -4  -6   13.56    1.39
   2   4   6   15.92    1.21
  -3  -4  -6   43.93    2.53
  -3  -4  -6   41.28    2.27
   3   4   6   42.19    2.29
  -4  -4  -6   39.72    2.37
  -4  -4  -6   36.67    2.24
   4   4   6   35.44    2.22
  -5  -4  -6    0.89    0.61
   5   4   6    1.67    0.77
   6   4   6   29.66    2.18
   7   4   6    3.46    0.98
   8   4   6    4.11    1.16
   6  -5  -6   11.49    1.36
   5  -5  -6   12.51    1.34
   4  -5  -6   43.89    2.60
   3  -5  -6    7.26    1.12
   2  -5  -6    0.14    0.45
   1  -5  -6   59.03    2.54
   1  -5  -6   60.20    3.26
  -1   5   6   62.96    2.57
   0  -5  -6   11.36    0.85
   0  -5  -6    9.88    1.26
   0   5   6   12.11    0.99
  -1  -5  -6    4.28    0.66
  -1  -5  -6    2.83    0.74
   1   5   6    4.27    0.72
  -2  -5  -6   22.85    1.79
   2   5   6   21.29    1.47
  -3  -5  -6   -0.15    0.59
   3   5   6    0.36    0.51
  -4  -5  -6   19.83    1.73
   4   5   6   18.05    1.55
  -5  -5  -6   30.70    2.16
   5   5   6   36.36    2.27
   5   5   6   27.09    2.26
   6   5   6    0.87    0.68
   6   5   6    0.14    0.60
   7   5   6   15.30    1.71
   7   5   6   12.58    1.64
   5  -6  -6   14.69    1.47
   4  -6  -6    0.21    0.50
   3  -6  -6   42.33    2.64
   2  -6  -6   22.27    1.84
   1  -6  -6    7.62    0.60
   1  -6  -6    6.25    1.07
  -1   6   6    7.62    0.73
   0   6   6   41.95    2.05
  -1  -6  -6   11.51    1.41
   1   6   6   14.72    1.25
  -2  -6  -6    3.09    0.86
   2   6   6    6.45    0.95
  -3  -6  -6   54.78    3.10
   3   6   6   47.78    2.59
  -4  -6  -6    0.78    0.65
   4   6   6    1.09    0.80
   4   6   6    1.32    0.75
  -5  -6  -6   -0.36    0.58
   5   6   6    0.39    0.65
   5   6   6    0.08    0.54
   6   6   6    1.78    0.87
   6   6   6    2.47    0.91
   7   6   6   13.12    1.78
   7   6   6   17.99    1.84
   5  -7  -6   10.09    1.37
   4  -7  -6   24.12    2.02
   3  -7  -6    7.41    1.27
   2  -7  -6   17.33    1.71
   1  -7  -6   32.58    2.34
   0  -7  -6   20.34    1.89
   0   7   6   20.58    1.29
  -1  -7  -6   34.04    2.47
   1   7   6   33.84    1.86
  -2  -7  -6    0.97    0.76
   2   7   6    1.50    0.68
  -3  -7  -6    5.35    1.05
   3   7   6    6.95    1.01
  -4  -7  -6   15.44    1.80
   4   7   6   19.89    2.02
   4   7   6   17.18    1.60
  -5  -7  -6   45.28    3.01
   5   7   6   45.25    2.78
   5   7   6   53.26    3.22
   6   7   6    3.59    1.04
   6   7   6    2.39    0.99
   7   7   6   11.25    1.73
   7   7   6   13.00    1.69
   4  -8  -6   10.84    1.46
   3  -8  -6   15.70    1.75
   2  -8  -6    3.42    1.02
   1  -8  -6    2.26    0.83
   0  -8  -6    2.31    0.87
   0   8   6    2.32    0.50
  -1  -8  -6   35.00    2.65
   1   8   6   36.64    1.95
  -2  -8  -6    3.28    1.09
   2   8   6    7.92    1.06
  -3  -8  -6   63.77    3.66
   3   8   6   53.93    2.88
  -4  -8  -6    4.49    1.19
   4   8   6    5.62    1.25
   4   8   6    3.68    0.94
  -5  -8  -6   15.38    1.99
   5   8   6   20.19    1.83
   5   8   6   16.45    1.96
   6   8   6   10.13    1.48
   6   8   6    8.26    1.40
   3  -9  -6   -0.11    0.69
   2  -9  -6    2.94    1.03
   1  -9  -6   11.17    1.69
   0  -9  -6    8.54    1.51
  -1  -9  -6   15.86    1.94
  -2  -9  -6    5.77    1.30
   2   9   6    6.07    0.88
  -3  -9  -6    3.31    1.13
   3   9   6    2.40    1.05
   3   9   6    1.17    0.69
  -4  -9  -6   17.76    2.32
   4   9   6   21.15    1.84
   4   9   6   18.38    2.20
  -5  -9  -6   -0.38    0.92
   5   9   6    0.20    0.75
   5   9   6    0.55    0.93
   2 -10  -6   -0.92    0.73
   1 -10  -6    3.85    1.58
   0 -10  -6    3.30    1.13
  -1 -10  -6    6.01    1.41
  -2 -10  -6   10.97    1.76
  -3 -10  -6    1.74    1.07
  -4 -10  -6    1.48    1.19
   4  10   6    2.38    1.09
   4  10   6    1.14    0.83
   3   7  -7    0.66    1.13
  -3  -7   7    0.53    0.88
   2   7  -7   30.83    2.83
  -2  -7   7   31.01    2.62
   1   7  -7    9.81    1.77
  -1  -7   7    7.29    1.48
   0   7  -7    3.16    1.04
   0  -7   7    4.31    1.21
   1  -7   7   12.86    1.44
   1  -7   7   11.80    1.70
  -2   7  -7    3.82    1.21
   2  -7   7    4.23    0.95
   2  -7   7    2.29    0.97
   3  -7   7   -0.48    0.44
   3  -7   7   -0.79    0.58
   4   6  -7    4.95    1.44
  -4  -6   7    7.62    1.42
   3   6  -7   49.82    3.61
  -3  -6   7   54.16    3.39
   2   6  -7    0.95    0.97
  -2  -6   7    2.53    0.96
   1   6  -7   18.48    2.05
  -1  -6   7   19.52    1.95
   0   6  -7   32.67    2.57
   0  -6   7   33.05    2.19
   0  -6   7   31.21    2.44
  -1   6  -7    1.02    0.75
   1  -6   7    1.72    0.66
  -2   6  -7   20.88    1.98
   2  -6   7   18.38    1.61
  -3   6  -7    0.17    0.77
   3  -6   7    0.92    0.62
  -4   6  -7    1.47    0.85
   4  -6   7    0.02    0.52
   5   5  -7   17.83    2.15
   4   5  -7    8.11    1.49
  -4  -5   7    8.12    1.38
   3   5  -7    5.83    1.37
  -3  -5   7    5.25    1.16
   2   5  -7   66.85    4.10
  -2  -5   7   77.64    4.09
   1   5  -7    4.36    1.13
  -1  -5   7    6.10    1.13
   0   5  -7   13.94    1.61
   0  -5   7   11.66    1.39
  -1   5  -7   23.46    2.03
   1  -5   7   22.38    1.74
  -2   5  -7   12.28    1.55
   2  -5   7   11.93    1.31
  -3   5  -7    5.43    1.19
   3  -5   7    5.52    1.01
  -4   5  -7   26.80    2.12
   4  -5   7   25.32    1.93
  -5   5  -7    2.90    1.00
   5  -5   7    3.13    0.88
   6   4  -7    4.27    1.29
   5   4  -7    0.64    0.78
   4   4  -7   43.08    3.09
  -4  -4   7   41.81    2.77
   3   4  -7   22.58    2.20
  -3  -4   7   24.91    2.01
   2   4  -7    4.22    1.12
  -2  -4   7    2.73    0.83
   1   4  -7   24.97    2.14
  -1  -4   7   29.63    1.98
   0   4  -7   14.22    1.64
   0  -4   7   14.68    1.39
  -1   4  -7    0.85    0.73
   1  -4   7    0.75    0.59
  -2   4  -7   48.44    2.85
  -2   4  -7   48.08    2.85
   2  -4   7   51.76    2.70
  -3   4  -7    9.57    1.38
   3  -4   7    9.34    1.21
  -4   4  -7    1.13    0.74
   4  -4   7    1.92    0.68
  -5   4  -7   32.58    2.32
   5  -4   7   28.34    2.08
  -6   4  -7   25.82    2.18
   6  -4   7   25.82    2.02
   6   3  -7   41.24    3.13
   5   3  -7   19.09    2.08
   4   3  -7    2.82    1.03
  -4  -3   7    2.89    0.80
   3   3  -7   45.73    3.00
  -3  -3   7   44.54    2.79
   2   3  -7   36.96    2.62
   1   3  -7   -0.04    0.66
  -1  -3   7   -0.14    0.51
   0   3  -7   15.24    1.55
   0  -3   7   14.36    1.37
  -1   3  -7   19.93    1.71
   1  -3   7   18.74    1.53
  -2   3  -7    3.40    0.93
  -2   3  -7    3.52    0.90
   2  -3   7    2.76    0.76
  -3   3  -7   26.85    1.86
  -3   3  -7   23.83    1.90
   3  -3   7   30.93    1.92
  -4   3  -7   35.35    2.40
   4  -3   7   37.67    2.28
  -5   3  -7    2.05    0.93
   5  -3   7    2.43    0.76
  -6   3  -7    4.11    1.13
   6  -3   7    7.22    1.21
   6   2  -7   11.09    1.67
   5   2  -7    4.52    1.14
   4   2  -7   35.00    2.58
  -4  -2   7   36.79    2.37
   3   2  -7   17.67    1.82
   2   2  -7   38.40    2.58
   1   2  -7   27.75    2.06
  -1  -2   7   25.94    1.78
   0   2  -7    0.87    0.66
   0  -2   7    1.52    0.59
  -1   2  -7   32.73    2.07
  -1   2  -7   36.17    2.27
   1  -2   7   34.82    2.08
  -2   2  -7   58.18    2.93
  -2   2  -7   47.94    2.69
   2  -2   7   48.88    2.68
  -3   2  -7   -0.27    0.49
  -3   2  -7   -0.68    0.53
   3  -2   7    0.26    0.55
  -4   2  -7    0.56    0.63
   4  -2   7    0.49    0.57
  -5   2  -7   66.80    3.53
   5  -2   7   67.96    3.47
  -6   2  -7    2.15    0.96
   6  -2   7    2.50    0.85
  -7   2  -7   33.60    2.54
   7  -2   7   31.91    2.38
   6   1  -7   28.50    2.38
   5   1  -7   20.68    1.95
   4   1  -7   -0.70    0.53
  -4  -1   7    0.18    0.55
   3   1  -7    6.86    1.20
   2   1  -7   49.80    2.88
  -2  -1   7   46.44    2.56
   1   1  -7    0.80    0.61
  -1  -1   7    0.92    0.60
   0   1  -7    9.28    1.18
   0  -1   7    6.30    0.97
  -1   1  -7   24.83    1.66
  -1   1  -7   24.04    1.81
   1  -1   7   24.10    1.70
  -2   1  -7   -0.09    0.53
  -2   1  -7    1.10    0.56
   2  -1   7    0.09    0.43
  -3   1  -7  131.93    5.62
  -3   1  -7  135.29    5.83
   3  -1   7  130.96    5.56
  -4   1  -7    1.18    0.61
  -4   1  -7    1.00    0.54
   4  -1   7    0.02    0.52
  -5   1  -7   29.38    2.12
   5  -1   7   30.84    2.11
  -6   1  -7    6.93    1.22
   6  -1   7   10.53    1.50
  -7   1  -7    2.62    1.01
   7  -1   7   -0.53    0.60
   6   0  -7    5.03    1.18
   5   0  -7    2.57    0.82
   4   0  -7   17.51    1.71
   3   0  -7   -0.23    0.52
   2   0  -7    0.64    0.56
  -2   0   7    0.92    0.57
   1   0  -7   15.62    1.47
  -1   0   7   13.45    1.31
   0   0  -7   12.47    1.16
   0   0  -7   11.12    1.30
   0   0   7   13.69    1.22
  -1   0  -7   26.53    1.89
  -1   0  -7   25.48    1.66
   1   0   7   28.10    1.72
  -2   0  -7   39.83    2.35
  -2   0  -7   38.35    2.16
   2   0   7   39.14    2.20
  -3   0  -7    0.48    0.51
  -3   0  -7    0.11    0.48
   3   0   7    0.23    0.44
  -4   0  -7   25.06    1.83
  -4   0  -7   24.89    1.71
   4   0   7   25.03    1.81
  -5   0  -7    2.91    0.87
   5   0   7    2.57    0.82
  -6   0  -7   19.65    1.80
   6   0   7   16.52    1.72
  -7   0  -7   17.73    2.01
   7   0   7   15.94    1.80
   6  -1  -7   30.80    2.32
   5  -1  -7    2.20    0.85
   4  -1  -7    2.18    0.74
   3  -1  -7    3.48    0.84
   2  -1  -7    3.28    0.79
  -2   1   7    5.69    0.85
   1  -1  -7    3.20    0.78
  -1   1   7    4.99    0.83
   0  -1  -7   13.07    1.09
   0  -1  -7   14.63    1.41
   0   1   7   16.02    1.30
  -1  -1  -7    5.13    0.89
  -1  -1  -7    4.31    0.71
   1   1   7    3.28    0.71
  -2  -1  -7   52.95    2.64
  -2  -1  -7   55.30    2.90
   2   1   7   49.96    2.65
  -3  -1  -7   17.91    1.42
  -3  -1  -7   16.28    1.45
   3   1   7   15.67    1.38
  -4  -1  -7    1.63    0.65
  -4  -1  -7    0.75    0.55
   4   1   7    1.32    0.58
  -5  -1  -7    4.56    0.99
   5   1   7    6.16    1.08
  -6  -1  -7    3.13    0.95
   6   1   7    2.35    0.81
  -7  -1  -7    0.62    0.98
   7   1   7   -0.51    0.54
   6  -2  -7    1.73    0.81
   5  -2  -7   15.23    1.56
   4  -2  -7    7.50    1.18
   3  -2  -7   -0.04    0.42
   2  -2  -7   47.24    2.72
  -2   2   7   48.51    2.44
   1  -2  -7   13.12    1.37
   1  -2  -7   13.89    1.06
  -1   2   7   15.77    1.28
   0  -2  -7    7.91    1.13
   0  -2  -7   10.17    0.91
   0   2   7    7.91    0.96
  -1  -2  -7   35.27    1.96
  -1  -2  -7   37.94    2.30
   1   2   7   37.76    2.05
  -2  -2  -7    8.33    1.20
  -2  -2  -7    7.99    0.94
   2   2   7    7.11    0.99
  -3  -2  -7   31.58    1.94
  -3  -2  -7   32.07    2.10
   3   2   7   32.22    1.99
  -4  -2  -7    5.22    0.93
  -4  -2  -7    9.12    1.10
   4   2   7    6.75    1.10
  -5  -2  -7    0.28    0.64
  -5  -2  -7    0.95    0.61
   5   2   7    0.41    0.63
  -6  -2  -7    9.89    1.52
   6   2   7    9.12    1.36
   7   2   7    5.68    1.20
   6  -3  -7    2.10    0.89
   5  -3  -7    4.70    0.97
   4  -3  -7    3.02    0.82
   3  -3  -7   23.42    1.81
   3  -3  -7   22.26    1.25
   2  -3  -7    1.51    0.63
   2  -3  -7    1.97    0.41
  -2   3   7    0.95    0.63
   1  -3  -7  107.03    4.32
   1  -3  -7  117.56    5.17
  -1   3   7  105.04    4.44
   0  -3  -7   58.47    2.57
   0  -3  -7   52.43    3.05
   0   3   7   57.29    2.71
  -1  -3  -7    2.55    0.73
  -1  -3  -7    4.21    0.66
   1   3   7    3.57    0.73
  -2  -3  -7   34.72    2.28
  -2  -3  -7   37.19    2.02
   2   3   7   36.28    2.06
  -3  -3  -7    8.59    1.23
  -3  -3  -7   12.41    1.17
   3   3   7   13.26    1.28
  -4  -3  -7    0.09    0.46
  -4  -3  -7    0.13    0.66
   4   3   7    0.03    0.62
  -5  -3  -7    0.99    0.73
  -5  -3  -7    2.59    0.74
   5   3   7    0.55    0.62
  -6  -3  -7   19.29    1.88
   6   3   7   15.62    1.68
   7   3   7    0.92    0.76
   6  -4  -7    3.93    0.99
   5  -4  -7   14.71    1.51
   4  -4  -7    3.30    0.85
   3  -4  -7    8.22    1.21
   3  -4  -7    9.25    0.64
   2  -4  -7   23.48    1.20
   2  -4  -7   23.73    1.86
   1  -4  -7    3.31    0.78
   1  -4  -7    4.56    0.57
  -1   4   7    5.07    0.76
   0  -4  -7    4.22    0.60
   0  -4  -7    2.11    0.68
   0   4   7    5.31    0.85
  -1  -4  -7   39.88    2.50
  -1  -4  -7   39.87    2.05
   1   4   7   41.20    2.11
  -2  -4  -7   17.00    1.55
  -2  -4  -7   14.66    1.19
   2   4   7   16.27    1.34
  -3  -4  -7   17.71    1.47
  -3  -4  -7   19.33    1.70
   3   4   7   21.14    1.62
  -4  -4  -7   47.00    2.79
  -4  -4  -7   45.29    2.60
   4   4   7   42.10    2.59
  -5  -4  -7    2.56    0.81
   5   4   7    0.24    0.67
   6   4   7    4.16    1.06
   7   4   7   12.12    1.65
   5  -5  -7    4.56    1.00
   4  -5  -7    9.60    1.27
   3  -5  -7   16.05    1.59
   2  -5  -7    2.70    0.38
   2  -5  -7    2.86    0.79
   1  -5  -7   41.07    1.87
   1  -5  -7   39.22    2.59
  -1   5   7   43.29    2.05
   0  -5  -7   13.15    0.96
   0  -5  -7   11.60    1.42
   0   5   7   13.52    1.39
  -1  -5  -7    0.29    0.56
  -1  -5  -7   -0.06    0.36
   1   5   7    0.96    0.62
  -2  -5  -7   21.55    1.83
  -2  -5  -7   17.94    1.42
   2   5   7   20.65    1.64
  -3  -5  -7    1.92    0.76
  -3  -5  -7    4.87    0.96
   3   5   7    3.96    0.85
  -4  -5  -7   -0.38    0.66
   4   5   7    0.89    0.62
  -5  -5  -7   17.83    1.76
   5   5   7   17.79    1.74
   6   5   7   11.52    1.56
   7   5   7    4.00    1.09
   5  -6  -7   15.54    1.64
   4  -6  -7   -0.64    0.54
   3  -6  -7    4.19    0.96
   2  -6  -7   28.66    2.18
   1  -6  -7   -0.43    0.53
  -1   6   7   -0.18    0.43
   0  -6  -7   34.19    2.47
   0   6   7   36.74    1.97
  -1  -6  -7   12.30    1.51
   1   6   7    9.93    1.16
  -2  -6  -7    0.37    0.69
   2   6   7   -0.46    0.63
  -3  -6  -7   18.20    1.79
   3   6   7   15.09    1.48
  -4  -6  -7    3.30    1.01
   4   6   7    3.56    0.94
  -5  -6  -7    1.89    0.89
   5   6   7    1.23    0.81
   6   6   7    9.69    1.46
   7   6   7    5.42    1.33
   4  -7  -7   26.05    2.16
   3  -7  -7   14.30    1.63
   2  -7  -7    8.31    1.40
   1  -7  -7   16.54    1.72
  -1   7   7   14.45    1.05
   0  -7  -7   -0.05    0.55
   0   7   7    0.42    0.75
  -1  -7  -7    0.64    0.68
   1   7   7    1.30    0.63
  -2  -7  -7   13.75    1.72
   2   7   7   15.76    1.49
  -3  -7  -7    0.19    0.66
   3   7   7    0.76    0.68
  -4  -7  -7   25.86    2.24
   4   7   7   24.46    1.95
  -5  -7  -7    7.06    1.32
   5   7   7    8.83    1.38
   6   7   7    0.52    0.86
   4  -8  -7   -0.17    0.59
   3  -8  -7    3.99    1.05
   2  -8  -7   14.98    1.80
   1  -8  -7    0.35    0.67
   0  -8  -7   31.22    2.50
   0   8   7   29.23    1.62
  -1  -8  -7    3.93    1.04
   1   8   7    4.70    0.85
  -2  -8  -7    1.52    0.89
   2   8   7    1.10    0.67
  -3  -8  -7    6.85    1.38
   3   8   7    5.68    1.07
  -4  -8  -7    8.10    1.51
   4   8   7   10.34    1.42
  -5  -8  -7    5.21    1.23
   5   8   7    5.71    1.16
   6   8   7    9.59    1.52
   2  -9  -7   15.57    1.94
   1  -9  -7    1.36    0.85
   0  -9  -7    0.63    0.80
  -1  -9  -7    0.66    0.84
  -2  -9  -7   33.07    2.79
   2   9   7   35.30    2.07
  -3  -9  -7   -0.43    0.91
   3   9   7    0.80    0.78
  -4  -9  -7    8.86    1.58
   4   9   7   10.17    1.37
  -5  -9  -7    7.93    1.60
   5   9   7    5.23    1.23
   1 -10  -7    3.15    1.08
   0 -10  -7   16.72    2.13
  -1 -10  -7   -0.62    0.89
  -2 -10  -7    0.84    1.02
  -3 -10  -7   12.27    1.99
   1   7  -8   14.92    2.17
  -1  -7   8   18.28    2.09
   0  -7   8    1.17    0.93
   1  -7   8   13.05    1.83
   1  -7   8   14.44    1.62
   3   6  -8   32.77    2.92
  -3  -6   8   31.61    2.67
   2   6  -8    1.50    1.10
  -2  -6   8    2.43    0.97
   1   6  -8   17.61    2.16
  -1  -6   8   14.71    1.88
   0   6  -8   34.70    2.71
   0  -6   8   32.70    2.60
   0  -6   8   31.27    2.29
   1  -6   8    1.54    0.75
  -2   6  -8    7.28    1.40
   2  -6   8    7.81    1.27
  -3   6  -8    4.89    1.29
   3  -6   8    6.52    1.10
   4   5  -8    2.38    1.14
  -4  -5   8    3.62    1.13
   3   5  -8    0.50    0.84
  -3  -5   8   -0.16    0.89
   2   5  -8   14.85    1.96
  -2  -5   8   13.20    1.78
   1   5  -8   12.11    1.75
   0   5  -8   -0.75    0.64
   0  -5   8   -0.26    0.57
  -1   5  -8   73.08    4.07
   1  -5   8   74.40    3.74
  -2   5  -8    9.01    1.43
   2  -5   8    6.40    1.09
  -3   5  -8   17.70    1.89
   3  -5   8   18.12    1.67
  -4   5  -8   10.03    1.54
   4  -5   8   14.68    1.57
   5   4  -8    1.83    1.05
   4   4  -8    1.83    1.03
  -4  -4   8    2.23    0.90
   3   4  -8   35.77    2.85
  -3  -4   8   36.59    2.64
   2   4  -8    6.27    1.27
   1   4  -8   36.13    2.78
  -1  -4   8   43.61    2.61
   0   4  -8    4.42    1.07
   0  -4   8    5.74    1.05
  -1   4  -8    0.60    0.66
   1  -4   8    1.05    0.69
  -2   4  -8    7.19    1.26
  -2   4  -8    7.69    1.27
   2  -4   8    8.90    1.27
  -3   4  -8    0.35    0.74
   3  -4   8    1.05    0.62
  -4   4  -8   -0.24    0.75
   4  -4   8    0.61    0.62
  -5   4  -8   20.76    2.08
   5  -4   8   23.40    1.94
   5   3  -8   18.16    2.17
   4   3  -8    7.08    1.42
  -4  -3   8    9.93    1.51
   3   3  -8   25.97    2.37
  -3  -3   8   28.33    2.17
   2   3  -8   20.70    2.03
   1   3  -8   -0.04    0.67
  -1  -3   8   -0.10    0.69
   0   3  -8    4.19    0.97
   0  -3   8    2.64    0.85
  -1   3  -8   12.66    1.48
   1  -3   8   12.16    1.37
  -2   3  -8   -0.21    0.59
  -2   3  -8    0.41    0.67
   2  -3   8    0.08    0.66
  -3   3  -8    5.91    1.17
   3  -3   8    7.17    1.20
  -4   3  -8   -0.29    0.69
   4  -3   8    1.25    0.62
  -5   3  -8    0.70    0.94
   5  -3   8    1.39    0.68
  -6   3  -8   13.50    1.85
   6  -3   8   13.75    1.64
   6   2  -8   21.86    2.36
   5   2  -8   -0.36    0.75
   4   2  -8   11.81    1.71
  -4  -2   8   12.51    1.54
   3   2  -8   27.42    2.33
   2   2  -8    2.88    0.90
   1   2  -8   10.60    1.54
  -1  -2   8   12.93    1.47
   0   2  -8    2.02    0.89
   0  -2   8    1.30    0.69
  -1   2  -8    3.22    0.91
  -1   2  -8    2.17    0.88
   1  -2   8    2.21    0.79
  -2   2  -8   14.85    1.52
  -2   2  -8   12.33    1.40
   2  -2   8   14.44    1.46
  -3   2  -8    8.06    1.24
  -3   2  -8    3.49    0.90
   3  -2   8    5.29    1.02
  -4   2  -8   23.10    1.91
   4  -2   8   23.16    1.85
  -5   2  -8    8.03    1.34
   5  -2   8    6.82    1.20
  -6   2  -8   -0.75    0.81
   6  -2   8    0.01    0.60
   6   1  -8    3.59    1.14
   5   1  -8    9.86    1.67
   4   1  -8    5.35    1.14
  -4  -1   8    6.80    1.09
   3   1  -8    6.74    1.22
   2   1  -8   52.76    3.20
  -2  -1   8   53.68    2.94
   1   1  -8    8.70    1.31
  -1  -1   8    8.87    1.22
   0   1  -8   18.58    1.70
   0  -1   8   14.89    1.55
  -1   1  -8   38.77    2.50
  -1   1  -8   38.18    2.28
   1  -1   8   41.41    2.40
  -2   1  -8   45.62    2.59
  -2   1  -8   44.83    2.71
   2  -1   8   43.36    2.50
  -3   1  -8    0.59    0.66
  -3   1  -8    1.27    0.68
   3  -1   8    0.72    0.57
  -4   1  -8    2.45    0.86
   4  -1   8    1.87    0.72
  -5   1  -8   12.55    1.52
   5  -1   8   13.36    1.52
  -6   1  -8   51.11    3.11
   6  -1   8   42.91    2.90
   6   0  -8   10.46    1.62
   5   0  -8    2.69    0.94
   4   0  -8   18.98    1.85
   3   0  -8   10.22    1.45
   2   0  -8   41.87    2.74
  -2   0   8   41.17    2.49
   1   0  -8   16.86    1.66
  -1   0   8   15.31    1.58
   0   0  -8    8.51    1.07
   0   0  -8   12.49    1.44
   0   0   8    9.58    1.33
  -1   0  -8   15.62    1.57
  -1   0  -8   14.87    1.34
   1   0   8   14.78    1.43
  -2   0  -8   68.68    3.61
  -2   0  -8   67.93    3.34
   2   0   8   69.38    3.40
  -3   0  -8   63.66    3.40
  -3   0  -8   66.41    3.33
   3   0   8   64.64    3.29
  -4   0  -8   34.80    2.23
  -4   0  -8   35.69    2.37
   4   0   8   40.23    2.43
  -5   0  -8   54.70    3.10
   5   0   8   50.86    3.02
  -6   0  -8    0.54    0.83
   6   0   8   -0.33    0.59
  -7   0  -8    6.13    1.42
   7   0   8    7.43    1.43
   6  -1  -8   34.88    2.65
   5  -1  -8   32.43    2.47
   4  -1  -8   20.31    1.88
   3  -1  -8   23.04    1.96
   2  -1  -8    1.04    0.71
  -2   1   8    1.72    0.74
   1  -1  -8    3.78    0.78
   1  -1  -8    6.82    1.16
  -1   1   8    4.52    1.09
   0  -1  -8   29.53    2.19
   0  -1  -8   33.41    1.88
   0   1   8   30.76    1.97
  -1  -1  -8   42.83    2.67
  -1  -1  -8   45.47    2.38
   1   1   8   43.25    2.41
  -2  -1  -8   13.16    1.27
  -2  -1  -8   12.71    1.45
   2   1   8   12.25    1.36
  -3  -1  -8   65.72    3.52
  -3  -1  -8   66.33    3.36
   3   1   8   69.24    3.37
  -4  -1  -8   40.40    2.46
  -4  -1  -8   37.39    2.38
   4   1   8   40.26    2.48
  -5  -1  -8   -0.12    0.73
   5   1   8    1.15    0.66
  -6  -1  -8   39.64    2.72
   6   1   8   41.09    2.73
  -7  -1  -8    3.43    1.25
   7   1   8    2.84    1.01
   6  -2  -8    7.39    1.41
   5  -2  -8   18.62    1.87
   4  -2  -8    2.78    0.86
   3  -2  -8    9.29    1.32
   2  -2  -8   42.38    2.17
   2  -2  -8   43.60    2.65
  -2   2   8   38.02    2.33
   1  -2  -8   54.31    2.53
   1  -2  -8   52.29    3.03
  -1   2   8   47.02    2.71
   0  -2  -8    8.18    0.95
   0  -2  -8    9.32    1.32
   0   2   8    6.82    1.02
  -1  -2  -8   98.37    4.66
  -1  -2  -8   95.18    4.12
   1   2   8   89.38    4.10
  -2  -2  -8   96.67    4.12
  -2  -2  -8   86.02    4.43
   2   2   8   87.69    4.07
  -3  -2  -8   10.75    1.26
  -3  -2  -8   11.27    1.41
   3   2   8   11.13    1.27
  -4  -2  -8   36.25    2.32
  -4  -2  -8   34.93    2.35
   4   2   8   39.39    2.40
  -5  -2  -8    1.84    0.79
   5   2   8    2.05    0.80
  -6  -2  -8    0.01    0.78
   6   2   8    0.04    0.70
  -7  -2  -8    4.00    1.34
   7   2   8    4.50    1.12
   6  -3  -8    4.44    1.11
   5  -3  -8   12.81    1.64
   4  -3  -8    0.10    0.56
   3  -3  -8   31.01    1.66
   3  -3  -8   32.61    2.30
   2  -3  -8   25.83    2.03
   2  -3  -8   23.43    1.44
  -2   3   8   24.28    1.79
   1  -3  -8   52.86    3.12
   1  -3  -8   54.64    2.54
  -1   3   8   56.20    2.74
   0  -3  -8   77.66    3.86
   0  -3  -8   71.74    3.21
   0   3   8   67.51    3.42
  -1  -3  -8    4.11    0.95
  -1  -3  -8    2.50    0.66
   1   3   8    4.53    0.91
  -2  -3  -8   52.51    2.73
  -2  -3  -8   55.46    3.12
   2   3   8   55.15    2.91
  -3  -3  -8   27.62    1.97
  -3  -3  -8   37.07    2.43
   3   3   8   36.25    2.24
  -4  -3  -8    3.54    0.90
  -4  -3  -8    4.70    0.99
   4   3   8    4.95    0.98
  -5  -3  -8   12.35    1.52
   5   3   8   10.60    1.52
  -6  -3  -8   15.31    1.79
   6   3   8   11.80    1.64
   7   3   8    9.11    1.53
   5  -4  -8   15.23    1.72
   4  -4  -8   12.09    1.47
   3  -4  -8    0.05    0.53
   3  -4  -8    0.53    0.26
   2  -4  -8   25.62    2.05
   2  -4  -8   24.76    1.36
  -2   4   8   26.27    1.69
   1  -4  -8   18.12    1.78
   1  -4  -8   19.93    1.22
  -1   4   8   16.74    1.48
   0  -4  -8    1.96    0.76
   0  -4  -8    2.70    0.59
   0   4   8    2.19    0.71
  -1  -4  -8   27.57    2.13
  -1  -4  -8   26.34    1.63
   1   4   8   22.59    1.79
  -2  -4  -8   15.65    1.33
  -2  -4  -8   17.01    1.72
   2   4   8   15.90    1.47
  -3  -4  -8   22.92    1.77
  -3  -4  -8   26.43    2.12
   3   4   8   29.55    2.05
  -4  -4  -8   15.19    1.65
  -4  -4  -8   11.27    1.37
   4   4   8   15.76    1.56
  -5  -4  -8   -0.86    0.65
  -5  -4  -8    0.33    0.69
   5   4   8   -0.78    0.70
   6   4   8    7.90    1.35
   7   4   8    9.99    1.65
   5  -5  -8    0.18    0.69
   4  -5  -8   11.54    1.50
   3  -5  -8   10.10    1.39
   2  -5  -8    2.35    0.40
   2  -5  -8    0.32    0.59
   1  -5  -8   13.32    0.97
   1  -5  -8   13.01    1.59
  -1   5   8   11.85    1.21
   0  -5  -8   15.74    1.12
   0  -5  -8   10.63    1.57
   0   5   8   15.01    1.45
  -1  -5  -8   -0.15    0.74
  -1  -5  -8    0.04    0.43
   1   5   8   -0.77    0.66
  -2  -5  -8   10.41    1.50
  -2  -5  -8    9.17    1.11
   2   5   8   11.63    1.42
  -3  -5  -8    7.87    1.13
  -3  -5  -8    6.99    1.24
   3   5   8    7.41    1.14
  -4  -5  -8    8.72    1.35
  -4  -5  -8    7.77    1.21
   4   5   8    7.67    1.29
  -5  -5  -8    9.72    1.48
   5   5   8    8.24    1.31
   6   5   8    0.76    0.78
   7   5   8    2.11    1.03
   4  -6  -8    3.92    1.03
   3  -6  -8   -0.03    0.57
   2  -6  -8   24.84    2.16
   1  -6  -8    2.51    0.85
  -1   6   8    0.59    0.60
   0  -6  -8   19.53    1.95
   0   6   8   21.76    1.69
  -1  -6  -8   29.55    2.34
   1   6   8   26.09    1.81
  -2  -6  -8   13.99    1.72
   2   6   8   12.36    1.54
  -3  -6  -8   13.15    1.71
   3   6   8   11.93    1.47
  -4  -6  -8    1.00    0.86
   4   6   8    0.41    0.78
  -5  -6  -8   -1.24    0.65
   5   6   8   -0.74    0.67
   6   6   8    3.28    1.14
   4  -7  -8    9.96    1.56
   3  -7  -8   14.95    1.78
   2  -7  -8    1.79    0.91
   1  -7  -8   33.10    2.59
  -1   7   8   34.86    1.83
   0  -7  -8   -0.06    0.57
   0   7   8   -0.22    0.66
  -1  -7  -8    1.26    0.87
   1   7   8    3.02    0.88
  -2  -7  -8   10.78    1.69
   2   7   8   10.07    1.40
  -3  -7  -8   -0.14    0.68
   3   7   8    0.41    0.65
  -4  -7  -8    3.66    1.07
   4   7   8    6.24    1.19
  -5  -7  -8    2.91    1.08
   5   7   8    1.71    0.98
   6   7   8    5.37    1.28
   3  -8  -8   12.31    1.76
   2  -8  -8    8.36    1.50
   1  -8  -8    1.30    0.86
   0  -8  -8   11.24    1.74
  -1  -8  -8    2.69    1.07
   1   8   8    2.34    0.78
  -2  -8  -8    1.69    0.94
   2   8   8    2.66    0.83
  -3  -8  -8    4.93    1.25
   3   8   8    6.99    1.13
  -4  -8  -8   15.49    2.04
   4   8   8   12.94    1.79
  -5  -8  -8   -0.23    0.88
   5   8   8   -0.64    0.78
   2  -9  -8    1.42    0.97
   1  -9  -8    3.26    1.08
   0  -9  -8    1.17    0.98
  -1  -9  -8    4.51    1.32
  -2  -9  -8   14.75    2.01
  -3  -9  -8    0.80    0.95
   3   9   8    0.23    0.77
  -4  -9  -8   11.87    1.85
   4   9   8   15.92    1.78
  -1 -10  -8    0.11    1.00
  -1  -6   9   10.78    1.76
   0  -6   9   34.63    2.80
   1  -6   9    6.43    1.25
   3   5  -9    0.94    0.99
  -3  -5   9    0.58    0.78
   2   5  -9    7.07    1.46
  -2  -5   9    4.62    1.27
   1   5  -9   18.76    2.19
   0   5  -9    1.22    0.88
   0  -5   9    0.41    0.81
   1  -5   9   33.12    2.40
  -2   5  -9   20.00    2.07
   2  -5   9   21.05    1.88
  -3   5  -9   -0.25    0.91
   3  -5   9   -0.03    0.69
   4   4  -9    2.70    1.19
  -4  -4   9    1.17    0.93
   3   4  -9   24.70    2.47
  -3  -4   9   20.43    2.18
   2   4  -9    1.33    1.02
   1   4  -9    1.71    0.89
  -1  -4   9    0.88    0.83
   0   4  -9   31.32    2.54
   0  -4   9   31.34    2.27
  -1   4  -9   12.10    1.77
  -1   4  -9   15.82    1.81
   1  -4   9   14.15    1.56
  -2   4  -9    9.33    1.56
   2  -4   9    6.58    1.20
  -3   4  -9    6.48    1.33
   3  -4   9    5.64    1.18
  -4   4  -9    4.54    1.23
   4  -4   9    3.92    1.01
   4   3  -9    6.22    1.43
  -4  -3   9    4.90    1.17
   3   3  -9   -0.62    0.62
  -3  -3   9    0.33    0.67
   2   3  -9   61.17    3.79
   1   3  -9   15.81    1.83
  -1  -3   9   10.83    1.53
   0   3  -9   11.44    1.65
   0  -3   9    7.94    1.27
  -1   3  -9   32.41    2.43
  -1   3  -9   29.10    2.29
   1  -3   9   32.05    2.24
  -2   3  -9    4.31    1.10
  -2   3  -9    6.18    1.20
   2  -3   9    4.26    1.00
  -3   3  -9    0.38    0.75
   3  -3   9   -0.44    0.54
  -4   3  -9    1.90    1.02
   4  -3   9    2.28    0.86
  -5   3  -9   11.08    1.75
   5  -3   9   10.45    1.43
   5   2  -9    2.31    1.09
   4   2  -9   38.89    3.02
  -4  -2   9   37.85    2.76
   3   2  -9   41.09    2.99
   2   2  -9    0.87    0.86
   1   2  -9   25.41    2.24
  -1  -2   9   24.98    2.02
   0   2  -9   23.01    2.07
   0  -2   9   19.89    1.94
  -1   2  -9    0.14    0.61
  -1   2  -9    0.20    0.67
   1  -2   9   -0.11    0.72
  -2   2  -9   37.13    2.46
  -2   2  -9   35.37    2.54
   2  -2   9   37.19    2.46
  -3   2  -9   15.16    1.64
   3  -2   9   14.17    1.52
  -4   2  -9    4.19    1.09
   4  -2   9    2.43    0.88
  -5   2  -9   30.55    2.48
   5  -2   9   33.56    2.43
   5   1  -9    5.62    1.30
   4   1  -9    3.10    1.06
   3   1  -9   17.17    1.95
   2   1  -9   69.26    3.96
  -2  -1   9   68.30    3.59
   1   1  -9   12.03    1.57
  -1  -1   9    8.61    1.48
   0   1  -9   24.40    2.07
   0   1  -9   21.48    1.85
   0  -1   9   24.13    1.86
  -1   1  -9   40.40    2.80
  -1   1  -9   48.46    2.68
   1  -1   9   46.07    2.69
  -2   1  -9    1.63    0.80
  -2   1  -9    0.43    0.70
   2  -1   9    0.07    0.76
  -3   1  -9   31.34    2.31
  -3   1  -9   32.30    2.29
   3  -1   9   34.41    2.30
  -4   1  -9   24.50    2.09
   4  -1   9   30.02    2.16
  -5   1  -9   10.41    1.54
   5  -1   9    9.53    1.54
  -6   1  -9   13.31    1.81
   6  -1   9   13.45    1.77
   5   0  -9    3.29    1.13
   4   0  -9   15.69    1.89
   3   0  -9   13.39    1.68
   2   0  -9    5.26    1.12
  -2   0   9    8.38    1.31
   1   0  -9   24.92    2.14
  -1   0   9   20.47    1.83
   0   0  -9   22.93    1.73
   0   0  -9   26.02    2.12
   0   0   9   21.47    1.81
  -1   0  -9   42.64    2.78
  -1   0  -9   41.34    2.48
   1   0   9   46.88    2.63
  -2   0  -9   44.82    2.79
  -2   0  -9   41.60    2.53
   2   0   9   43.53    2.57
  -3   0  -9    9.77    1.39
  -3   0  -9    7.01    1.17
   3   0   9    7.92    1.38
  -4   0  -9    0.03    0.72
   4   0   9    0.66    0.74
  -5   0  -9   23.46    2.09
   5   0   9   22.88    2.01
  -6   0  -9    2.71    1.04
   6   0   9    4.72    1.15
   5  -1  -9   23.77    2.29
   4  -1  -9    4.08    1.13
   3  -1  -9   48.97    3.19
   2  -1  -9   51.76    3.13
  -2   1   9   44.29    2.84
   1  -1  -9   58.54    3.44
   1  -1  -9   57.29    2.92
  -1   1   9   59.64    3.10
   0  -1  -9    1.20    0.79
   0  -1  -9    1.06    0.64
   0   1   9    1.31    0.89
  -1  -1  -9   19.78    1.62
  -1  -1  -9   22.03    1.99
   1   1   9   17.48    1.73
  -2  -1  -9    5.25    0.97
  -2  -1  -9    6.57    1.21
   2   1   9    3.80    0.89
  -3  -1  -9   14.45    1.55
  -3  -1  -9   17.48    1.73
   3   1   9   17.08    1.71
  -4  -1  -9   15.23    1.59
  -4  -1  -9   13.18    1.58
   4   1   9   15.38    1.70
  -5  -1  -9   10.82    1.51
   5   1   9    8.30    1.38
  -6  -1  -9   29.94    2.44
   6   1   9   26.50    2.30
   5  -2  -9   15.88    1.93
   4  -2  -9   35.19    2.66
   3  -2  -9   19.46    1.98
   2  -2  -9    0.11    0.66
   2  -2  -9    0.43    0.54
  -2   2   9   -0.58    0.91
   1  -2  -9    0.78    0.51
   1  -2  -9   -1.02    0.52
  -1   2   9   -0.55    0.61
   0  -2  -9   12.24    1.64
   0  -2  -9   13.68    1.26
   0   2   9   11.30    1.55
  -1  -2  -9   23.17    1.66
  -1  -2  -9   23.16    2.06
   1   2   9   21.26    1.89
  -2  -2  -9   16.73    1.48
  -2  -2  -9   14.93    1.74
   2   2   9   13.24    1.52
  -3  -2  -9    8.77    1.36
  -3  -2  -9    7.31    1.17
   3   2   9    8.70    1.32
  -4  -2  -9   13.03    1.49
  -4  -2  -9   11.06    1.59
   4   2   9   16.35    1.64
  -5  -2  -9    1.62    0.94
   5   2   9    2.32    0.91
  -6  -2  -9    8.41    1.51
   6   2   9    5.42    1.29
   5  -3  -9   -0.29    0.75
   4  -3  -9    6.27    1.25
   3  -3  -9    0.58    0.44
   3  -3  -9   -0.36    0.57
   2  -3  -9    6.29    0.89
   2  -3  -9    7.63    1.25
  -2   3   9    7.34    1.16
   1  -3  -9    1.46    0.80
   1  -3  -9    0.75    0.49
  -1   3   9    1.01    0.73
   0  -3  -9    3.45    0.73
   0  -3  -9    3.02    0.95
   0   3   9    2.19    0.83
  -1  -3  -9    5.04    1.12
  -1  -3  -9    4.72    0.91
   1   3   9    5.06    1.02
  -2  -3  -9   25.12    1.82
  -2  -3  -9   28.88    2.23
   2   3   9   22.28    1.86
  -3  -3  -9   30.22    2.11
  -3  -3  -9   30.86    2.37
   3   3   9   37.68    2.42
  -4  -3  -9   -0.15    0.78
  -4  -3  -9   -0.15    0.58
   4   3   9    1.16    0.79
  -5  -3  -9   13.19    1.60
   5   3   9    7.93    1.44
  -6  -3  -9    2.28    1.19
   6   3   9    0.00    0.77
   5  -4  -9    1.94    0.93
   4  -4  -9    3.91    1.11
   3  -4  -9    2.42    0.95
   2  -4  -9    8.96    1.42
   2  -4  -9    7.58    0.82
  -2   4   9    5.73    1.10
   1  -4  -9   12.54    1.63
   1  -4  -9    9.08    0.95
  -1   4   9   13.75    1.68
   0  -4  -9    2.89    0.95
   0  -4  -9    2.40    0.62
   0   4   9    1.36    0.74
  -1  -4  -9   12.41    1.68
  -1  -4  -9   13.41    1.24
   1   4   9   13.26    1.41
  -2  -4  -9    2.36    0.75
  -2  -4  -9    1.42    0.85
   2   4   9    2.65    0.85
  -3  -4  -9    0.10    0.61
  -3  -4  -9    1.56    0.87
   3   4   9    0.69    0.91
  -4  -4  -9    4.78    1.14
  -4  -4  -9    3.09    0.86
   4   4   9    3.04    0.98
  -5  -4  -9   33.00    2.48
   5   4   9   32.83    2.41
  -6  -4  -9    6.73    1.48
   6   4   9    4.43    1.15
   4  -5  -9    6.42    1.33
   3  -5  -9    3.68    1.04
   2  -5  -9    6.63    1.28
   1  -5  -9   11.49    1.64
   1  -5  -9   11.65    0.98
  -1   5   9   10.43    1.36
   0  -5  -9    5.06    0.83
   0  -5  -9    6.13    1.19
   0   5   9    6.16    1.12
  -1  -5  -9   16.40    1.92
  -1  -5  -9   18.68    1.41
   1   5   9   15.52    1.81
  -2  -5  -9    9.86    1.18
  -2  -5  -9   12.87    1.75
   2   5   9   11.72    1.51
  -3  -5  -9   59.86    3.22
  -3  -5  -9   56.71    3.59
   3   5   9   62.57    3.29
  -4  -5  -9   -1.25    0.65
  -4  -5  -9    0.52    0.78
   4   5   9    0.17    0.78
   5   5   9    4.71    1.14
   6   5   9    6.78    1.41
   4  -6  -9    1.95    0.89
   3  -6  -9    0.68    0.75
   2  -6  -9   16.17    1.87
   1  -6  -9   14.50    1.85
   1  -6  -9   15.51    1.14
  -1   6   9   18.01    1.43
   0  -6  -9    6.23    1.29
   0  -6  -9    6.82    0.91
   0   6   9    7.41    1.10
  -1  -6  -9   51.75    2.70
  -1  -6  -9   54.63    3.50
   1   6   9   54.75    2.87
  -2  -6  -9    6.23    1.34
  -2  -6  -9    4.93    0.96
   2   6   9    4.70    1.02
  -3  -6  -9   13.25    1.87
   3   6   9   15.98    1.66
  -4  -6  -9   20.84    2.07
   4   6   9   16.15    1.80
   5   6   9    0.94    1.00
   6   6   9   -0.46    0.87
   3  -7  -9   20.09    2.12
   2  -7  -9    2.28    1.01
   1  -7  -9   36.48    2.79
  -1   7   9   34.76    2.02
   0  -7  -9   41.15    3.05
   0   7   9   39.25    2.22
  -1  -7  -9    1.99    0.96
   1   7   9   -0.02    0.69
  -2  -7  -9   38.35    2.92
   2   7   9   36.92    2.37
  -3  -7  -9    1.05    0.86
   3   7   9    3.32    0.95
  -4  -7  -9   -0.90    0.83
   4   7   9    1.10    0.96
   5   7   9    8.25    1.45
   2  -8  -9   25.42    2.42
   1  -8  -9   -0.50    0.67
   0  -8  -9    9.60    1.61
  -1  -8  -9   15.27    2.05
   1   8   9   11.85    1.53
  -2  -8  -9    1.98    1.06
   2   8   9    3.43    1.02
  -3  -8  -9   11.16    1.79
   3   8   9   16.05    1.82
  -4  -8  -9   -0.39    0.83
   4   8   9    0.30    0.79
   0  -9  -9    1.71    1.04
  -1  -9  -9    0.94    1.07
  -2  -9  -9    0.00    0.89
  -3  -9  -9    0.56    1.01
   3   9   9    0.81    0.93
   2   4 -10   -0.61    0.87
   1   4 -10    1.59    1.02
  -1  -4  10    2.07    1.08
   0   4 -10   22.84    2.33
   0  -4  10   22.61    2.11
  -1   4 -10    4.60    1.25
   1  -4  10    6.38    1.29
  -2   4 -10    9.40    1.73
   2  -4  10    5.57    1.18
   3   3 -10    0.54    1.01
  -3  -3  10    0.90    0.89
   2   3 -10   24.80    2.47
   1   3 -10    0.90    0.89
  -1  -3  10    1.46    0.95
   0   3 -10   11.50    1.78
   0  -3  10   11.35    1.55
  -1   3 -10   44.10    2.96
  -1   3 -10   45.93    3.14
   1  -3  10   43.76    2.80
  -2   3 -10    0.29    0.89
   2  -3  10    0.09    0.68
  -3   3 -10    1.37    0.96
   3  -3  10    0.66    0.68
   4  -3  10    7.02    1.37
   4   2 -10    1.47    1.10
   3   2 -10   13.62    2.09
   2   2 -10   -0.22    0.83
   1   2 -10   18.86    2.10
  -1  -2  10   17.05    1.83
   0   2 -10   15.79    1.90
   0   2 -10   14.06    1.68
   0  -2  10   13.33    1.64
  -1   2 -10    1.89    0.93
  -1   2 -10    0.35    0.72
   1  -2  10   -0.67    0.61
  -2   2 -10   33.13    2.53
  -2   2 -10   29.42    2.38
   2  -2  10   34.96    2.42
  -3   2 -10    0.19    0.86
   3  -2  10    1.71    0.88
  -4   2 -10    2.69    1.09
   4  -2  10    2.31    0.92
   4   1 -10    5.17    1.39
   3   1 -10    4.24    1.21
   2   1 -10   15.29    1.94
   1   1 -10   10.91    1.73
  -1  -1  10   12.56    1.60
   0   1 -10    6.73    1.41
   0   1 -10    7.14    1.26
   0  -1  10    7.28    1.25
  -1   1 -10   17.09    1.72
  -1   1 -10   20.22    2.01
   1  -1  10   19.33    1.84
  -2   1 -10    3.91    1.03
  -2   1 -10    4.26    1.17
   2  -1  10    4.53    1.03
  -3   1 -10   -0.02    0.72
   3  -1  10    1.35    0.85
  -4   1 -10    6.44    1.30
   4  -1  10    6.48    1.26
  -5   1 -10    0.95    0.94
   5  -1  10   -0.69    0.71
   4   0 -10    1.12    0.96
   3   0 -10   13.68    1.89
   2   0 -10    0.73    0.75
  -2   0  10    0.24    0.67
   1   0 -10    8.60    1.23
   1   0 -10    5.54    1.27
  -1   0  10    8.45    1.36
   0   0 -10   12.07    1.73
   0   0 -10   13.99    1.48
   0   0  10   13.99    1.66
  -1   0 -10   -0.12    0.74
  -1   0 -10    2.48    0.84
   1   0  10    0.13    0.85
  -2   0 -10    6.89    1.21
  -2   0 -10    9.81    1.48
   2   0  10    6.67    1.26
  -3   0 -10    5.98    1.18
  -3   0 -10    4.36    1.10
   3   0  10    4.10    1.02
  -4   0 -10    0.15    0.77
   4   0  10    1.53    0.87
  -5   0 -10    8.90    1.51
   5   0  10   10.78    1.64
   4  -1 -10    1.77    0.93
   3  -1 -10   17.46    2.03
   2  -1 -10   24.59    1.84
   2  -1 -10   18.52    2.08
  -2   1  10   23.40    2.00
   1  -1 -10    1.64    0.98
   1  -1 -10    0.47    0.73
  -1   1  10    2.40    0.91
   0  -1 -10   -0.84    0.62
   0  -1 -10    1.37    0.67
   0   1  10    0.01    0.74
  -1  -1 -10   18.14    1.65
  -1  -1 -10   24.59    2.18
   1   1  10   21.88    1.91
  -2  -1 -10    0.22    0.67
  -2  -1 -10   -0.49    0.67
   2   1  10    1.37    0.93
  -3  -1 -10    0.80    0.80
  -3  -1 -10    3.72    1.01
   3   1  10    1.03    0.81
  -4  -1 -10   11.66    1.56
   4   1  10   11.66    1.60
  -5  -1 -10   -1.10    0.76
   5   1  10    0.79    0.87
   4  -2 -10   11.79    2.56
   3  -2 -10   30.42    1.97
   3  -2 -10   31.33    2.57
   2  -2 -10   13.79    1.83
   2  -2 -10   12.58    1.27
  -2   2  10   16.39    1.69
   1  -2 -10   58.78    3.07
   1  -2 -10   62.42    3.77
  -1   2  10   62.93    3.34
   0  -2 -10    0.07    0.56
   0  -2 -10    0.32    0.80
   0   2  10    0.10    0.78
  -1  -2 -10    3.35    0.85
  -1  -2 -10    2.51    1.00
   1   2  10    4.89    1.10
  -2  -2 -10   27.06    2.04
  -2  -2 -10   31.58    2.50
   2   2  10   30.39    2.26
  -3  -2 -10    8.18    1.28
  -3  -2 -10    8.12    1.42
   3   2  10    9.19    1.48
  -4  -2 -10    4.83    1.14
   4   2  10    6.61    1.26
  -5  -2 -10   27.89    2.34
   5   2  10   21.90    2.21
  -6  -2 -10   -0.13    1.00
   6   2  10   -0.24    0.82
   4  -3 -10    1.79    0.94
   3  -3 -10   33.53    2.02
   3  -3 -10   41.86    2.90
   2  -3 -10    4.76    0.85
   2  -3 -10    3.70    1.07
  -2   3  10    5.51    1.13
   1  -3 -10    4.12    0.83
   1  -3 -10    3.16    1.05
  -1   3  10    6.85    1.19
   0  -3 -10   25.96    2.38
   0  -3 -10   27.09    1.82
   0   3  10   26.72    2.12
  -1  -3 -10   38.08    2.83
  -1  -3 -10   37.11    2.32
   1   3  10   39.97    2.59
  -2  -3 -10    8.47    1.50
  -2  -3 -10    7.97    1.16
   2   3  10    8.33    1.42
  -3  -3 -10   47.67    3.22
  -3  -3 -10   53.09    3.00
   3   3  10   48.21    2.94
  -4  -3 -10   17.82    1.81
  -4  -3 -10   16.27    1.87
   4   3  10   13.00    1.72
  -5  -3 -10    5.67    1.27
   5   3  10    7.49    1.47
  -6  -3 -10   15.06    2.19
   6   3  10   16.08    1.98
   4  -4 -10    9.03    1.55
   3  -4 -10    8.17    1.52
   2  -4 -10   32.83    1.89
   2  -4 -10   40.76    2.83
  -2   4  10   31.37    2.20
   1  -4 -10   23.07    1.56
   1  -4 -10   20.74    2.18
  -1   4  10   24.38    1.88
   0  -4 -10    1.07    0.90
   0  -4 -10    1.11    0.58
   0   4  10    0.05    0.81
  -1  -4 -10   12.49    1.83
  -1  -4 -10   14.72    1.37
   1   4  10   11.73    1.57
  -2  -4 -10   20.70    2.22
  -2  -4 -10   25.25    1.83
   2   4  10   23.22    2.02
  -3  -4 -10    0.07    0.72
  -3  -4 -10    1.18    0.87
   3   4  10    1.45    0.89
  -4  -4 -10   14.05    1.91
  -4  -4 -10   17.07    1.82
   4   4  10   16.97    1.82
  -5  -4 -10   12.26    1.83
   5   4  10   13.91    1.92
   3  -5 -10   14.20    2.04
   2  -5 -10    2.77    0.97
   1  -5 -10    9.69    1.04
   1  -5 -10    9.18    1.53
  -1   5  10    9.23    1.28
   0  -5 -10   13.85    1.94
   0  -5 -10   16.72    1.37
   0   5  10   18.54    1.70
  -1  -5 -10    0.47    0.60
  -1  -5 -10    0.67    0.86
   1   5  10   -0.12    0.77
  -2  -5 -10   15.58    2.06
  -2  -5 -10   24.57    1.78
   2   5  10   18.91    1.88
  -3  -5 -10    5.34    1.07
  -3  -5 -10    4.46    1.19
   3   5  10    3.79    1.15
  -4  -5 -10    5.67    1.21
  -4  -5 -10    7.11    1.41
   4   5  10    3.55    1.13
  -5  -5 -10    2.54    1.15
   5   5  10    1.62    0.97
   3  -6 -10    0.43    0.86
   2  -6 -10   18.23    2.16
   1  -6 -10   -0.35    0.82
  -1   6  10   -0.33    0.68
   0  -6 -10    0.32    0.84
   0  -6 -10    1.17    0.64
   0   6  10    1.61    0.84
  -1  -6 -10    0.64    0.69
  -1  -6 -10    0.57    0.91
   1   6  10    0.70    0.82
  -2  -6 -10   11.84    1.82
  -2  -6 -10    9.59    1.28
   2   6  10    8.61    1.37
  -3  -6 -10    8.54    1.63
  -3  -6 -10   10.97    1.49
   3   6  10   10.33    1.53
  -4  -6 -10   19.09    2.20
   4   6  10   17.72    2.07
   5   6  10   -0.17    0.94
   2  -7 -10   -0.17    0.76
   1  -7 -10    1.40    1.02
   0  -7 -10   19.68    2.28
   0   7  10   18.74    1.74
  -1  -7 -10    0.19    0.85
   1   7  10   -0.65    0.88
  -2  -7 -10   16.04    2.22
   2   7  10   21.19    2.07
  -3  -7 -10    1.25    1.01
   3   7  10    2.13    1.07
  -4  -7 -10    5.24    1.44
   4   7  10    5.58    1.35
   0  -8 -10    2.13    1.06
  -1  -8 -10    8.36    1.65
   1   8  10    8.54    1.36
  -2  -8 -10    1.43    1.08
   2   8  10    1.53    0.92
  -3  -8 -10    3.71    1.25
   3   8  10    4.29    1.22
   1   3 -11    8.43    1.62
  -1  -3  11    8.70    1.51
   0   3 -11    0.14    1.00
   0   3 -11    1.04    0.96
   0  -3  11    1.27    0.85
  -1   3 -11   10.33    1.70
  -1   3 -11    9.68    1.76
   1  -3  11    9.52    1.55
   2   2 -11    5.47    1.47
   1   2 -11    0.27    0.91
  -1  -2  11    1.15    0.94
   0   2 -11   35.76    2.67
   0   2 -11   35.58    2.93
   0  -2  11   39.44    2.77
  -1   2 -11    6.70    1.38
  -1   2 -11    6.62    1.42
   1  -2  11    5.62    1.26
  -2   2 -11    9.59    1.63
   2  -2  11   12.34    1.71
  -3   2 -11    1.73    1.12
   3  -2  11    4.76    1.25
   3   1 -11   -1.04    0.81
   2   1 -11   14.69    2.19
   1   1 -11    9.91    1.52
   1   1 -11    9.11    1.61
  -1  -1  11   10.36    1.65
   0   1 -11   -0.82    0.78
   0   1 -11    0.64    0.90
   0  -1  11    0.49    0.84
  -1   1 -11   44.22    2.87
  -1   1 -11   40.93    3.09
   1  -1  11   43.75    2.87
  -2   1 -11   26.18    2.23
  -2   1 -11   28.62    2.50
   2  -1  11   29.34    2.41
  -3   1 -11    8.44    1.45
   3  -1  11   10.80    1.65
  -4   1 -11   14.87    1.90
   4  -1  11   13.51    1.79
   3   0 -11   14.06    1.99
   2   0 -11    4.14    1.07
   2   0 -11    4.40    1.32
  -2   0  11    2.31    1.02
   1   0 -11   24.48    2.38
   1   0 -11   23.95    1.98
  -1   0  11   21.46    2.05
   0   0 -11   33.93    2.69
   0   0 -11   25.86    2.18
   0   0  11   31.16    2.37
  -1   0 -11    4.95    1.23
  -1   0 -11    5.52    1.12
   1   0  11    3.76    1.15
  -2   0 -11   17.05    1.85
  -2   0 -11   18.26    2.13
   2   0  11   23.25    2.05
  -3   0 -11    5.62    1.32
   3   0  11    4.41    1.21
  -4   0 -11    1.24    1.01
   4   0  11    2.18    1.00
   3  -1 -11   24.13    2.04
   3  -1 -11   30.32    2.68
   2  -1 -11   35.15    2.39
   2  -1 -11   40.20    3.05
  -2   1  11   38.10    2.72
   1  -1 -11    2.15    0.99
   1  -1 -11    0.33    0.74
  -1   1  11    0.38    0.85
   0  -1 -11   18.82    1.80
   0  -1 -11   22.29    2.28
   0   1  11   25.57    2.10
  -1  -1 -11   24.61    1.99
  -1  -1 -11   22.13    2.30
   1   1  11   21.76    2.00
  -2  -1 -11    4.66    1.06
  -2  -1 -11    4.06    1.17
   2   1  11    4.47    1.20
  -3  -1 -11    2.41    1.04
  -3  -1 -11    3.20    1.19
   3   1  11    1.22    0.93
  -4  -1 -11    2.70    1.02
   4   1  11    0.93    1.05
   3  -2 -11   10.16    1.28
   3  -2 -11   10.08    1.69
   2  -2 -11   21.53    2.31
   2  -2 -11   23.69    1.79
  -2   2  11   20.71    2.08
   1  -2 -11   19.71    2.24
   1  -2 -11   20.78    1.72
  -1   2  11   18.56    1.91
   0  -2 -11   -0.16    0.64
   0  -2 -11   -0.14    0.88
   0   2  11    1.00    0.88
  -1  -2 -11    6.89    1.21
  -1  -2 -11    5.68    1.36
   1   2  11    3.99    1.12
  -2  -2 -11    8.83    1.36
  -2  -2 -11   11.61    1.76
   2   2  11    8.02    1.39
  -3  -2 -11    4.57    1.14
  -3  -2 -11    4.14    1.14
   3   2  11    2.73    1.02
  -4  -2 -11    0.85    0.87
   4   2  11    1.47    1.02
  -5  -2 -11   33.99    2.65
   5   2  11   27.47    2.55
   3  -3 -11    0.90    0.89
   2  -3 -11    9.32    1.72
   2  -3 -11   10.36    1.15
  -2   3  11    9.40    1.49
   1  -3 -11    1.83    0.73
   1  -3 -11    3.63    1.18
  -1   3  11    2.42    0.95
   0  -3 -11    1.38    1.09
   0  -3 -11    3.56    0.86
   0   3  11    2.53    0.98
  -1  -3 -11    8.32    1.32
  -1  -3 -11   10.44    1.69
   1   3  11   12.32    1.66
  -2  -3 -11    1.53    0.97
  -2  -3 -11    3.72    0.99
   2   3  11    3.26    1.04
  -3  -3 -11   19.67    1.89
  -3  -3 -11   19.91    2.26
   3   3  11   24.35    2.24
  -4  -3 -11    1.95    0.96
   4   3  11    0.84    0.91
  -5  -3 -11    4.31    1.29
   5   3  11    1.89    1.05
   3  -4 -11    0.13    0.93
   2  -4 -11    2.66    1.06
   2  -4 -11    1.67    0.69
  -2   4  11    3.56    1.00
   1  -4 -11    2.77    0.78
   1  -4 -11    2.97    1.24
  -1   4  11    2.56    1.08
   0  -4 -11    0.88    0.62
   0  -4 -11    1.52    0.98
   0   4  11    1.29    0.88
  -1  -4 -11    4.06    0.99
  -1  -4 -11    2.41    1.07
   1   4  11    3.87    1.15
  -2  -4 -11    2.03    1.06
  -2  -4 -11    2.24    0.90
   2   4  11    1.13    0.97
  -3  -4 -11    0.22    0.72
  -3  -4 -11   -0.96    0.85
   3   4  11   -0.07    1.00
  -4  -4 -11    7.08    1.41
   4   4  11    7.47    1.41
   2  -5 -11    2.87    1.13
   1  -5 -11    4.26    1.30
   1  -5 -11    2.22    0.71
  -1   5  11    4.27    1.10
   0  -5 -11    0.61    0.60
   0  -5 -11    2.00    1.09
   0   5  11    1.55    1.02
  -1  -5 -11   -1.42    0.80
  -1  -5 -11    0.02    0.57
   1   5  11   -0.99    0.85
  -2  -5 -11    6.52    1.19
  -2  -5 -11    2.95    1.22
   2   5  11    6.22    1.31
  -3  -5 -11    3.83    1.27
  -3  -5 -11    6.02    1.21
   3   5  11    4.34    1.34
  -4  -5 -11    5.84    1.63
  -4  -5 -11    5.41    1.44
   4   5  11    4.00    1.22
   1  -6 -11    4.77    1.34
  -1   6  11    4.44    1.10
   0  -6 -11    0.84    0.67
   0  -6 -11    2.36    1.07
   0   6  11   -0.03    0.86
  -1  -6 -11    8.75    1.68
  -1  -6 -11    9.22    1.34
   1   6  11    7.70    1.39
  -2  -6 -11    8.70    1.34
  -2  -6 -11    5.16    1.46
   2   6  11    7.12    1.35
  -3  -6 -11    3.27    1.14
  -3  -6 -11    3.15    1.22
   3   6  11    3.46    1.19
   0  -7 -11    8.91    1.76
   0   7  11   10.30    1.40
  -1  -7 -11    3.78    1.35
   1   7  11    3.60    1.17
  -2  -7 -11    6.53    1.61
   2   7  11    5.34    1.26
   0   1 -12    1.89    1.16
   0  -1  12    5.78    1.34
  -1   1 -12   37.94    3.02
   1  -1  12   29.44    2.54
   1   0 -12    0.33    0.88
   1   0 -12    2.61    1.18
  -1   0  12    1.76    1.09
   0   0 -12   12.09    1.72
   0   0 -12   14.11    2.10
   0   0  12   14.45    1.79
  -1   0 -12    3.44    1.26
  -1   0 -12    5.31    1.24
   1   0  12    4.96    1.20
  -2   0 -12   15.12    1.83
  -2   0 -12   14.83    2.20
   2   0  12   13.02    1.88
   1  -1 -12   23.26    2.45
   1  -1 -12   19.43    1.88
  -1   1  12   14.71    1.96
   0  -1 -12    9.33    1.72
   0  -1 -12    8.61    1.38
   0   1  12    8.96    1.54
  -1  -1 -12   26.96    2.67
  -1  -1 -12   28.46    2.29
   1   1  12   29.31    2.39
  -2  -1 -12    3.20    1.22
  -2  -1 -12    4.57    1.16
   2   1  12    6.51    1.43
  -3  -1 -12    4.95    1.26
   3   1  12    3.04    1.19
   1  -2 -12    7.19    1.26
   1  -2 -12   10.40    1.83
  -1   2  12    7.03    1.40
   0  -2 -12   27.30    2.62
   0  -2 -12   26.09    2.06
   0   2  12   25.30    2.33
  -1  -2 -12    3.12    0.99
  -1  -2 -12    3.73    1.22
   1   2  12    1.04    1.00
  -2  -2 -12   15.68    1.85
  -2  -2 -12   16.43    2.22
   2   2  12   23.08    2.28
  -3  -2 -12    0.31    0.85
   3   2  12   -0.25    0.88
   1  -3 -12    3.87    1.32
   1  -3 -12    2.38    0.90
  -1   3  12    1.78    1.06
   0  -3 -12    5.95    1.57
   0  -3 -12    5.34    1.11
   0   3  12    4.55    1.26
  -1  -3 -12    7.73    1.39
  -1  -3 -12    7.65    1.66
   1   3  12   10.16    1.53
  -2  -3 -12   -0.33    0.73
  -2  -3 -12    0.42    1.00
   2   3  12   -0.37    0.94
  -3  -3 -12    1.26    0.91
  -3  -3 -12    1.19    1.10
   3   3  12   -0.14    0.86
   1  -4 -12    7.25    1.21
   1  -4 -12    8.32    1.70
  -1   4  12    7.58    1.44
   0  -4 -12   12.53    2.00
   0  -4 -12    7.66    1.28
   0   4  12   11.85    1.62
  -1  -4 -12    1.01    0.80
  -1  -4 -12    1.33    1.05
   1   4  12    1.03    1.00
  -2  -4 -12   16.15    2.35
  -2  -4 -12   18.97    1.93
   2   4  12   18.25    2.13
  -3  -4 -12    1.21    1.03
  -3  -4 -12    2.11    1.23
   3   4  12    1.62    1.10
   0  -5 -12   11.96    2.08
   0  -5 -12   14.81    1.56
   0   5  12   16.01    1.93
  -1  -5 -12    1.48    0.82
  -1  -5 -12    1.53    1.22
   1   5  12    2.65    1.12
  -2  -5 -12    0.77    0.92
  -2  -5 -12    1.24    1.10
   2   5  12    0.35    0.98
   0   0   0    0.00    0.00
;
_shelx_hkl_checksum              10204
#END Tags that were not found in dictionaries
loop_
_space_group_symop_operation_xyz
'x, y, z'
'-x, -y, -z'
loop_
_atom_site_label
_atom_site_type_symbol
_atom_site_fract_x
_atom_site_fract_y
_atom_site_fract_z
_atom_site_U_iso_or_equiv
_atom_site_adp_type
_atom_site_occupancy
_atom_site_site_symmetry_order
_atom_site_calc_flag
_atom_site_refinement_flags_posn
_atom_site_refinement_flags_adp
C1 C 0.7863(5) 1.0033(4) 0.7689(4) 0.0154(8) Uani 1 1 d . .
C2 C 0.8110(5) 1.0932(4) 0.6327(3) 0.0126(8) Uani 1 1 d . .
C3 C 0.8626(5) 1.2326(4) 0.6211(4) 0.0145(8) Uani 1 1 d . .
H3 H 0.8834 1.2644 0.6965 0.017 Uiso 1 1 calc R U
C4 C 0.8838(5) 1.3250(4) 0.5011(4) 0.0141(8) Uani 1 1 d . .
H4 H 0.9208 1.4168 0.4962 0.017 Uiso 1 1 calc R U
C5 C 0.8497(5) 1.2803(4) 0.3875(3) 0.0116(8) Uani 1 1 d . .
C6 C 0.8672(5) 1.3846(4) 0.2567(4) 0.0154(8) Uani 1 1 d . .
C7 C 0.7983(5) 1.1421(4) 0.3959(4) 0.0137(8) Uani 1 1 d . .
H7 H 0.7775 1.1119 0.3197 0.016 Uiso 1 1 calc R U
C8 C 0.7773(5) 1.0475(4) 0.5164(4) 0.0119(8) Uani 1 1 d . .
C9 C 0.6685(5) 0.8437(4) 0.4325(4) 0.0150(8) Uani 1 1 d . .
C10 C 0.6243(5) 0.6901(4) 0.4756(4) 0.0169(8) Uani 1 1 d . .
H10A H 0.7065 0.6302 0.4261 0.020 Uiso 1 1 calc R U
H10B H 0.5038 0.6854 0.4510 0.020 Uiso 1 1 calc R U
C11 C 0.6316(6) 0.6208(4) 0.6208(4) 0.0208(9) Uani 1 1 d . .
H11A H 0.7536 0.6118 0.6449 0.031 Uiso 1 1 calc R U
H11B H 0.5893 0.5261 0.6364 0.031 Uiso 1 1 calc R U
H11C H 0.5564 0.6810 0.6725 0.031 Uiso 1 1 calc R U
Cu1 Cu 0.67523(6) 0.77921(5) 0.96227(4) 0.01321(17) Uani 1 1 d . .
H12A H 0.424(6) 0.919(4) 0.829(3) 0.020 Uiso 1 1 d D U
H13A H 0.823(4) 0.522(5) 0.870(3) 0.020 Uiso 1 1 d D U
H14A H 1.007(4) 0.740(5) 0.962(3) 0.020 Uiso 1 1 d D U
H15A H 0.468(4) 0.638(4) 1.129(4) 0.020 Uiso 1 1 d D U
H12B H 0.353(5) 0.874(4) 0.977(3) 0.020 Uiso 1 1 d D U
H13B H 0.769(5) 0.481(4) 0.993(3) 0.020 Uiso 1 1 d D U
H14B H 0.941(5) 0.681(3) 1.100(3) 0.020 Uiso 1 1 d D U
H15B H 0.661(4) 0.625(4) 1.179(4) 0.020 Uiso 1 1 d D U
N1 N 0.7230(4) 0.9083(3) 0.5256(3) 0.0158(7) Uani 1 1 d . .
H1 H 0.7243 0.8547 0.6028 0.019 Uiso 1 1 calc R U
O1 O 0.7697(3) 0.8683(3) 0.7816(2) 0.0135(6) Uani 1 1 d . .
O2 O 0.7815(4) 1.0652(3) 0.8638(3) 0.0252(7) Uani 1 1 d . .
O3 O 0.9456(4) 1.4953(3) 0.2507(3) 0.0209(6) Uani 1 1 d . .
O4 O 0.7988(4) 1.3534(3) 0.1606(2) 0.0212(6) Uani 1 1 d . .
O5 O 0.6550(4) 0.9052(3) 0.3166(3) 0.0266(7) Uani 1 1 d . .
O12 O 0.4276(4) 0.8481(4) 0.9053(3) 0.0339(8) Uani 1 1 d D .
O13 O 0.7277(4) 0.5338(3) 0.9220(3) 0.0208(6) Uani 1 1 d D .
O14 O 0.9200(5) 0.7601(4) 1.0311(3) 0.0363(8) Uani 1 1 d D .
O15 O 0.5652(5) 0.6894(4) 1.1413(3) 0.0449(9) Uani 1 1 d D .
loop_
_atom_site_aniso_label
_atom_site_aniso_U_11
_atom_site_aniso_U_22
_atom_site_aniso_U_33
_atom_site_aniso_U_23
_atom_site_aniso_U_13
_atom_site_aniso_U_12
C1 0.0121(19) 0.018(2) 0.0137(19) -0.0015(16) 0.0046(15) 0.0002(15)
C2 0.0108(18) 0.0139(19) 0.0100(18) 0.0031(15) 0.0017(15) 0.0007(14)
C3 0.0142(19) 0.0162(19) 0.0133(18) -0.0028(15) -0.0034(15) -0.0006(15)
C4 0.0139(19) 0.0118(18) 0.0160(19) 0.0009(15) -0.0001(15) -0.0055(14)
C5 0.0088(18) 0.0127(18) 0.0105(17) 0.0030(15) -0.0009(14) 0.0011(14)
C6 0.0124(19) 0.017(2) 0.0149(19) -0.0007(16) 0.0002(15) 0.0015(15)
C7 0.0141(19) 0.0152(19) 0.0116(18) -0.0029(15) 0.0021(15) -0.0022(15)
C8 0.0115(19) 0.0091(18) 0.0140(18) -0.0007(14) 0.0020(15) -0.0022(14)
C9 0.013(2) 0.017(2) 0.0145(19) -0.0047(16) -0.0015(15) -0.0003(15)
C10 0.019(2) 0.0138(19) 0.018(2) -0.0028(16) -0.0018(16) -0.0017(15)
C11 0.028(2) 0.015(2) 0.019(2) -0.0010(17) -0.0014(18) -0.0039(17)
Cu1 0.0166(3) 0.0127(3) 0.0079(2) 0.00310(17) 0.00051(17) -0.00174(17)
N1 0.0214(18) 0.0145(17) 0.0103(15) 0.0024(13) -0.0015(13) -0.0054(13)
O1 0.0170(14) 0.0119(13) 0.0095(12) 0.0031(10) 0.0006(10) -0.0030(10)
O2 0.0440(19) 0.0178(15) 0.0128(14) -0.0021(12) 0.0024(13) -0.0047(13)
O3 0.0302(16) 0.0141(14) 0.0172(14) 0.0043(11) -0.0020(12) -0.0100(12)
O4 0.0233(15) 0.0274(16) 0.0115(13) 0.0048(12) -0.0054(12) -0.0082(12)
O5 0.0432(19) 0.0203(15) 0.0168(15) 0.0012(12) -0.0077(14) -0.0087(13)
O12 0.0346(19) 0.038(2) 0.0241(17) 0.0027(14) 0.0028(15) -0.0038(15)
O13 0.0249(16) 0.0231(16) 0.0104(14) 0.0031(12) 0.0011(12) 0.0011(12)
O14 0.038(2) 0.037(2) 0.0300(19) 0.0036(15) -0.0058(15) -0.0010(16)
O15 0.045(2) 0.050(2) 0.032(2) 0.0087(17) -0.0002(17) -0.0039(18)
loop_
_atom_type_symbol
_atom_type_description
_atom_type_scat_dispersion_real
_atom_type_scat_dispersion_imag
_atom_type_scat_source
C C 0.0033 0.0016 'International Tables Vol C Tables 4.2.6.8 and 6.1.1.4'
H H 0.0000 0.0000 'International Tables Vol C Tables 4.2.6.8 and 6.1.1.4'
N N 0.0061 0.0033 'International Tables Vol C Tables 4.2.6.8 and 6.1.1.4'
O O 0.0106 0.0060 'International Tables Vol C Tables 4.2.6.8 and 6.1.1.4'
Cu Cu 0.3201 1.2651 'International Tables Vol C Tables 4.2.6.8 and 6.1.1.4'
loop_
_geom_angle_atom_site_label_1
_geom_angle_atom_site_label_2
_geom_angle_atom_site_label_3
_geom_angle
O2 C1 O1 123.0(3)
O2 C1 C2 118.3(3)
O1 C1 C2 118.7(3)
C3 C2 C8 118.1(3)
C3 C2 C1 117.5(3)
C8 C2 C1 124.3(3)
C4 C3 C2 122.0(3)
C4 C3 H3 119.0
C2 C3 H3 119.0
C3 C4 C5 119.8(3)
C3 C4 H4 120.1
C5 C4 H4 120.1
C7 C5 C4 119.5(3)
C7 C5 C6 121.2(3)
C4 C5 C6 119.3(3)
O3 C6 O4 124.4(3)
O3 C6 C5 118.3(3)
O4 C6 C5 117.4(3)
C5 C7 C8 121.3(3)
C5 C7 H7 119.4
C8 C7 H7 119.4
C7 C8 N1 121.5(3)
C7 C8 C2 119.3(3)
N1 C8 C2 119.2(3)
O5 C9 N1 123.6(4)
O5 C9 C10 119.6(3)
N1 C9 C10 116.8(3)
C9 C10 C11 118.1(3)
C9 C10 H10A 107.8
C11 C10 H10A 107.8
C9 C10 H10B 107.8
C11 C10 H10B 107.8
H10A C10 H10B 107.1
C10 C11 H11A 109.5
C10 C11 H11B 109.5
H11A C11 H11B 109.5
C10 C11 H11C 109.5
H11A C11 H11C 109.5
H11B C11 H11C 109.5
O12 Cu1 O1 87.57(12)
O12 Cu1 O14 165.46(14)
O1 Cu1 O14 91.89(12)
O12 Cu1 O15 89.24(14)
O1 Cu1 O15 176.66(13)
O14 Cu1 O15 91.45(15)
O12 Cu1 O13 104.05(12)
O1 Cu1 O13 93.65(10)
O14 Cu1 O13 90.48(12)
O15 Cu1 O13 86.16(13)
C9 N1 C8 130.7(3)
C9 N1 H1 114.6
C8 N1 H1 114.6
C1 O1 Cu1 112.7(2)
Cu1 O12 H12A 114(3)
Cu1 O12 H12B 109(2)
H12A O12 H12B 114(4)
Cu1 O13 H13A 112(3)
Cu1 O13 H13B 106(3)
H13A O13 H13B 98(4)
Cu1 O14 H14A 107(2)
Cu1 O14 H14B 114(3)
H14A O14 H14B 104(4)
Cu1 O15 H15A 109(3)
Cu1 O15 H15B 103(3)
H15A O15 H15B 111(4)
loop_
_geom_bond_atom_site_label_1
_geom_bond_atom_site_label_2
_geom_bond_distance
C1 O2 1.244(5)
C1 O1 1.272(5)
C1 C2 1.506(5)
C2 C3 1.392(5)
C2 C8 1.422(5)
C3 C4 1.379(5)
C3 H3 0.9300
C4 C5 1.392(5)
C4 H4 0.9300
C5 C7 1.385(5)
C5 C6 1.515(5)
C6 O3 1.244(5)
C6 O4 1.270(5)
C7 C8 1.393(5)
C7 H7 0.9300
C8 N1 1.401(5)
C9 O5 1.238(4)
C9 N1 1.363(5)
C9 C10 1.493(5)
C10 C11 1.527(5)
C10 H10A 0.9700
C10 H10B 0.9700
C11 H11A 0.9600
C11 H11B 0.9600
C11 H11C 0.9600
Cu1 O12 1.996(3)
Cu1 O1 2.001(2)
Cu1 O14 2.007(3)
Cu1 O15 2.028(4)
Cu1 O13 2.417(3)
N1 H1 0.8600
O12 H12A 0.931(19)
O12 H12B 0.945(19)
O13 H13A 0.865(19)
O13 H13B 0.867(19)
O14 H14A 0.955(19)
O14 H14B 0.936(19)
O15 H15A 0.948(19)
O15 H15B 0.947(19)
loop_
_geom_hbond_atom_site_label_D
_geom_hbond_atom_site_label_H
_geom_hbond_atom_site_label_A
_geom_hbond_distance_DH
_geom_hbond_distance_HA
_geom_hbond_distance_DA
_geom_hbond_angle_DHA
_geom_hbond_site_symmetry_A
O15 H15A O13 0.948(19) 2.48(2) 3.406(5) 166(4) 2_667
C7 H7 O5 0.93 2.26 2.883(5) 124.2 .
N1 H1 O1 0.86 1.96 2.673(4) 139.4 .
O14 H14B O3 0.936(19) 2.10(2) 3.027(4) 171(4) 1_546
O14 H14A O4 0.955(19) 2.08(2) 3.021(5) 166(4) 2_776
O15 H15B O3 0.947(19) 2.43(2) 3.363(5) 169(4) 1_546
O12 H12A O5 0.931(19) 2.08(2) 2.982(4) 164(4) 2_676
O12 H12B O2 0.945(19) 2.01(2) 2.953(4) 174(4) 2_677
O13 H13B O4 0.867(19) 1.92(2) 2.773(4) 166(4) 1_546
O13 H13A O3 0.865(19) 2.05(2) 2.918(4) 177(4) 2_776
loop_
_geom_torsion_atom_site_label_1
_geom_torsion_atom_site_label_2
_geom_torsion_atom_site_label_3
_geom_torsion_atom_site_label_4
_geom_torsion
O2 C1 C2 C3 12.5(5)
O1 C1 C2 C3 -168.2(3)
O2 C1 C2 C8 -164.5(4)
O1 C1 C2 C8 14.8(5)
C8 C2 C3 C4 -0.9(5)
C1 C2 C3 C4 -178.1(3)
C2 C3 C4 C5 1.3(5)
C3 C4 C5 C7 -1.3(5)
C3 C4 C5 C6 177.9(3)
C7 C5 C6 O3 -166.6(3)
C4 C5 C6 O3 14.1(5)
C7 C5 C6 O4 14.1(5)
C4 C5 C6 O4 -165.2(3)
C4 C5 C7 C8 1.0(5)
C6 C5 C7 C8 -178.2(3)
C5 C7 C8 N1 179.1(3)
C5 C7 C8 C2 -0.7(5)
C3 C2 C8 C7 0.6(5)
C1 C2 C8 C7 177.6(3)
C3 C2 C8 N1 -179.2(3)
C1 C2 C8 N1 -2.2(5)
O5 C9 C10 C11 -176.4(3)
N1 C9 C10 C11 3.9(5)
O5 C9 N1 C8 -1.4(6)
C10 C9 N1 C8 178.3(3)
C7 C8 N1 C9 -6.0(6)
C2 C8 N1 C9 173.8(4)
O2 C1 O1 Cu1 14.3(4)
C2 C1 O1 Cu1 -165.0(2)
