#------------------------------------------------------------------------------
#$Date: 2016-03-26 00:48:51 +0200 (Sat, 26 Mar 2016) $
#$Revision: 180097 $
#$URL: svn://www.crystallography.net/cod/cif/7/05/43/7054309.cif $
#------------------------------------------------------------------------------
#
# This file is available in the Crystallography Open Database (COD),
# http://www.crystallography.net/
#
# All data on this site have been placed in the public domain by the
# contributors.
#
data_7054309
loop_
_publ_author_name
'Karmakar, Anirban'
'Hazra, Susanta'
'Guedes da Silva, M. F\'atima C.'
'Pombeiro, Armando J. L.'
_publ_section_title
;
 Synthesis, structure and catalytic applications of amidoterephthalate
 copper complexes in the diastereoselective Henry reaction in aqueous
 medium
;
_journal_issue                   10
_journal_name_full               'New J. Chem.'
_journal_page_first              4837
_journal_paper_doi               10.1039/C4NJ00878B
_journal_volume                  38
_journal_year                    2014
_chemical_formula_sum            'C10 H15 Cu N O9'
_chemical_formula_weight         356.77
_chemical_name_systematic
;
 ?
;
_space_group_crystal_system      triclinic
_space_group_IT_number           2
_space_group_name_Hall           '-P 1'
_space_group_name_H-M_alt        'P -1'
_symmetry_space_group_name_Hall  '-P 1'
_symmetry_space_group_name_H-M   'P -1'
_atom_sites_solution_hydrogens   mixed
_audit_creation_method           SHELXL-2014
_cell_angle_alpha                104.104(4)
_cell_angle_beta                 90.218(4)
_cell_angle_gamma                96.517(5)
_cell_formula_units_Z            2
_cell_length_a                   7.5580(10)
_cell_length_b                   9.2626(13)
_cell_length_c                   10.5360(14)
_cell_measurement_reflns_used    9500
_cell_measurement_temperature    296(2)
_cell_measurement_theta_max      25.35
_cell_measurement_theta_min      2.64
_cell_volume                     710.35(17)
_computing_publication_material  'WinGX publication routines (Farrugia, 1999)'
_computing_structure_refinement  'SHELXL-2014 (Sheldrick, 2014)'
_computing_structure_solution    'SIR97 (Giacovazzo et al, 1997)'
_diffrn_ambient_temperature      296(2)
_diffrn_measured_fraction_theta_full 1.000
_diffrn_measured_fraction_theta_max 0.979
_diffrn_measurement_device_type  'Bruker APEX-II PHOTON 100 detector'
_diffrn_measurement_method       '\f and \w scans'
_diffrn_radiation_source         'fine-focus sealed tube'
_diffrn_radiation_type           MoK\a
_diffrn_radiation_wavelength     0.71073
_diffrn_reflns_av_R_equivalents  0.0248
_diffrn_reflns_av_unetI/netI     0.0145
_diffrn_reflns_Laue_measured_fraction_full 1.000
_diffrn_reflns_Laue_measured_fraction_max 0.979
_diffrn_reflns_limit_h_max       9
_diffrn_reflns_limit_h_min       -9
_diffrn_reflns_limit_k_max       11
_diffrn_reflns_limit_k_min       -11
_diffrn_reflns_limit_l_max       12
_diffrn_reflns_limit_l_min       -12
_diffrn_reflns_number            17154
_diffrn_reflns_point_group_measured_fraction_full 1.000
_diffrn_reflns_point_group_measured_fraction_max 0.979
_diffrn_reflns_theta_full        25.242
_diffrn_reflns_theta_max         25.529
_diffrn_reflns_theta_min         2.283
_exptl_absorpt_coefficient_mu    1.581
_exptl_absorpt_correction_T_max  0.7
_exptl_absorpt_correction_T_min  0.6
_exptl_absorpt_correction_type   multi-scan
_exptl_absorpt_process_details   SADABS
_exptl_crystal_colour            Blue
_exptl_crystal_density_diffrn    1.668
_exptl_crystal_description       Block
_exptl_crystal_F_000             366
_exptl_crystal_size_max          0.320
_exptl_crystal_size_mid          0.250
_exptl_crystal_size_min          0.190
_refine_diff_density_max         0.675
_refine_diff_density_min         -0.418
_refine_diff_density_rms         0.119
_refine_ls_extinction_method     none
_refine_ls_goodness_of_fit_ref   1.126
_refine_ls_hydrogen_treatment    mixed
_refine_ls_matrix_type           full
_refine_ls_number_parameters     213
_refine_ls_number_reflns         2607
_refine_ls_number_restraints     8
_refine_ls_restrained_S_all      1.133
_refine_ls_R_factor_all          0.0415
_refine_ls_R_factor_gt           0.0386
_refine_ls_shift/su_max          0.006
_refine_ls_shift/su_mean         0.000
_refine_ls_structure_factor_coef Fsqd
_refine_ls_weighting_details
'w=1/[\s^2^(Fo^2^)+(0.0676P)^2^+0.6598P] where P=(Fo^2^+2Fc^2^)/3'
_refine_ls_weighting_scheme      calc
_refine_ls_wR_factor_gt          0.1043
_refine_ls_wR_factor_ref         0.1095
_reflns_Friedel_coverage         0.000
_reflns_number_gt                2451
_reflns_number_total             2607
_reflns_threshold_expression     'I > 2\s(I)'
_cod_data_source_file            c4nj00878b4.cif
_cod_data_source_block           2
_cod_depositor_comments
'Adding full bibliography for 7054309--7054312.cif.'
_cod_database_code               7054309
#BEGIN Tags that were not found in dictionaries:
_shelx_space_group_comment
;
The symmetry employed for this shelxl refinement is uniquely defined
by the following loop, which should always be used as a source of
symmetry information in preference to the above space-group names.
They are only intended as comments.
;
_shelx_estimated_absorpt_t_min   0.632
_shelx_estimated_absorpt_t_max   0.753
_shelxl_version_number           2014-1
_shelx_res_file
;
TITL AK203 in P-1
CELL  0.71073   7.5580   9.2626  10.5360  104.104   90.218   96.517
ZERR     2.00   0.0010   0.0013   0.0014    0.004    0.004    0.005
LATT   1
SFAC  C    H    N    O    CU
UNIT  20   30   2    18   2
MERG   2
DFIX  0.9 0.02 O14 H14A H14B O14 O13 H13A O13 H13B O11 H11B O11 H11A
DFIX  0.9 0.02 O12 H12B H12A O12
HTAB N1 O1
EQIV $1 -x+1, -y+2, -z+2
HTAB O12 O13_$1
HTAB C5 O5
EQIV $2 -x+2, -y+1, -z+1
HTAB O13 O4_$2
EQIV $3 x, y+1, z+1
HTAB O13 O3_$3
HTAB O14 O4_$3
EQIV $4 -x+1, -y+1, -z+2
HTAB O11 O2_$4
EQIV $5 -x+1, -y+1, -z+1
HTAB O11 O3_$5
HTAB O14 O3_$2
FMAP   2
PLAN    5
SIZE     0.19   0.25   0.32
ACTA
BOND   $H
CONF
L.S.  10
TEMP    20.00
WGHT    0.067600    0.659800
FVAR       0.16938
CU1   5    0.667476    0.722402    0.972285    11.00000    0.03604    0.02845 =
         0.01720    0.00125    0.00074    0.00817
O1    4    0.746279    0.629441    0.794001    11.00000    0.04489    0.02616 =
         0.01888   -0.00064    0.00286    0.01041
O2    4    0.772607    0.424206    0.861153    11.00000    0.08201    0.04110 =
         0.02350    0.01096    0.01294    0.01940
N1    3    0.711079    0.603410    0.540289    11.00000    0.03662    0.02236 =
         0.01926    0.00001    0.00129    0.00925
AFIX  43
H1    2    0.705227    0.651669    0.620691    11.00000   -1.20000
AFIX   0
O5    4    0.653984    0.625405    0.333188    11.00000    0.06374    0.03796 =
         0.02592    0.00780   -0.00448    0.01719
O3    4    0.818898    0.161071    0.153599    11.00000    0.05472    0.05013 =
         0.02289   -0.00557   -0.00364    0.01912
O4    4    0.996449    0.039343    0.246802    11.00000    0.05957    0.03840 =
         0.03449   -0.00115    0.00726    0.02318
O13   4    0.706542    0.959271    0.915624    11.00000    0.04819    0.03826 =
         0.03251    0.00193    0.00501    0.00727
O12   4    0.578010    0.824634    1.148793    11.00000    0.06652    0.05599 =
         0.03783    0.00128    0.00486    0.01164
AFIX 147
H12A  2    0.490067    0.865148    1.137995    11.00000   -1.50000
AFIX   0
O11   4    0.418660    0.637599    0.910317    11.00000    0.04927    0.05852 =
         0.03996    0.01030   -0.00055    0.00958
O14   4    0.920323    0.751295    1.042174    11.00000    0.05549    0.05619 =
         0.04234   -0.00130   -0.00573    0.01454
C7    1    0.771289    0.491272    0.773175    11.00000    0.03162    0.03314 =
         0.02100    0.00499    0.00138    0.00483
C1    1    0.801241    0.408270    0.634700    11.00000    0.02579    0.02623 =
         0.01972    0.00234    0.00154    0.00357
C6    1    0.770262    0.461412    0.522783    11.00000    0.02300    0.01848 =
         0.02288    0.00219    0.00041    0.00353
C9    1    0.662015    0.676538    0.452270    11.00000    0.02959    0.02746 =
         0.03032    0.00734   -0.00155    0.00232
C10   1    0.615666    0.831139    0.513495    11.00000    0.04757    0.02782 =
         0.04162    0.00674   -0.00388    0.00874
AFIX 137
H10A  2    0.644486    0.894830    0.455173    11.00000   -1.50000
H10B  2    0.682353    0.871053    0.594613    11.00000   -1.50000
H10C  2    0.490528    0.826370    0.529840    11.00000   -1.50000
AFIX   0
C5    1    0.799997    0.373230    0.398792    11.00000    0.02907    0.02405 =
         0.01947    0.00293   -0.00014    0.00598
AFIX  43
H5    2    0.777476    0.407182    0.324874    11.00000   -1.20000
AFIX   0
C4    1    0.863125    0.234784    0.384800    11.00000    0.02441    0.02447 =
         0.02455   -0.00116    0.00193    0.00322
C3    1    0.894546    0.184598    0.494511    11.00000    0.03472    0.02302 =
         0.03265    0.00364    0.00148    0.01130
AFIX  43
H3    2    0.938257    0.092881    0.485662    11.00000   -1.20000
AFIX   0
C2    1    0.861984    0.268648    0.617067    11.00000    0.03754    0.03027 =
         0.02461    0.00981    0.00109    0.01068
AFIX  43
H2    2    0.880959    0.231396    0.689732    11.00000   -1.20000
AFIX   0
C8    1    0.896050    0.138249    0.250887    11.00000    0.03342    0.02561 =
         0.02893   -0.00374    0.00409    0.00576
H13B  2    0.802949    0.957763    0.868381    11.00000   -1.50000
H13A  2    0.757528    1.018766    0.988231    11.00000   -1.50000
H14B  2    0.963734    0.835527    1.103321    11.00000   -1.50000
H11A  2    0.360144    0.597760    0.975415    11.00000   -1.50000
H11B  2    0.354278    0.703819    0.882834    11.00000   -1.50000
H14A  2    0.994978    0.748028    0.968647    11.00000   -1.50000
H12B  2    0.661622    0.899931    1.203359    11.00000   -1.50000
HKLF    4  1.0  1.00  0.00  0.00  0.00  1.00  0.00  0.00  0.00  1.00

REM  AK203 in P-1
REM R1 =  0.0386 for    2451 Fo > 4sig(Fo)  and  0.0415 for all    2607 data
REM    213 parameters refined using      8 restraints

END

WGHT      0.0688      0.6531

REM Highest difference peak  0.675,  deepest hole -0.418,  1-sigma level  0.119
Q1    1   0.8326  0.2810  0.3896  11.00000  0.05    0.59
Q2    1   0.4148  0.5496  0.8341  11.00000  0.05    0.53
Q3    1   0.9460  0.0054  0.2645  11.00000  0.05    0.52
Q4    1   0.8454  0.1970  0.4265  11.00000  0.05    0.50
Q5    1   0.7450  0.5382  0.5192  11.00000  0.05    0.50
;
_shelx_res_checksum              15176
_shelx_hkl_file
;
  -1   0   0    1.04    0.05
  -1   0   0    1.06    0.05
   1   0   0    1.05    0.05
   1   0   0    1.02    0.05
   1   0   0    1.00    0.05
  -2   0   0  244.46    6.77
  -2   0   0  236.70    5.83
  -2   0   0  242.55    5.84
  -2   0   0  247.12    6.22
  -2   0   0  252.65    5.89
   2   0   0  228.52    6.80
   2   0   0  246.79    5.83
   2   0   0  246.64    5.85
   2   0   0  242.86    5.86
  -3   0   0   51.87    1.25
  -3   0   0   50.70    2.43
  -3   0   0   48.86    1.24
  -3   0   0   50.64    1.24
  -3   0   0   51.65    1.31
  -3   0   0   49.49    1.45
   3   0   0   52.08    1.24
   3   0   0   51.14    1.24
   3   0   0   50.89    1.25
   3   0   0   50.16    1.45
  -4   0   0    8.36    0.25
  -4   0   0    8.08    0.23
  -4   0   0    8.11    0.25
  -4   0   0    7.84    0.24
  -4   0   0    8.11    0.50
   4   0   0    7.92    0.29
   4   0   0    8.00    0.25
   4   0   0    7.81    0.24
  -5   0   0    1.15    0.21
  -5   0   0    1.40    0.11
  -5   0   0    1.45    0.12
  -5   0   0    1.47    0.07
  -5   0   0    1.40    0.10
   5   0   0    1.31    0.12
   5   0   0    1.37    0.10
   5   0   0    1.48    0.12
  -6   0   0    7.23    0.57
  -6   0   0    5.94    0.23
  -6   0   0    6.46    0.25
   6   0   0    5.86    0.24
   6   0   0    5.94    0.27
   6   0   0    6.08    0.23
  -7   0   0    1.71    0.13
  -7   0   0    2.65    0.59
  -7   0   0    1.74    0.18
   7   0   0    1.57    0.18
   7   0   0    1.51    0.15
   7   0   0    2.05    0.18
  -8   0   0    0.55    0.09
  -8   0   0    0.52    0.39
  -8   0   0    0.69    0.12
  -8   0   0    0.48    0.14
   8   0   0    0.66    0.12
   8   0   0    0.50    0.10
   8   0   0    0.53    0.10
   8   0   0    0.51    0.13
  -9   0   0    5.94    0.32
  -9   0   0    5.11    0.39
   9   0   0    5.78    0.39
   9   0   0    5.16    0.30
   9   0   0    6.02    0.30
   9   0   0    5.80    0.29
   9  -1   0    0.57    0.12
   9  -1   0    0.37    0.17
   9  -1   0    0.30    0.10
   9  -1   0    0.55    0.12
  -9   1   0    0.17    0.46
  -9   1   0    0.45    0.10
  -9   1   0    0.34    0.17
  -9   1   0    0.44    0.15
   8  -1   0    1.77    0.20
   8  -1   0    1.81    0.18
   8  -1   0    1.69    0.15
   8  -1   0    1.77    0.23
   8  -1   0    1.48    0.18
  -8   1   0    1.49    0.39
  -8   1   0    1.68    0.15
  -8   1   0    2.01    0.19
  -8   1   0    1.75    0.22
   7  -1   0   18.85    0.56
   7  -1   0   20.20    0.58
   7  -1   0   18.60    0.56
   7  -1   0   19.56    0.67
  -7   1   0   22.60    1.19
  -7   1   0   19.46    0.57
  -7   1   0   19.60    0.56
  -7   1   0   18.89    0.56
   6  -1   0    0.56    0.11
   6  -1   0    0.43    0.07
   6  -1   0    0.58    0.10
   6  -1   0    0.59    0.09
  -6   1   0    0.87    0.25
  -6   1   0    0.34    0.06
  -6   1   0    0.49    0.08
  -6   1   0    0.60    0.12
   5  -1   0   14.68    0.41
   5  -1   0   13.96    0.49
   5  -1   0   14.23    0.41
  -5   1   0   14.58    0.41
  -5   1   0   16.26    0.82
  -5   1   0   14.60    0.41
  -5   1   0   13.92    0.41
   4  -1   0   78.18    2.30
   4  -1   0   80.86    1.99
  -4   1   0   92.65    3.87
  -4   1   0   80.58    1.98
  -4   1   0   78.48    1.99
  -4   1   0   77.43    1.98
   3  -1   0    0.23    0.04
   3  -1   0    0.17    0.04
   3  -1   0    0.26    0.05
   3  -1   0    0.24    0.04
  -3   1   0    0.25    0.05
  -3   1   0    0.28    0.05
  -3   1   0    0.28    0.05
  -3   1   0    0.31    0.10
   2  -1   0   77.60    1.91
   2  -1   0   73.70    1.92
   2  -1   0   78.60    1.92
   2  -1   0   81.24    2.03
   2  -1   0   79.91    1.91
   2  -1   0   78.96    2.22
  -2   1   0   79.66    1.91
  -2   1   0   77.61    1.91
  -2   1   0   88.08    3.72
   1  -1   0  140.08    3.61
   1  -1   0  141.10    3.46
   1  -1   0  142.10    3.46
   1  -1   0  138.56    4.03
   1  -1   0  139.97    3.48
  -1   1   0  147.83    3.58
  -1   1   0  147.27    4.03
  -1   1   0  149.17    3.46
  -1   1   0  160.44    6.74
  -1   1   0  144.40    3.48
  -1   1   0  138.90    3.46
   0  -1   0   36.41    0.88
  -1  -1   0    3.10    0.10
  -1  -1   0    3.35    0.11
   1   1   0    3.13    0.10
   1   1   0    3.17    0.11
   1   1   0    2.91    0.10
  -2  -1   0  999.77   27.31
  -2  -1   0  988.47   23.55
  -2  -1   0  992.80   23.69
   2   1   0 1000.00   23.70
   2   1   0  958.37   23.53
   2   1   0  966.04   23.55
   2   1   0  988.65   27.32
  -3  -1   0    1.42    0.10
  -3  -1   0    1.34    0.08
  -3  -1   0    1.22    0.08
  -3  -1   0    1.22    0.08
   3   1   0    1.37    0.09
   3   1   0    1.36    0.10
   3   1   0    1.26    0.08
  -4  -1   0  145.04    3.57
  -4  -1   0  146.88    3.77
  -4  -1   0  143.45    3.54
  -4  -1   0  150.14    3.54
   4   1   0  141.90    3.54
   4   1   0  145.75    4.11
   4   1   0  155.32    3.57
  -5  -1   0    1.35    0.11
  -5  -1   0    1.44    0.10
  -5  -1   0    1.26    0.12
  -5  -1   0    0.89    0.29
   5   1   0    1.44    0.11
   5   1   0    1.12    0.12
   5   1   0    1.50    0.13
  -6  -1   0   -0.03    0.19
  -6  -1   0    0.05    0.04
  -6  -1   0    0.03    0.05
  -6  -1   0    0.00    0.07
  -6  -1   0   -0.03    0.07
   6   1   0    0.01    0.06
   6   1   0    0.06    0.07
   6   1   0   -0.06    0.06
  -7  -1   0    0.72    0.09
  -7  -1   0    0.41    0.11
  -7  -1   0    0.40    0.07
  -7  -1   0    0.52    0.31
  -7  -1   0    0.48    0.11
   7   1   0    0.74    0.12
   7   1   0    0.39    0.08
   7   1   0    1.02    0.17
  -8  -1   0    2.85    0.28
  -8  -1   0    3.32    0.20
  -8  -1   0    3.68    0.72
  -8  -1   0    3.50    0.24
   8   1   0    3.62    0.26
   8   1   0    3.29    0.23
   8   1   0    3.40    0.28
   9  -2   0    3.34    0.24
   9  -2   0    3.22    0.31
   9  -2   0    3.34    0.21
  -9   2   0    3.36    0.21
  -9   2   0    3.00    0.71
  -9   2   0    3.39    0.32
  -9   2   0    3.17    0.27
   8  -2   0    4.03    0.25
   8  -2   0    3.27    0.22
   8  -2   0    3.59    0.25
   8  -2   0    3.68    0.19
   8  -2   0    3.59    0.20
  -8   2   0    3.72    0.22
  -8   2   0    3.47    0.20
  -8   2   0    3.60    0.54
  -8   2   0    3.96    0.26
   7  -2   0   -0.02    0.06
   7  -2   0   -0.09    0.06
   7  -2   0   -0.02    0.05
   7  -2   0    0.08    0.10
   7  -2   0    0.06    0.07
   7  -2   0    0.00    0.06
  -7   2   0   -0.01    0.08
  -7   2   0   -0.04    0.05
  -7   2   0    0.06    0.21
  -7   2   0    0.08    0.07
   6  -2   0    2.30    0.15
   6  -2   0    2.39    0.15
   6  -2   0    2.43    0.17
   6  -2   0    2.21    0.13
   6  -2   0    2.58    0.13
  -6   2   0    2.43    0.15
  -6   2   0    2.25    0.13
  -6   2   0    2.93    0.38
   5  -2   0   54.46    1.40
   5  -2   0   55.60    1.63
   5  -2   0   54.38    1.45
   5  -2   0   56.68    1.40
   5  -2   0   57.29    1.40
  -5   2   0   58.29    1.39
  -5   2   0   55.69    1.39
   4  -2   0    6.60    0.26
   4  -2   0    6.83    0.21
   4  -2   0    7.04    0.21
   4  -2   0    7.17    0.22
  -4   2   0    7.38    0.22
  -4   2   0    6.90    0.21
   3  -2   0    8.44    0.23
   3  -2   0    8.53    0.23
   3  -2   0    8.37    0.23
   3  -2   0    8.31    0.24
   3  -2   0    8.58    0.24
   3  -2   0    8.24    0.28
   3  -2   0    7.93    0.26
  -3   2   0    9.50    0.45
  -3   2   0    8.56    0.23
  -3   2   0    8.17    0.23
   2  -2   0    2.87    0.09
   2  -2   0    3.06    0.16
   2  -2   0    2.71    0.09
   2  -2   0    2.75    0.09
   2  -2   0    2.78    0.09
   2  -2   0    2.96    0.11
   2  -2   0    2.77    0.11
  -2   2   0    2.90    0.11
  -2   2   0    2.72    0.09
  -2   2   0    2.93    0.09
  -2   2   0    2.83    0.16
   1  -2   0    0.04    0.01
   1  -2   0    0.05    0.02
   1  -2   0    0.05    0.02
   1  -2   0    0.04    0.02
   1  -2   0    0.05    0.02
  -1   2   0    0.05    0.02
  -1   2   0    0.03    0.02
  -1   2   0    0.07    0.02
  -1   2   0    0.05    0.02
  -1   2   0    0.05    0.01
   0  -2   0  115.56    2.72
   0  -2   0  113.51    2.73
   0  -2   0  118.42    2.83
   0  -2   0  110.06    2.75
   0   2   0  112.60    2.74
   0   2   0  115.47    2.82
   0   2   0  115.53    2.73
   0   2   0  112.54    2.73
  -1  -2   0   39.37    0.98
  -1  -2   0   41.99    1.11
  -1  -2   0   39.13    0.97
  -1  -2   0   38.25    0.97
   1   2   0   41.02    1.11
   1   2   0   39.68    0.97
   1   2   0   39.06    0.97
  -2  -2   0    1.09    0.07
  -2  -2   0    1.09    0.06
  -2  -2   0    1.08    0.07
   2   2   0    1.00    0.07
   2   2   0    1.02    0.07
   2   2   0    0.97    0.07
   2   2   0    1.01    0.07
  -3  -2   0   15.83    0.42
  -3  -2   0   15.71    0.43
  -3  -2   0   15.29    0.42
  -3  -2   0   15.95    0.48
   3   2   0   15.12    0.42
   3   2   0   15.90    0.49
   3   2   0   15.78    0.43
  -4  -2   0  238.54    5.98
  -4  -2   0  248.85    5.98
  -4  -2   0  253.93    6.02
  -4  -2   0  240.23    6.93
   4   2   0  260.32    6.02
   4   2   0  260.27    6.94
   4   2   0  245.08    5.98
  -5  -2   0    0.84    0.11
  -5  -2   0    0.98    0.10
  -5  -2   0    0.77    0.11
  -5  -2   0    0.78    0.12
   5   2   0    0.73    0.10
   5   2   0    0.83    0.11
   5   2   0    0.82    0.12
  -6  -2   0   23.23    0.65
  -6  -2   0   23.49    0.65
  -6  -2   0   23.43    0.74
  -6  -2   0   22.87    0.65
  -6  -2   0   23.23    0.64
   6   2   0   24.09    0.65
   6   2   0   20.65    0.64
   6   2   0   23.37    0.75
  -7  -2   0    1.23    0.19
  -7  -2   0    1.73    0.15
  -7  -2   0    1.24    0.19
  -7  -2   0    1.42    0.12
  -7  -2   0    1.05    0.14
  -7  -2   0    0.63    0.34
   7   2   0    1.15    0.20
   7   2   0    1.52    0.16
   7   2   0    1.48    0.19
  -8  -2   0    0.13    0.07
  -8  -2   0    0.05    0.16
  -8  -2   0    0.08    0.09
  -8  -2   0   -0.01    0.13
   8   2   0    0.01    0.10
   8   2   0   -0.12    0.15
   8   2   0    0.06    0.09
   8  -3   0    3.05    0.19
   8  -3   0    3.02    0.21
   8  -3   0    3.45    0.25
   8  -3   0    3.49    0.25
   8  -3   0    3.73    0.19
  -8   3   0    3.30    0.47
  -8   3   0    3.24    0.25
  -8   3   0    3.29    0.19
   7  -3   0    4.49    0.19
   7  -3   0    4.15    0.19
   7  -3   0    4.09    0.24
   7  -3   0    3.92    0.21
   7  -3   0    3.78    0.19
   7  -3   0    3.91    0.22
  -7   3   0    4.36    0.22
  -7   3   0    4.07    0.41
  -7   3   0    3.96    0.18
   6  -3   0    0.14    0.06
   6  -3   0    0.17    0.06
   6  -3   0    0.31    0.06
   6  -3   0    0.22    0.06
   6  -3   0    0.20    0.07
   6  -3   0    0.35    0.08
  -6   3   0    0.18    0.15
  -6   3   0    0.21    0.08
  -6   3   0    0.23    0.07
  -6   3   0    0.21    0.06
   5  -3   0    0.52    0.07
   5  -3   0    0.53    0.07
   5  -3   0    0.44    0.09
   5  -3   0    0.50    0.09
   5  -3   0    0.47    0.08
   5  -3   0    0.27    0.07
  -5   3   0    0.55    0.07
  -5   3   0    0.43    0.11
  -5   3   0    0.49    0.10
  -5   3   0    0.43    0.09
   4  -3   0    0.16    0.04
   4  -3   0    0.12    0.04
   4  -3   0    0.08    0.05
   4  -3   0    0.15    0.04
   4  -3   0    0.07    0.04
   4  -3   0    0.10    0.03
   4  -3   0    0.09    0.03
  -4   3   0    0.13    0.06
  -4   3   0    0.10    0.03
  -4   3   0    0.12    0.05
  -4   3   0    0.15    0.04
   3  -3   0   84.86    2.38
   3  -3   0   83.66    2.05
   3  -3   0   81.44    2.13
   3  -3   0   84.38    2.05
   3  -3   0   85.21    2.03
   3  -3   0   86.37    2.03
  -3   3   0   85.69    2.38
  -3   3   0   82.95    2.03
  -3   3   0   85.97    2.04
   2  -3   0    0.56    0.04
   2  -3   0    0.59    0.04
   2  -3   0    0.58    0.06
   2  -3   0    0.53    0.04
   2  -3   0    0.64    0.06
  -2   3   0    0.54    0.05
  -2   3   0    0.58    0.06
  -2   3   0    0.57    0.06
  -2   3   0    0.48    0.04
  -2   3   0    0.56    0.04
   1  -3   0   97.90    2.78
   1  -3   0   97.47    2.42
   1  -3   0  100.79    2.40
   1  -3   0  100.41    2.40
  -1   3   0  105.11    2.78
  -1   3   0  100.99    2.42
  -1   3   0  100.57    2.50
  -1   3   0  100.49    2.40
   0  -3   0   19.88    0.51
   0  -3   0   19.05    0.50
   0  -3   0   19.90    0.50
   0  -3   0   20.01    0.50
   0   3   0   20.53    0.52
   0   3   0   19.75    0.50
   0   3   0   20.36    0.50
   0   3   0   19.65    0.50
  -1  -3   0    3.50    0.12
  -1  -3   0    3.74    0.12
  -1  -3   0    3.73    0.12
  -1  -3   0    3.52    0.12
   1   3   0    3.67    0.12
   1   3   0    3.63    0.12
   1   3   0    3.59    0.12
   1   3   0    3.62    0.12
  -2  -3   0   35.52    0.98
  -2  -3   0   34.00    0.87
  -2  -3   0   34.00    0.86
   2   3   0   32.95    0.86
   2   3   0   35.54    0.86
   2   3   0   33.68    0.98
   2   3   0   35.00    0.87
  -3  -3   0   64.48    1.60
  -3  -3   0   63.09    1.59
  -3  -3   0   66.60    1.83
   3   3   0   64.42    1.59
   3   3   0   64.51    1.59
   3   3   0   64.93    1.60
   3   3   0   63.80    1.83
  -4  -3   0    1.68    0.12
  -4  -3   0    2.14    0.13
  -4  -3   0    2.29    0.13
   4   3   0    1.89    0.12
   4   3   0    2.07    0.13
   4   3   0    2.21    0.13
   4   3   0    2.00    0.13
  -5  -3   0    6.93    0.28
  -5  -3   0    6.98    0.26
  -5  -3   0    7.09    0.25
  -5  -3   0    7.04    0.26
   5   3   0    6.63    0.25
   5   3   0    6.79    0.28
   5   3   0    6.76    0.26
  -6  -3   0   23.50    0.77
  -6  -3   0   23.85    0.68
  -6  -3   0   24.08    0.68
  -6  -3   0   23.38    0.67
   6   3   0   24.68    0.68
   6   3   0   24.25    0.77
   6   3   0   24.50    0.69
  -7  -3   0    2.35    0.21
  -7  -3   0    3.11    0.17
  -7  -3   0    3.03    0.27
  -7  -3   0    2.47    0.26
  -7  -3   0    3.19    0.20
   7   3   0    2.88    0.26
   7   3   0    3.28    0.21
   7   3   0    3.34    0.23
  -8  -3   0    9.44    0.34
  -8  -3   0    9.77    0.37
  -8  -3   0    9.88    0.41
   8   3   0   10.10    0.39
   8   3   0   10.15    0.44
   8   3   0    9.78    0.46
   8  -4   0    5.49    0.30
   8  -4   0    4.61    0.22
   8  -4   0    5.27    0.24
   8  -4   0    5.47    0.27
  -8   4   0    5.44    0.47
  -8   4   0    5.29    0.23
  -8   4   0    5.15    0.28
   7  -4   0    1.77    0.15
   7  -4   0    1.32    0.12
   7  -4   0    1.53    0.17
   7  -4   0    1.51    0.15
   7  -4   0    1.62    0.14
   7  -4   0    1.57    0.17
  -7   4   0    1.50    0.20
  -7   4   0    1.66    0.27
  -7   4   0    1.66    0.17
  -7   4   0    1.24    0.13
   6  -4   0    9.43    0.30
   6  -4   0    9.20    0.29
   6  -4   0    9.10    0.37
   6  -4   0    9.14    0.29
   6  -4   0    9.23    0.29
  -6   4   0    9.24    0.29
  -6   4   0    9.51    0.51
  -6   4   0    9.41    0.37
  -6   4   0    9.11    0.30
   5  -4   0   28.05    0.74
   5  -4   0   27.66    0.87
   5  -4   0   28.27    0.79
   5  -4   0   29.07    0.74
   5  -4   0   28.08    0.73
   5  -4   0   29.01    0.76
   5  -4   0   28.72    0.72
  -5   4   0   28.21    0.73
  -5   4   0   29.10    0.73
  -5   4   0   28.74    0.87
   4  -4   0    1.35    0.09
   4  -4   0    1.48    0.08
   4  -4   0    1.43    0.08
   4  -4   0    1.46    0.11
   4  -4   0    1.42    0.11
   4  -4   0    1.38    0.08
  -4   4   0    1.33    0.08
  -4   4   0    1.46    0.09
  -4   4   0    1.38    0.10
   3  -4   0    0.06    0.03
   3  -4   0    0.13    0.04
   3  -4   0    0.08    0.03
   3  -4   0    0.09    0.03
   3  -4   0    0.06    0.04
  -3   4   0    0.04    0.03
  -3   4   0    0.06    0.04
  -3   4   0    0.11    0.03
   2  -4   0    1.60    0.07
   2  -4   0    1.61    0.07
   2  -4   0    1.59    0.07
   2  -4   0    1.56    0.09
  -2   4   0    2.03    0.10
  -2   4   0    1.52    0.07
  -2   4   0    1.58    0.09
  -2   4   0    1.60    0.07
   1  -4   0  170.45    4.04
   1  -4   0  169.26    4.20
   1  -4   0  174.03    4.04
   1  -4   0  152.51    4.07
  -1   4   0  175.99    4.07
  -1   4   0  164.28    4.04
  -1   4   0  172.35    4.04
  -1   4   0  175.00    4.20
   0  -4   0    0.17    0.04
   0  -4   0    0.28    0.04
   0  -4   0    0.17    0.04
   0  -4   0    0.26    0.05
   0   4   0    0.22    0.04
   0   4   0    0.17    0.04
   0   4   0    0.19    0.04
   0   4   0    0.28    0.05
  -1  -4   0   50.04    1.28
   1   4   0   52.40    1.27
   1   4   0   53.48    1.31
   1   4   0   51.16    1.27
  -2  -4   0    0.36    0.06
  -2  -4   0    0.19    0.05
  -2  -4   0    0.21    0.04
   2   4   0    0.26    0.05
   2   4   0    0.30    0.06
  -3  -4   0   36.10    0.92
  -3  -4   0   37.66    1.04
  -3  -4   0   35.95    0.92
   3   4   0   33.43    0.91
   3   4   0   35.12    1.04
   3   4   0   36.38    0.92
   3   4   0   36.03    0.92
  -4  -4   0   14.61    0.43
  -4  -4   0   13.68    0.47
  -4  -4   0   14.20    0.42
   4   4   0   14.35    0.43
   4   4   0   14.43    0.47
   4   4   0   14.95    0.43
   4   4   0   15.13    0.43
  -5  -4   0    0.10    0.08
  -5  -4   0    0.03    0.07
  -5  -4   0    0.00    0.06
  -5  -4   0    0.20    0.09
   5   4   0    0.07    0.09
   5   4   0    0.00    0.06
   5   4   0    0.04    0.07
   5   4   0   -0.09    0.06
  -6  -4   0    3.86    0.25
  -6  -4   0    4.08    0.21
  -6  -4   0    4.02    0.23
  -6  -4   0    3.92    0.24
   6   4   0    4.16    0.26
   6   4   0    3.99    0.22
   6   4   0    4.20    0.24
   6   4   0    4.08    0.24
  -7  -4   0    2.51    0.18
  -7  -4   0    2.82    0.21
  -7  -4   0    2.27    0.29
  -7  -4   0    2.65    0.23
   7   4   0    2.86    0.22
   7   4   0    2.98    0.30
   7   4   0    2.58    0.23
   8   4   0    3.09    0.28
   8   4   0    2.90    0.25
   8  -5   0    0.26    0.08
   8  -5   0    0.46    0.12
   8  -5   0    0.33    0.10
   8  -5   0    0.56    0.15
  -8   5   0    0.49    0.09
  -8   5   0    0.57    0.13
   7  -5   0   11.63    0.38
   7  -5   0   11.41    0.36
   7  -5   0   11.14    0.35
   7  -5   0   11.22    0.40
   7  -5   0   11.35    0.44
   7  -5   0   11.48    0.35
  -7   5   0   11.24    0.35
  -7   5   0   11.84    0.37
  -7   5   0   10.36    0.46
   6  -5   0   11.13    0.42
   6  -5   0   11.16    0.33
   6  -5   0   11.18    0.34
   6  -5   0   11.21    0.39
   6  -5   0   11.15    0.35
   6  -5   0   11.03    0.33
   6  -5   0   11.59    0.33
  -6   5   0   11.20    0.43
  -6   5   0   11.07    0.33
  -6   5   0   10.74    0.34
   5  -5   0    0.10    0.05
   5  -5   0    0.14    0.05
   5  -5   0    0.05    0.06
   5  -5   0    0.09    0.04
   5  -5   0    0.16    0.05
   5  -5   0    0.11    0.07
  -5   5   0    0.11    0.08
  -5   5   0    0.12    0.06
  -5   5   0    0.16    0.04
   4  -5   0   27.70    0.75
   4  -5   0   27.31    0.69
   4  -5   0   26.99    0.70
   4  -5   0   27.21    0.70
   4  -5   0   26.99    0.69
   4  -5   0   26.86    0.82
  -4   5   0   26.86    0.69
  -4   5   0   28.21    0.70
  -4   5   0   28.21    0.82
   3  -5   0    5.85    0.21
   3  -5   0    5.65    0.18
   3  -5   0    5.72    0.18
   3  -5   0    5.74    0.21
   3  -5   0    6.09    0.18
  -3   5   0    5.97    0.18
  -3   5   0    5.98    0.21
  -3   5   0    5.88    0.22
  -3   5   0    5.75    0.18
   2  -5   0    0.68    0.07
   2  -5   0    0.71    0.06
   2  -5   0    0.65    0.06
   2  -5   0    0.57    0.06
  -2   5   0    0.63    0.06
  -2   5   0    0.53    0.07
  -2   5   0    0.66    0.06
  -2   5   0    0.64    0.06
   1  -5   0    8.24    0.23
   1  -5   0    7.67    0.23
   1  -5   0    7.96    0.25
   1  -5   0    8.17    0.23
  -1   5   0    8.36    0.25
  -1   5   0    7.76    0.23
  -1   5   0    8.16    0.23
   0  -5   0    2.74    0.11
   0  -5   0    2.92    0.12
   0   5   0    3.05    0.12
   0   5   0    3.02    0.12
   0   5   0    2.57    0.11
  -1  -5   0    0.42    0.07
  -1  -5   0    0.37    0.07
   1   5   0    0.39    0.07
   1   5   0    0.41    0.07
   1   5   0    0.35    0.06
  -2  -5   0    2.36    0.12
  -2  -5   0    2.29    0.12
   2   5   0    2.17    0.12
   2   5   0    2.17    0.10
   2   5   0    2.43    0.13
  -3  -5   0   19.82    0.56
  -3  -5   0   20.29    0.60
  -3  -5   0   19.50    0.55
   3   5   0   19.92    0.55
   3   5   0   20.97    0.56
   3   5   0   19.66    0.60
   3   5   0   20.34    0.55
  -4  -5   0    0.81    0.12
  -4  -5   0    1.02    0.12
  -4  -5   0    0.90    0.13
   4   5   0    0.98    0.12
   4   5   0    1.13    0.13
   4   5   0    1.08    0.14
  -5  -5   0    8.23    0.30
  -5  -5   0    7.85    0.33
  -5  -5   0    8.43    0.31
   5   5   0    7.91    0.32
   5   5   0    8.21    0.32
   5   5   0    8.14    0.33
   5   5   0    7.83    0.30
  -6  -5   0    1.84    0.23
  -6  -5   0    2.46    0.19
  -6  -5   0    1.85    0.19
   6   5   0    1.81    0.25
   6   5   0    2.11    0.18
   6   5   0    2.25    0.20
   6   5   0    1.97    0.24
  -7  -5   0    0.13    0.10
  -7  -5   0    0.17    0.13
  -7  -5   0   -0.05    0.18
   7   5   0    0.27    0.11
   7   5   0    0.26    0.16
   7   5   0   -0.02    0.10
   8  -6   0    3.60    0.25
   8  -6   0    3.30    0.18
   8  -6   0    3.31    0.27
   8  -6   0    3.38    0.22
  -8   6   0    3.39    0.26
  -8   6   0    3.82    0.19
   7  -6   0    4.05    0.20
   7  -6   0    4.15    0.23
   7  -6   0    4.35    0.26
   7  -6   0    3.97    0.21
   7  -6   0    4.41    0.19
   7  -6   0    4.50    0.23
   7  -6   0    4.47    0.18
  -7   6   0    4.35    0.19
  -7   6   0    4.57    0.32
  -7   6   0    4.48    0.23
   6  -6   0    4.94    0.19
   6  -6   0    5.19    0.21
   6  -6   0    5.17    0.20
   6  -6   0    5.22    0.25
   6  -6   0    5.14    0.21
   6  -6   0    4.49    0.19
   6  -6   0    4.97    0.24
  -6   6   0    5.12    0.21
  -6   6   0    4.74    0.29
  -6   6   0    5.05    0.19
   5  -6   0   26.74    0.71
   5  -6   0   27.69    0.69
   5  -6   0   27.05    0.69
   5  -6   0   27.06    0.84
   5  -6   0   27.17    0.77
   5  -6   0   26.54    0.71
  -5   6   0   27.59    0.71
  -5   6   0   27.69    0.84
  -5   6   0   27.29    0.70
   4  -6   0    1.99    0.13
   4  -6   0    1.61    0.13
   4  -6   0    1.88    0.10
   4  -6   0    1.95    0.10
   4  -6   0    1.73    0.10
  -4   6   0    1.85    0.14
  -4   6   0    1.88    0.10
  -4   6   0    1.88    0.11
   3  -6   0   13.98    0.39
   3  -6   0   14.25    0.38
   3  -6   0   14.10    0.43
   3  -6   0   14.53    0.38
  -3   6   0   14.27    0.43
  -3   6   0   14.49    0.44
  -3   6   0   14.31    0.38
  -3   6   0   14.13    0.38
   2  -6   0   22.51    0.58
   2  -6   0   22.19    0.61
   2  -6   0   22.03    0.57
   2  -6   0   22.71    0.57
  -2   6   0   22.57    0.62
  -2   6   0   22.88    0.57
  -2   6   0   21.70    0.57
   1  -6   0    1.23    0.08
   1  -6   0    1.31    0.09
   1  -6   0    1.15    0.09
   1  -6   0    1.16    0.08
  -1   6   0    1.17    0.09
  -1   6   0    0.94    0.09
  -1   6   0    1.12    0.08
   0  -6   0    2.61    0.11
   0  -6   0    2.58    0.12
   0  -6   0    2.55    0.13
   0   6   0    2.59    0.12
   0   6   0    2.58    0.12
   0   6   0    2.49    0.11
  -1  -6   0   -0.02    0.04
  -1  -6   0    0.09    0.04
   1   6   0    0.12    0.04
   1   6   0    0.17    0.06
   1   6   0    0.09    0.05
  -2  -6   0    0.45    0.09
  -2  -6   0    0.36    0.07
   2   6   0    0.35    0.06
   2   6   0    0.31    0.06
   2   6   0    0.39    0.08
  -3  -6   0    0.12    0.06
  -3  -6   0    0.19    0.07
   3   6   0    0.27    0.05
   3   6   0    0.15    0.08
   3   6   0    0.21    0.06
   3   6   0    0.19    0.06
  -4  -6   0    2.28    0.16
  -4  -6   0    1.88    0.16
   4   6   0    1.98    0.15
   4   6   0    2.13    0.17
   4   6   0    2.15    0.19
   4   6   0    1.95    0.15
  -5  -6   0    1.21    0.14
  -5  -6   0    1.37    0.17
   5   6   0    1.34    0.16
   5   6   0    1.26    0.22
   5   6   0    1.45    0.20
   5   6   0    1.58    0.17
  -6  -6   0    0.79    0.14
  -6  -6   0    1.00    0.19
   6   6   0    0.50    0.17
   6   6   0    0.68    0.11
   6   6   0    0.81    0.14
   7  -7   0    1.16    0.18
   7  -7   0    1.61    0.21
   7  -7   0    1.49    0.19
   7  -7   0    1.30    0.18
   7  -7   0    1.11    0.12
   7  -7   0    1.44    0.16
   7  -7   0    1.18    0.18
  -7   7   0    1.30    0.19
  -7   7   0    1.37    0.14
  -7   7   0    1.38    0.28
   6  -7   0    7.15    0.31
   6  -7   0    7.17    0.24
   6  -7   0    6.79    0.29
   6  -7   0    5.97    0.25
   6  -7   0    6.61    0.23
   6  -7   0    6.37    0.23
  -6   7   0    7.09    0.25
  -6   7   0    6.38    0.33
  -6   7   0    6.95    0.24
   5  -7   0    2.70    0.15
   5  -7   0    2.73    0.18
   5  -7   0    2.96    0.14
   5  -7   0    2.88    0.18
   5  -7   0    2.82    0.13
   5  -7   0    2.65    0.14
  -5   7   0    2.69    0.14
  -5   7   0    2.72    0.20
  -5   7   0    2.90    0.16
   4  -7   0   17.69    0.49
   4  -7   0   18.42    0.55
   4  -7   0   18.65    0.48
   4  -7   0   18.00    0.48
  -4   7   0   18.54    0.49
  -4   7   0   18.90    0.49
  -4   7   0   18.52    0.57
   3  -7   0   11.53    0.34
   3  -7   0   11.71    0.33
   3  -7   0   12.05    0.33
   3  -7   0   11.70    0.38
  -3   7   0   11.77    0.33
  -3   7   0   12.36    0.34
  -3   7   0   12.22    0.32
  -3   7   0   11.96    0.39
   2  -7   0    2.62    0.12
   2  -7   0    2.41    0.14
   2  -7   0    2.55    0.12
   2  -7   0    2.58    0.12
  -2   7   0    2.62    0.12
  -2   7   0    2.55    0.15
  -2   7   0    2.54    0.13
   1  -7   0    5.84    0.20
   1  -7   0    5.92    0.20
   1  -7   0    5.77    0.21
   1  -7   0    5.97    0.19
  -1   7   0    5.71    0.20
  -1   7   0    6.01    0.21
  -1   7   0    6.03    0.22
   0  -7   0   11.19    0.33
   0  -7   0   11.10    0.32
   0  -7   0   10.34    0.32
   0   7   0   11.10    0.34
   0   7   0   10.87    0.32
   0   7   0   11.09    0.33
  -1  -7   0    0.01    0.05
  -1  -7   0    0.03    0.05
   1   7   0    0.01    0.06
   1   7   0    0.01    0.06
   1   7   0    0.03    0.04
  -2  -7   0    2.24    0.15
  -2  -7   0    2.50    0.15
   2   7   0    2.63    0.15
   2   7   0    2.41    0.16
   2   7   0    2.64    0.17
  -3  -7   0    1.57    0.15
  -3  -7   0    1.47    0.14
   3   7   0    1.57    0.17
   3   7   0    1.60    0.18
   3   7   0    1.69    0.14
  -4  -7   0    0.06    0.09
  -4  -7   0   -0.01    0.09
   4   7   0    0.01    0.11
   4   7   0    0.04    0.06
   4   7   0   -0.01    0.09
  -5  -7   0    0.61    0.12
  -5  -7   0    0.63    0.13
   5   7   0    0.42    0.10
   5   7   0    0.22    0.16
  -6  -7   0    3.10    0.25
  -6  -7   0    1.88    0.26
   6   7   0    2.88    0.23
   6  -8   0    0.21    0.09
   6  -8   0    0.21    0.06
   6  -8   0    0.15    0.09
   6  -8   0    0.26    0.08
   6  -8   0    0.29    0.10
  -6   8   0    0.33    0.10
  -6   8   0    0.33    0.08
   5  -8   0    4.79    0.19
   5  -8   0    4.76    0.19
   5  -8   0    4.88    0.24
   5  -8   0    4.57    0.18
  -5   8   0    4.78    0.19
  -5   8   0    5.01    0.21
   4  -8   0    6.35    0.21
   4  -8   0    6.15    0.20
   4  -8   0    6.01    0.21
   4  -8   0    5.98    0.26
  -4   8   0    6.12    0.22
  -4   8   0    6.05    0.21
   3  -8   0    0.06    0.05
   3  -8   0    0.06    0.06
   3  -8   0   -0.02    0.06
   3  -8   0   -0.04    0.05
  -3   8   0   -0.03    0.05
  -3   8   0    0.03    0.05
  -3   8   0   -0.01    0.06
  -3   8   0    0.00    0.09
   2  -8   0   32.96    0.83
   2  -8   0   32.08    0.84
   2  -8   0   33.03    0.89
   2  -8   0   32.62    0.83
  -2   8   0   32.30    0.84
  -2   8   0   32.93    0.84
  -2   8   0   32.62    0.89
   1  -8   0   11.24    0.33
   1  -8   0   11.33    0.36
   1  -8   0   11.29    0.33
   1  -8   0   10.78    0.33
  -1   8   0   11.10    0.36
  -1   8   0   11.36    0.34
  -1   8   0   10.86    0.33
   0  -8   0    3.06    0.15
   0  -8   0    3.17    0.16
   0  -8   0    3.07    0.15
   0   8   0    3.16    0.18
   0   8   0    3.13    0.18
   0   8   0    3.35    0.15
  -1  -8   0    7.25    0.26
  -1  -8   0    6.55    0.25
  -1  -8   0    6.98    0.25
   1   8   0    7.57    0.27
   1   8   0    6.70    0.27
   1   8   0    6.98    0.25
  -2  -8   0    7.38    0.27
  -2  -8   0    7.01    0.27
   2   8   0    7.21    0.28
   2   8   0    7.23    0.27
   2   8   0    7.03    0.29
  -3  -8   0    0.11    0.08
  -3  -8   0   -0.08    0.08
   3   8   0   -0.22    0.10
   3   8   0   -0.02    0.07
   3   8   0   -0.21    0.09
  -4  -8   0    4.13    0.24
  -4  -8   0    3.85    0.23
   4   8   0    3.83    0.27
   4   8   0    3.16    0.30
   4   8   0    4.11    0.23
  -5  -8   0    0.21    0.12
  -5  -8   0    0.23    0.12
   5   8   0    0.36    0.10
   5   8   0    0.22    0.16
   5  -9   0    1.04    0.11
   5  -9   0    0.87    0.14
   5  -9   0    1.02    0.13
   5  -9   0    0.94    0.18
   5  -9   0    0.68    0.13
  -5   9   0    0.96    0.16
  -5   9   0    0.84    0.12
   4  -9   0    3.75    0.22
   4  -9   0    3.93    0.18
   4  -9   0    4.06    0.18
   4  -9   0    4.23    0.18
  -4   9   0    4.12    0.18
  -4   9   0    4.15    0.20
   3  -9   0   12.07    0.40
   3  -9   0   11.42    0.34
   3  -9   0   12.06    0.35
   3  -9   0   11.96    0.35
  -3   9   0   11.79    0.35
  -3   9   0   12.24    0.36
  -3   9   0   10.53    0.33
  -3   9   0   11.55    0.42
   2  -9   0    4.30    0.21
   2  -9   0    4.05    0.18
   2  -9   0    3.85    0.18
   2  -9   0    3.78    0.17
  -2   9   0    3.89    0.17
  -2   9   0    3.85    0.20
  -2   9   0    4.06    0.24
   1  -9   0    2.33    0.14
   1  -9   0    2.36    0.16
  -1   9   0    2.25    0.19
  -1   9   0    2.39    0.15
  -1   9   0    2.31    0.18
   0  -9   0   24.59    0.68
   0  -9   0   25.01    0.67
   0  -9   0   23.40    0.67
   0   9   0   25.45    0.68
   0   9   0   25.30    0.69
   0   9   0   24.85    0.70
  -1  -9   0    1.96    0.15
  -1  -9   0    1.93    0.16
   1   9   0    2.13    0.22
   1   9   0    1.84    0.19
   1   9   0    2.21    0.16
  -2  -9   0    2.97    0.19
  -2  -9   0    2.79    0.20
   2   9   0    3.17    0.25
   2   9   0    3.03    0.19
   2   9   0    2.79    0.21
  -3  -9   0    2.25    0.20
  -3  -9   0    2.52    0.22
   3   9   0    2.06    0.23
   3   9   0    2.77    0.19
   3   9   0    2.20    0.28
  -4  -9   0   -0.14    0.11
  -4  -9   0   -0.14    0.12
   4   9   0    0.10    0.16
   4   9   0    0.00    0.21
   4 -10   0    2.57    0.17
   4 -10   0    3.04    0.23
   4 -10   0    2.58    0.19
   4 -10   0    2.65    0.15
  -4  10   0    2.51    0.20
  -4  10   0    2.69    0.17
   3 -10   0    0.08    0.06
   3 -10   0    0.09    0.09
   3 -10   0    0.03    0.09
   3 -10   0    0.01    0.09
  -3  10   0    0.07    0.10
  -3  10   0    0.06    0.07
   2 -10   0    3.27    0.20
   2 -10   0    3.19    0.17
   2 -10   0    3.65    0.22
   2 -10   0    3.57    0.20
  -2  10   0    3.61    0.22
  -2  10   0    3.45    0.18
  -2  10   0    3.18    0.28
   1 -10   0    5.87    0.25
  -1  10   0    7.00    0.29
  -1  10   0    7.13    0.26
  -1  10   0    6.83    0.32
   0 -10   0   -0.19    0.62
   0 -10   0    0.40    0.08
   0 -10   0    0.31    0.09
   0  10   0    0.20    0.13
   0  10   0    0.25    0.08
   0  10   0    0.24    0.14
  -1 -10   0   -0.39    0.74
  -1 -10   0    1.42    0.16
  -1 -10   0    1.34    0.18
   1  10   0    1.54    0.16
   1  10   0    1.59    0.26
   1  10   0    1.36    0.17
  -2 -10   0    6.02    0.27
  -2 -10   0    5.74    0.29
   2  10   0    5.90    0.27
   2  10   0    5.75    0.33
   2  10   0    5.49    0.36
   0 -11   1   -0.85    0.76
  -1  11  -1    0.23    0.10
   1 -11   1   -0.29    0.66
   2 -11   1   -0.54    0.54
   2  10  -1   -0.05    0.15
   2  10  -1   -0.08    0.08
   2  10  -1   -0.02    0.17
  -2 -10   1   -0.03    0.10
  -2 -10   1   -0.09    0.09
   1  10  -1    8.36    0.37
   1  10  -1    8.04    0.36
   1  10  -1    7.23    0.30
  -1 -10   1    8.05    0.31
  -1 -10   1    6.87    0.29
   0  10  -1    0.28    0.15
   0  10  -1    0.30    0.08
   0  10  -1    0.24    0.13
   0 -10   1    0.24    0.10
   0 -10   1   -0.15    0.52
   0 -10   1    0.19    0.07
  -1  10  -1    7.46    0.35
  -1  10  -1    7.61    0.28
  -1  10  -1    7.30    0.32
   1 -10   1    7.46    0.28
   1 -10   1    7.75    0.28
  -2  10  -1    3.42    0.18
  -2  10  -1    2.73    0.27
  -2  10  -1    3.42    0.23
   2 -10   1    3.28    0.20
   2 -10   1    3.26    0.17
  -3  10  -1   -0.01    0.07
  -3  10  -1    0.07    0.11
   3 -10   1   -0.01    0.09
   3 -10   1    0.07    0.06
   3 -10   1    0.20    0.10
   3 -10   1    0.09    0.10
  -4  10  -1    4.49    0.26
  -4  10  -1    4.77    0.22
   4 -10   1    5.11    0.27
   4 -10   1    4.87    0.23
   4 -10   1    5.09    0.21
   4   9  -1   -0.11    0.16
  -4  -9   1   -0.01    0.10
  -4  -9   1    0.00    0.12
   3   9  -1    1.65    0.28
   3   9  -1    1.54    0.17
   3   9  -1    1.71    0.25
  -3  -9   1    1.55    0.17
  -3  -9   1    1.78    0.20
   2   9  -1    0.69    0.13
   2   9  -1    0.30    0.11
   2   9  -1    0.35    0.12
  -2  -9   1    0.50    0.09
  -2  -9   1    0.51    0.09
  -2  -9   1   -0.34    0.61
   1   9  -1   -0.07    0.09
   1   9  -1   -0.03    0.10
   1   9  -1    0.00    0.06
  -1  -9   1   -0.08    0.08
  -1  -9   1   -0.27    0.42
  -1  -9   1    0.05    0.07
   0   9  -1    0.61    0.12
   0   9  -1    0.73    0.12
   0   9  -1    0.71    0.12
   0  -9   1   -0.39    0.44
   0  -9   1    0.84    0.11
   0  -9   1    0.54    0.09
   0  -9   1    0.84    0.14
  -1   9  -1   14.89    0.44
  -1   9  -1   14.32    0.47
  -1   9  -1   14.63    0.43
   1  -9   1   14.46    0.43
   1  -9   1   14.17    0.43
   1  -9   1   15.10    0.43
  -2   9  -1    1.97    0.20
  -2   9  -1    1.90    0.13
  -2   9  -1    2.16    0.17
   2  -9   1    1.92    0.15
   2  -9   1    1.90    0.13
   2  -9   1    2.22    0.16
  -3   9  -1   17.53    0.57
  -3   9  -1   18.54    0.52
  -3   9  -1   18.22    0.51
   3  -9   1   18.70    0.51
   3  -9   1   18.07    0.52
   3  -9   1   18.92    0.57
   3  -9   1   18.22    0.51
  -4   9  -1    6.62    0.27
  -4   9  -1    6.72    0.24
   4  -9   1    7.02    0.25
   4  -9   1    6.96    0.24
   4  -9   1    6.60    0.25
   4  -9   1    6.66    0.29
  -5   9  -1    2.55    0.22
  -5   9  -1    2.62    0.20
  -5   9  -1    2.94    0.16
   5  -9   1    2.72    0.20
   5  -9   1    2.21    0.18
   5  -9   1    2.64    0.18
   5  -9   1    2.57    0.19
   5  -9   1    2.65    0.15
  -6   9  -1    7.48    0.28
  -6   9  -1    6.79    0.38
  -6   9  -1    7.25    0.32
   6  -9   1    7.45    0.33
   6  -9   1    7.25    0.29
   6  -9   1    7.34    0.28
   6  -9   1    6.63    0.26
   5   8  -1    1.79    0.20
   5   8  -1    1.74    0.19
  -5  -8   1    1.44    0.22
  -5  -8   1    2.18    0.23
   4   8  -1    4.43    0.22
   4   8  -1    4.53    0.27
   4   8  -1    4.39    0.31
   4   8  -1    5.16    0.24
  -4  -8   1    4.72    0.25
  -4  -8   1    4.76    0.25
   3   8  -1    0.62    0.11
   3   8  -1    0.86    0.13
   3   8  -1    0.71    0.13
  -3  -8   1    0.75    0.14
  -3  -8   1    0.69    0.11
  -3  -8   1   -0.38    0.52
   2   8  -1    6.49    0.28
   2   8  -1    6.28    0.25
   2   8  -1    6.73    0.27
  -2  -8   1    6.46    0.26
  -2  -8   1    6.52    0.26
   1   8  -1    5.45    0.22
   1   8  -1    5.41    0.24
   1   8  -1    5.56    0.23
  -1  -8   1    5.42    0.22
  -1  -8   1    5.09    0.21
   0   8  -1    2.72    0.17
   0   8  -1    2.54    0.14
   0   8  -1    2.65    0.17
   0  -8   1    2.77    0.14
   0  -8   1    2.90    0.15
   0  -8   1    2.75    0.15
  -1   8  -1    7.08    0.27
  -1   8  -1    6.91    0.25
  -1   8  -1    6.99    0.24
   1  -8   1    6.85    0.24
   1  -8   1    6.72    0.23
   1  -8   1    6.72    0.24
  -2   8  -1    4.75    0.20
  -2   8  -1    4.74    0.18
  -2   8  -1    4.65    0.22
   2  -8   1    4.63    0.18
   2  -8   1    4.88    0.21
   2  -8   1    4.83    0.20
   2  -8   1    4.83    0.19
  -3   8  -1   13.02    0.38
  -3   8  -1   13.36    0.43
  -3   8  -1   12.98    0.41
  -3   8  -1   13.36    0.39
   3  -8   1   12.88    0.38
   3  -8   1   13.14    0.42
   3  -8   1   13.08    0.38
   3  -8   1   13.12    0.37
  -4   8  -1    5.76    0.21
  -4   8  -1    5.65    0.27
  -4   8  -1    5.58    0.22
  -4   8  -1    5.63    0.25
  -4   8  -1    5.26    0.19
   4  -8   1    5.54    0.21
   4  -8   1    5.88    0.25
   4  -8   1    5.54    0.21
   4  -8   1    5.75    0.21
  -5   8  -1   15.16    0.44
  -5   8  -1   14.38    0.51
  -5   8  -1   14.57    0.43
   5  -8   1   14.69    0.44
   5  -8   1   14.66    0.42
   5  -8   1   15.23    0.42
   5  -8   1   14.63    0.43
   5  -8   1   15.16    0.49
  -6   8  -1   -0.11    0.10
  -6   8  -1    0.09    0.14
  -6   8  -1   -0.17    0.07
   6  -8   1    0.13    0.06
   6  -8   1   -0.07    0.09
   6  -8   1    0.09    0.09
   6  -8   1    0.02    0.10
   6  -8   1   -0.05    0.08
  -7   8  -1    1.12    0.16
  -7   8  -1    1.38    0.23
   7  -8   1    2.03    0.26
   6   7  -1    7.51    0.35
   6   7  -1    8.16    0.35
  -6  -7   1    7.34    0.36
  -6  -7   1    8.06    0.36
   5   7  -1    9.61    0.37
   5   7  -1    9.12    0.41
   5   7  -1    9.50    0.40
   5   7  -1   10.40    0.37
  -5  -7   1   10.83    0.38
  -5  -7   1    9.83    0.38
   4   7  -1    0.71    0.14
   4   7  -1    0.52    0.11
   4   7  -1    0.47    0.08
   4   7  -1    0.62    0.11
  -4  -7   1    0.56    0.10
  -4  -7   1    0.58    0.10
   3   7  -1   15.27    0.46
   3   7  -1   14.35    0.46
   3   7  -1   14.61    0.46
   3   7  -1   14.61    0.46
   3   7  -1   15.36    0.46
  -3  -7   1   15.62    0.47
  -3  -7   1   15.82    0.46
   2   7  -1    5.81    0.24
   2   7  -1    5.72    0.23
   2   7  -1    5.83    0.23
  -2  -7   1    5.83    0.23
  -2  -7   1    5.99    0.23
   1   7  -1    1.58    0.13
   1   7  -1    1.48    0.11
   1   7  -1    1.57    0.13
  -1  -7   1    1.41    0.11
  -1  -7   1    1.56    0.12
   0   7  -1   17.11    0.47
   0   7  -1   17.95    0.50
   0   7  -1   17.50    0.48
   0  -7   1   16.77    0.47
   0  -7   1   16.62    0.48
  -1   7  -1    2.97    0.15
  -1   7  -1    3.04    0.13
  -1   7  -1    2.92    0.14
   1  -7   1    2.99    0.15
   1  -7   1    3.20    0.13
   1  -7   1    2.91    0.13
  -2   7  -1    0.24    0.06
  -2   7  -1    0.23    0.07
  -2   7  -1    0.12    0.04
   2  -7   1   -0.13    0.17
   2  -7   1    0.16    0.06
   2  -7   1    0.13    0.04
   2  -7   1    0.22    0.05
   2  -7   1    0.19    0.05
  -3   7  -1    4.69    0.18
  -3   7  -1    4.46    0.17
  -3   7  -1    4.75    0.19
  -3   7  -1    4.94    0.21
   3  -7   1    4.88    0.20
   3  -7   1    4.85    0.18
   3  -7   1    4.78    0.17
   3  -7   1    4.65    0.18
  -4   7  -1    3.33    0.16
  -4   7  -1    3.16    0.19
  -4   7  -1    2.80    0.17
  -4   7  -1    3.21    0.15
   4  -7   1    3.32    0.15
   4  -7   1    3.14    0.14
   4  -7   1    3.46    0.17
   4  -7   1    3.44    0.15
  -5   7  -1    4.50    0.24
  -5   7  -1    4.45    0.18
  -5   7  -1    4.74    0.20
   5  -7   1    4.68    0.19
   5  -7   1    4.32    0.19
   5  -7   1    4.80    0.23
   5  -7   1    4.63    0.20
   5  -7   1    4.45    0.18
  -6   7  -1    6.88    0.25
  -6   7  -1    6.48    0.33
  -6   7  -1    6.68    0.27
   6  -7   1    7.29    0.26
   6  -7   1    6.66    0.24
   6  -7   1    6.56    0.28
   6  -7   1    6.65    0.29
   6  -7   1    6.60    0.25
   6  -7   1    6.94    0.25
  -7   7  -1    9.84    0.33
  -7   7  -1    9.33    0.36
  -7   7  -1    9.10    0.46
   7  -7   1    9.61    0.32
   7  -7   1    9.56    0.33
   7  -7   1   10.07    0.36
   7  -7   1    9.80    0.35
   7   6  -1    4.32    0.28
   7   6  -1    3.91    0.29
  -7  -6   1    4.81    0.29
  -7  -6   1    3.89    0.30
   6   6  -1    1.22    0.18
   6   6  -1    1.19    0.19
   6   6  -1    0.98    0.16
  -6  -6   1    1.23    0.21
  -6  -6   1    1.20    0.19
   5   6  -1    0.30    0.08
   5   6  -1    0.29    0.09
   5   6  -1    0.02    0.11
   5   6  -1    0.31    0.11
  -5  -6   1    0.23    0.09
  -5  -6   1    0.18    0.09
   4   6  -1   26.73    0.73
   4   6  -1   25.04    0.79
   4   6  -1   26.77    0.73
   4   6  -1   26.77    0.73
  -4  -6   1   26.35    0.73
  -4  -6   1   26.18    0.73
   3   6  -1   12.30    0.38
   3   6  -1   11.80    0.39
   3   6  -1   12.20    0.37
   3   6  -1   12.53    0.38
  -3  -6   1   12.07    0.37
  -3  -6   1   11.74    0.38
   2   6  -1   16.46    0.46
   2   6  -1   16.38    0.46
   2   6  -1   16.35    0.46
   2   6  -1   15.65    0.48
  -2  -6   1   16.03    0.46
  -2  -6   1   15.53    0.46
   1   6  -1   11.25    0.36
   1   6  -1   13.10    0.36
   1   6  -1   12.36    0.36
  -1  -6   1   12.71    0.36
  -1  -6   1   12.59    0.36
   0   6  -1    0.51    0.08
   0   6  -1    0.34    0.05
   0   6  -1    0.50    0.07
   0  -6   1    0.53    0.07
   0  -6   1    0.53    0.07
  -1   6  -1    2.33    0.11
  -1   6  -1    2.28    0.12
  -1   6  -1    2.10    0.10
   1  -6   1    2.13    0.10
   1  -6   1    2.22    0.10
   1  -6   1    2.27    0.11
   1  -6   1    2.20    0.12
  -2   6  -1   21.67    0.59
  -2   6  -1   22.23    0.62
  -2   6  -1   21.26    0.55
  -2   6  -1   20.62    0.55
   2  -6   1   21.20    0.55
   2  -6   1   20.56    0.56
   2  -6   1   21.08    0.59
   2  -6   1   21.41    0.55
  -3   6  -1   15.96    0.43
  -3   6  -1   15.70    0.43
  -3   6  -1   16.26    0.47
  -3   6  -1   16.47    0.50
   3  -6   1   16.47    0.43
   3  -6   1   15.57    0.44
   3  -6   1   15.86    0.47
   3  -6   1   16.41    0.43
  -4   6  -1    0.24    0.05
  -4   6  -1    0.28    0.07
  -4   6  -1    0.32    0.06
   4  -6   1    0.40    0.07
   4  -6   1    0.24    0.06
   4  -6   1    0.35    0.06
   4  -6   1    0.27    0.06
  -5   6  -1   17.91    0.58
  -5   6  -1   17.82    0.49
  -5   6  -1   17.79    0.49
   5  -6   1   17.69    0.49
   5  -6   1   17.93    0.58
   5  -6   1   17.45    0.49
   5  -6   1   17.51    0.54
   5  -6   1   18.08    0.48
   5  -6   1   17.88    0.48
  -6   6  -1    2.07    0.14
  -6   6  -1    1.82    0.21
  -6   6  -1    2.00    0.16
   6  -6   1    2.07    0.15
   6  -6   1    2.08    0.16
   6  -6   1    2.20    0.16
   6  -6   1    2.02    0.16
   6  -6   1    1.72    0.18
   6  -6   1    1.99    0.12
   6  -6   1    1.95    0.15
  -7   6  -1    3.57    0.23
  -7   6  -1    3.51    0.30
  -7   6  -1    3.77    0.19
   7  -6   1    3.71    0.18
   7  -6   1    3.88    0.20
   7  -6   1    3.90    0.23
   7  -6   1    3.51    0.21
   7  -6   1    3.96    0.23
   7  -6   1    3.86    0.19
   7  -6   1    4.16    0.25
  -8   6  -1    2.65    0.28
  -8   6  -1    3.26    0.20
   8  -6   1    3.09    0.27
   8  -6   1    2.94    0.26
   8  -6   1    2.93    0.18
   8  -6   1    2.90    0.21
   7   5  -1   -0.01    0.09
   7   5  -1    0.03    0.11
   7   5  -1   -0.10    0.16
  -7  -5   1    0.12    0.13
  -7  -5   1    0.27    0.10
   6   5  -1    0.47    0.10
   6   5  -1    0.45    0.10
   6   5  -1    0.37    0.12
  -6  -5   1    0.44    0.12
  -6  -5   1    0.49    0.13
  -6  -5   1    0.28    0.09
   5   5  -1   13.62    0.44
   5   5  -1   13.25    0.42
   5   5  -1   13.50    0.47
   5   5  -1   13.14    0.43
  -5  -5   1   13.24    0.43
  -5  -5   1   13.94    0.43
  -5  -5   1   13.46    0.43
   4   5  -1    1.16    0.12
   4   5  -1    1.06    0.13
   4   5  -1    0.71    0.13
   4   5  -1    0.74    0.11
  -4  -5   1    0.87    0.11
  -4  -5   1    0.82    0.12
   3   5  -1    3.56    0.16
   3   5  -1    3.31    0.15
   3   5  -1    3.44    0.16
   3   5  -1    3.40    0.16
  -3  -5   1    3.22    0.16
  -3  -5   1    3.12    0.16
   2   5  -1   72.29    1.76
   2   5  -1   71.85    1.76
   2   5  -1   71.93    1.77
  -2  -5   1   69.95    1.77
  -2  -5   1   71.22    1.76
   1   5  -1   49.48    1.25
   1   5  -1   51.64    1.25
   1   5  -1   52.07    1.29
  -1  -5   1   49.98    1.26
  -1  -5   1   49.46    1.25
   0   5  -1   39.15    0.99
   0   5  -1   40.20    0.99
   0   5  -1   40.95    1.03
   0  -5   1   38.37    0.99
  -1   5  -1   76.29    2.02
  -1   5  -1   74.41    1.84
  -1   5  -1   74.26    1.77
  -1   5  -1   68.59    1.77
   1  -5   1   70.12    1.78
   1  -5   1   73.78    1.77
   1  -5   1   72.45    1.84
  -2   5  -1    0.20    0.04
  -2   5  -1    0.19    0.04
  -2   5  -1    0.17    0.04
   2  -5   1    0.16    0.04
   2  -5   1    0.13    0.04
   2  -5   1    0.27    0.05
   2  -5   1    0.17    0.04
  -3   5  -1    8.05    0.27
  -3   5  -1    7.57    0.23
  -3   5  -1    8.00    0.24
   3  -5   1    7.71    0.24
   3  -5   1    8.13    0.23
   3  -5   1    8.13    0.23
   3  -5   1    7.83    0.26
  -4   5  -1   20.66    0.71
  -4   5  -1   23.96    0.61
  -4   5  -1   23.17    0.60
   4  -5   1   24.41    0.60
   4  -5   1   22.99    0.61
   4  -5   1   23.47    0.71
   4  -5   1   23.99    0.66
   4  -5   1   23.84    0.60
   4  -5   1   23.01    0.61
  -5   5  -1    4.96    0.18
  -5   5  -1    5.11    0.20
  -5   5  -1    5.27    0.24
   5  -5   1    5.01    0.19
   5  -5   1    4.96    0.19
   5  -5   1    4.96    0.23
   5  -5   1    4.93    0.18
   5  -5   1    5.09    0.18
   5  -5   1    4.93    0.19
  -6   5  -1    0.73    0.16
  -6   5  -1    0.71    0.14
  -6   5  -1    0.48    0.10
   6  -5   1    0.69    0.11
   6  -5   1    0.76    0.11
   6  -5   1    0.68    0.09
   6  -5   1    0.74    0.14
   6  -5   1    0.66    0.11
   6  -5   1    0.61    0.12
  -7   5  -1   10.33    0.45
  -7   5  -1   10.79    0.37
  -7   5  -1   11.36    0.35
   7  -5   1   11.17    0.40
   7  -5   1   10.99    0.37
   7  -5   1   10.94    0.43
   7  -5   1   10.19    0.35
   7  -5   1   11.08    0.35
   7  -5   1   10.90    0.35
  -8   5  -1    0.04    0.13
  -8   5  -1    0.04    0.08
   8  -5   1    0.12    0.09
   8  -5   1    0.07    0.13
   8  -5   1    0.20    0.08
   8  -5   1    0.16    0.11
   8   4  -1    3.53    0.27
   8   4  -1    2.78    0.38
   8   4  -1    3.24    0.27
  -8  -4   1    2.73    0.28
  -8  -4   1    3.37    0.24
  -8  -4   1    3.42    0.21
   7   4  -1    5.53    0.34
   7   4  -1    5.24    0.29
   7   4  -1    5.36    0.27
  -7  -4   1    5.51    0.33
  -7  -4   1    5.15    0.28
  -7  -4   1    5.26    0.26
   6   4  -1    6.87    0.28
   6   4  -1    6.84    0.30
   6   4  -1    6.84    0.31
  -6  -4   1    6.64    0.32
  -6  -4   1    6.53    0.28
  -6  -4   1    6.52    0.28
  -6  -4   1    6.86    0.30
   5   4  -1    0.16    0.07
   5   4  -1    0.13    0.07
   5   4  -1    0.18    0.06
  -5  -4   1    0.14    0.08
  -5  -4   1    0.35    0.08
  -5  -4   1    0.25    0.07
  -5  -4   1    0.22    0.08
   4   4  -1    5.37    0.20
   4   4  -1    4.85    0.20
   4   4  -1    5.28    0.21
   4   4  -1    4.75    0.21
  -4  -4   1    5.05    0.20
  -4  -4   1    5.12    0.22
  -4  -4   1    5.13    0.20
  -4  -4   1    4.77    0.20
   3   4  -1  113.07    2.71
   3   4  -1  111.75    3.12
   3   4  -1  111.22    2.71
   3   4  -1  112.63    2.73
  -3  -4   1  110.01    2.71
  -3  -4   1  110.76    2.73
   2   4  -1    0.77    0.08
   2   4  -1    0.66    0.07
   2   4  -1    0.71    0.08
  -2  -4   1    0.71    0.08
  -2  -4   1    0.65    0.08
   1   4  -1   19.70    0.52
   1   4  -1   20.69    0.54
   1   4  -1   20.06    0.52
   1   4  -1   20.75    0.57
   1   4  -1   19.95    0.52
  -1  -4   1   19.99    0.52
  -1  -4   1   19.31    0.52
   0   4  -1  149.05    3.62
   0   4  -1  151.49    3.75
   0   4  -1  152.63    3.62
   0   4  -1  148.76    3.64
   0  -4   1  151.49    3.62
   0  -4   1  148.89    3.64
   0  -4   1  155.24    3.62
  -1   4  -1    2.35    0.09
  -1   4  -1    2.47    0.09
  -1   4  -1    2.42    0.10
  -1   4  -1    2.34    0.10
  -1   4  -1    2.45    0.09
   1  -4   1    2.28    0.09
   1  -4   1    2.36    0.11
   1  -4   1    2.40    0.10
   1  -4   1    2.31    0.09
  -2   4  -1   52.38    1.33
  -2   4  -1   57.12    1.54
  -2   4  -1   56.10    1.33
   2  -4   1   53.90    1.34
   2  -4   1   53.00    1.39
   2  -4   1   54.80    1.33
   2  -4   1   55.68    1.33
  -3   4  -1   37.31    1.04
  -3   4  -1   36.42    0.90
  -3   4  -1   35.44    0.90
   3  -4   1   35.16    0.90
   3  -4   1   36.89    0.89
   3  -4   1   35.85    0.95
   3  -4   1   35.16    1.04
   3  -4   1   35.81    0.89
  -4   4  -1   15.49    0.42
  -4   4  -1   13.65    0.49
  -4   4  -1   16.20    0.42
   4  -4   1   15.96    0.42
   4  -4   1   15.57    0.45
   4  -4   1   15.60    0.42
   4  -4   1   15.73    0.42
   4  -4   1   15.53    0.49
   4  -4   1   15.80    0.42
  -5   4  -1    5.02    0.18
  -5   4  -1    5.33    0.20
  -5   4  -1    5.36    0.23
   5  -4   1    5.15    0.19
   5  -4   1    4.95    0.21
   5  -4   1    5.11    0.19
   5  -4   1    5.28    0.20
   5  -4   1    5.71    0.18
   5  -4   1    4.97    0.23
  -6   4  -1    4.83    0.25
  -6   4  -1    4.83    0.21
  -6   4  -1    5.62    0.33
  -6   4  -1    4.97    0.20
   6  -4   1    4.48    0.24
   6  -4   1    5.01    0.21
   6  -4   1    4.79    0.17
   6  -4   1    5.00    0.22
   6  -4   1    4.76    0.19
   6  -4   1    4.93    0.19
   6  -4   1    4.89    0.19
  -7   4  -1    0.55    0.11
  -7   4  -1    0.58    0.17
  -7   4  -1    0.30    0.11
  -7   4  -1    0.48    0.08
   7  -4   1    0.41    0.07
   7  -4   1    0.37    0.09
   7  -4   1    0.41    0.09
   7  -4   1    0.67    0.13
   7  -4   1    0.44    0.10
   7  -4   1    0.63    0.11
  -8   4  -1    1.20    0.23
  -8   4  -1    1.31    0.39
  -8   4  -1    1.20    0.15
   8  -4   1    0.93    0.13
   8  -4   1    1.19    0.17
   8  -4   1    1.06    0.17
   8  -4   1    1.12    0.17
   8  -4   1    1.34    0.21
   8   3  -1    0.10    0.11
   8   3  -1    0.06    0.11
   8   3  -1    0.18    0.17
  -8  -3   1   -0.09    0.07
  -8  -3   1    0.13    0.09
  -8  -3   1    0.13    0.13
   7   3  -1    2.83    0.22
   7   3  -1    3.18    0.26
   7   3  -1    2.77    0.20
  -7  -3   1    2.74    0.16
  -7  -3   1    2.79    0.25
  -7  -3   1    2.83    0.19
  -7  -3   1    2.35    0.20
  -7  -3   1    2.80    0.25
   6   3  -1    9.42    0.36
   6   3  -1    8.84    0.33
   6   3  -1    9.04    0.32
  -6  -3   1    8.94    0.36
  -6  -3   1    8.98    0.33
  -6  -3   1    8.70    0.33
  -6  -3   1    8.93    0.32
   5   3  -1   23.52    0.65
   5   3  -1   22.87    0.64
   5   3  -1   22.99    0.73
  -5  -3   1   23.37    0.73
  -5  -3   1   23.37    0.64
  -5  -3   1   22.84    0.64
  -5  -3   1   23.95    0.64
   4   3  -1   20.27    0.55
   4   3  -1   19.65    0.62
   4   3  -1   19.66    0.54
  -4  -3   1   20.35    0.62
  -4  -3   1   19.32    0.54
  -4  -3   1   20.19    0.54
  -4  -3   1   20.52    0.55
   3   3  -1   36.94    0.94
   3   3  -1   36.77    1.08
   3   3  -1   38.87    0.95
  -3  -3   1   38.08    1.08
  -3  -3   1   36.18    0.94
  -3  -3   1   36.96    0.95
  -3  -3   1   37.34    0.94
   2   3  -1    1.62    0.09
   2   3  -1    1.80    0.09
  -2  -3   1    1.60    0.09
  -2  -3   1    1.54    0.09
   1   3  -1  115.16    2.82
   1   3  -1  119.55    2.82
   1   3  -1  119.64    3.25
   1   3  -1  116.39    2.83
  -1  -3   1  114.51    2.83
  -1  -3   1  118.30    2.82
   0   3  -1   42.57    1.07
   0   3  -1   44.79    1.07
   0   3  -1   44.41    1.08
   0   3  -1   46.31    1.11
   0  -3   1   41.53    1.08
   0  -3   1   43.89    1.07
   0  -3   1   44.07    1.07
  -1   3  -1  131.51    3.68
  -1   3  -1  133.79    3.18
  -1   3  -1  135.55    3.20
  -1   3  -1  134.90    3.18
  -1   3  -1  136.14    3.31
   1  -3   1  133.47    3.21
   1  -3   1  133.07    3.31
   1  -3   1  123.87    3.18
   1  -3   1  136.04    3.18
  -2   3  -1   17.29    0.45
  -2   3  -1   17.84    0.45
  -2   3  -1   18.03    0.45
  -2   3  -1   18.48    0.52
   2  -3   1   17.95    0.45
   2  -3   1   16.79    0.45
   2  -3   1   17.38    0.48
   2  -3   1   17.62    0.45
  -3   3  -1    0.10    0.03
  -3   3  -1    0.06    0.03
   3  -3   1    0.04    0.03
   3  -3   1    0.08    0.03
   3  -3   1    0.06    0.03
   3  -3   1    0.03    0.03
   3  -3   1    0.05    0.04
   3  -3   1    0.12    0.04
  -4   3  -1   28.34    0.92
  -4   3  -1   30.60    0.79
  -4   3  -1   32.54    0.79
   4  -3   1   30.95    0.93
   4  -3   1   31.22    0.83
   4  -3   1   33.06    0.83
   4  -3   1   31.14    0.79
   4  -3   1   31.75    0.79
   4  -3   1   30.77    0.79
  -5   3  -1    4.03    0.16
  -5   3  -1    4.04    0.19
  -5   3  -1    3.73    0.15
   5  -3   1    4.01    0.14
   5  -3   1    3.72    0.17
   5  -3   1    3.64    0.16
   5  -3   1    3.81    0.17
   5  -3   1    3.94    0.16
   5  -3   1    3.81    0.19
  -6   3  -1    3.17    0.17
  -6   3  -1    3.33    0.35
  -6   3  -1    2.86    0.15
   6  -3   1    2.94    0.19
   6  -3   1    3.10    0.18
   6  -3   1    2.84    0.15
   6  -3   1    3.05    0.11
   6  -3   1    3.07    0.17
   6  -3   1    2.99    0.15
  -7   3  -1    0.33    0.22
  -7   3  -1    0.30    0.07
  -7   3  -1    0.43    0.11
   7  -3   1    0.26    0.08
   7  -3   1    0.33    0.08
   7  -3   1    0.25    0.07
   7  -3   1    0.43    0.12
   7  -3   1    0.76    0.15
  -8   3  -1    1.29    0.30
  -8   3  -1    1.21    0.23
  -8   3  -1    1.21    0.15
   8  -3   1    1.40    0.20
   8  -3   1    1.14    0.16
   8  -3   1    1.66    0.18
   8  -3   1    1.28    0.21
   8  -3   1    1.46    0.14
   8   2  -1    0.46    0.11
   8   2  -1    0.43    0.12
   8   2  -1    0.19    0.15
  -8  -2   1    0.76    0.15
  -8  -2   1    0.36    0.18
  -8  -2   1    0.94    0.15
   7   2  -1    2.51    0.22
   7   2  -1    2.32    0.21
   7   2  -1    2.80    0.19
  -7  -2   1    2.42    0.23
  -7  -2   1    2.44    0.20
  -7  -2   1    2.16    0.21
  -7  -2   1    2.08    0.56
  -7  -2   1    2.37    0.13
  -7  -2   1    2.54    0.16
   6   2  -1    0.59    0.10
   6   2  -1    0.75    0.12
   6   2  -1    0.78    0.15
  -6  -2   1    0.95    0.15
  -6  -2   1    0.52    0.09
  -6  -2   1    0.95    0.14
  -6  -2   1    0.92    0.11
  -6  -2   1    0.91    0.15
   5   2  -1    0.50    0.09
   5   2  -1    0.55    0.10
   5   2  -1    0.44    0.07
  -5  -2   1    0.53    0.08
  -5  -2   1    0.35    0.07
  -5  -2   1    0.45    0.09
  -5  -2   1    0.42    0.07
   4   2  -1    7.24    0.27
   4   2  -1    7.89    0.25
   4   2  -1    7.32    0.24
  -4  -2   1    7.52    0.24
  -4  -2   1    6.88    0.27
  -4  -2   1    7.95    0.24
   3   2  -1   91.20    2.26
   3   2  -1   92.93    2.62
   3   2  -1   96.51    2.28
  -3  -2   1   94.88    2.62
  -3  -2   1   91.29    2.28
  -3  -2   1   95.55    2.26
  -3  -2   1   91.33    2.26
   2   2  -1   19.08    0.50
   2   2  -1   18.82    0.49
   2   2  -1   19.09    0.49
  -2  -2   1   19.69    0.49
  -2  -2   1   19.84    0.56
  -2  -2   1   18.58    0.49
  -2  -2   1   19.17    0.50
   1   2  -1  172.67    4.10
   1   2  -1  169.42    4.74
   1   2  -1  173.04    4.07
   1   2  -1  170.71    4.10
  -1  -2   1  175.66    4.09
  -1  -2   1  169.97    4.08
  -1  -2   1  162.57    4.12
   0   2  -1    5.90    0.17
   0   2  -1    5.65    0.17
   0   2  -1    5.82    0.17
   0  -2   1    5.96    0.17
   0  -2   1    5.61    0.16
   0  -2   1    5.80    0.17
   0  -2   1    5.84    0.17
  -1   2  -1   10.96    0.28
  -1   2  -1   11.07    0.29
  -1   2  -1   11.37    0.33
  -1   2  -1   11.16    0.29
   1  -2   1   11.02    0.28
   1  -2   1   10.99    0.29
   1  -2   1   10.93    0.29
  -2   2  -1    8.56    0.25
  -2   2  -1    8.97    0.23
  -2   2  -1    8.52    0.23
  -2   2  -1    8.66    0.23
  -2   2  -1    8.77    0.27
   2  -2   1    8.47    0.23
   2  -2   1    8.18    0.25
   2  -2   1    8.65    0.23
   2  -2   1    8.35    0.23
   2  -2   1    8.63    0.23
  -3   2  -1    8.72    0.25
  -3   2  -1    9.07    0.29
  -3   2  -1    8.78    0.25
   3  -2   1    8.90    0.25
   3  -2   1    8.42    0.29
   3  -2   1    8.93    0.25
   3  -2   1    8.62    0.25
   3  -2   1    8.94    0.25
   3  -2   1    8.57    0.26
   3  -2   1    9.24    0.25
  -4   2  -1    8.31    0.24
  -4   2  -1    7.76    0.24
  -4   2  -1    7.42    0.23
   4  -2   1    7.89    0.24
   4  -2   1    7.45    0.24
   4  -2   1    7.71    0.28
   4  -2   1    7.68    0.25
   4  -2   1    7.84    0.23
   4  -2   1    7.89    0.25
  -5   2  -1    1.92    0.12
  -5   2  -1    1.69    0.28
  -5   2  -1    1.68    0.11
  -5   2  -1    1.69    0.11
   5  -2   1    1.62    0.11
   5  -2   1    1.74    0.08
   5  -2   1    1.83    0.13
   5  -2   1    1.61    0.11
   5  -2   1    1.67    0.10
   5  -2   1    1.48    0.12
  -6   2  -1   11.06    0.65
  -6   2  -1    9.33    0.31
  -6   2  -1    9.46    0.31
  -6   2  -1    9.44    0.31
   6  -2   1    9.72    0.33
   6  -2   1    9.18    0.37
   6  -2   1    9.24    0.30
   6  -2   1    9.21    0.32
   6  -2   1    9.15    0.30
  -7   2  -1    1.17    0.16
  -7   2  -1    1.95    0.46
  -7   2  -1    0.98    0.12
  -7   2  -1    1.04    0.17
   7  -2   1    1.02    0.12
   7  -2   1    1.29    0.17
   7  -2   1    0.83    0.13
   7  -2   1    1.13    0.18
   7  -2   1    0.76    0.13
  -8   2  -1    6.93    0.30
  -8   2  -1    8.27    0.76
  -8   2  -1    7.48    0.34
  -8   2  -1    7.54    0.29
   8  -2   1    7.44    0.37
   8  -2   1    7.57    0.30
   8  -2   1    7.45    0.29
   8  -2   1    7.99    0.35
   8  -2   1    6.91    0.31
  -9   2  -1    0.93    0.16
  -9   2  -1    0.75    0.46
  -9   2  -1    1.08    0.20
  -9   2  -1    0.96    0.17
   9  -2   1    1.04    0.17
   9  -2   1    0.84    0.20
   9  -2   1    0.97    0.19
   9  -2   1    0.86    0.13
   8   1  -1    4.04    0.23
   8   1  -1    3.85    0.26
   8   1  -1    3.44    0.27
  -8  -1   1    3.03    0.71
  -8  -1   1    3.69    0.24
  -8  -1   1    3.56    0.21
  -8  -1   1    3.82    0.29
   7   1  -1    0.72    0.12
   7   1  -1    0.41    0.08
   7   1  -1    0.50    0.11
  -7  -1   1    0.71    0.11
  -7  -1   1    0.58    0.32
  -7  -1   1    0.44    0.11
  -7  -1   1    0.65    0.11
   6   1  -1    0.89    0.13
   6   1  -1    0.97    0.12
   6   1  -1    0.98    0.13
  -6  -1   1    1.06    0.10
  -6  -1   1    0.77    0.13
  -6  -1   1    0.97    0.08
  -6  -1   1    0.76    0.25
   5   1  -1    1.14    0.11
   5   1  -1    1.28    0.12
   5   1  -1    1.10    0.10
  -5  -1   1    1.34    0.12
  -5  -1   1    0.83    0.23
  -5  -1   1    1.39    0.11
  -5  -1   1    1.25    0.07
  -5  -1   1    1.38    0.10
   4   1  -1    0.35    0.06
   4   1  -1    0.50    0.07
   4   1  -1    0.58    0.08
  -4  -1   1    0.54    0.07
  -4  -1   1    0.44    0.20
  -4  -1   1    0.47    0.07
  -4  -1   1    0.57    0.09
   3   1  -1   -0.01    0.03
   3   1  -1    0.08    0.03
   3   1  -1   -0.04    0.03
  -3  -1   1   -0.02    0.03
  -3  -1   1    0.08    0.04
  -3  -1   1   -0.02    0.13
  -3  -1   1    0.03    0.04
  -3  -1   1    0.02    0.03
   2   1  -1  200.01    4.90
   2   1  -1  203.24    4.88
   2   1  -1  205.45    4.85
  -2  -1   1  202.25    5.66
  -2  -1   1  205.71    4.85
  -2  -1   1  203.75    4.92
   1   1  -1  116.48    2.92
   1   1  -1  119.14    2.90
   1   1  -1  122.69    2.92
   1   1  -1  127.81    3.36
  -1  -1   1  117.03    2.91
  -1  -1   1  120.71    2.93
  -1  -1   1  124.33    2.89
   0   1  -1   65.77    1.46
   0   1  -1   59.23    1.45
   0   1  -1   56.78    1.45
   0  -1   1   58.73    1.46
   0  -1   1   58.38    1.45
   0  -1   1   62.42    2.83
  -1   1  -1  314.19    8.66
  -1   1  -1  305.60    7.46
  -1   1  -1  309.37    7.46
  -1   1  -1  308.57    7.51
  -1   1  -1  312.44    7.73
   1  -1   1  321.11    7.99
   1  -1   1  312.31    7.51
   1  -1   1  303.87    7.74
   1  -1   1  310.70    7.46
   1  -1   1  314.12    7.47
  -2   1  -1    0.60    0.05
  -2   1  -1    0.53    0.06
  -2   1  -1    0.52    0.05
  -2   1  -1    0.48    0.04
  -2   1  -1    0.53    0.04
   2  -1   1    0.53    0.04
   2  -1   1    0.54    0.05
   2  -1   1    0.47    0.05
   2  -1   1    0.59    0.05
   2  -1   1    0.57    0.05
   2  -1   1    0.56    0.05
  -3   1  -1    1.39    0.08
  -3   1  -1    1.35    0.08
  -3   1  -1    1.47    0.09
  -3   1  -1    1.41    0.07
  -3   1  -1    1.51    0.08
   3  -1   1    1.31    0.08
   3  -1   1    1.43    0.07
   3  -1   1    1.36    0.08
   3  -1   1    1.36    0.08
   3  -1   1    1.43    0.08
   3  -1   1    1.24    0.09
   3  -1   1    1.41    0.06
  -4   1  -1   35.98    0.93
  -4   1  -1   38.42    0.96
  -4   1  -1   36.99    0.93
  -4   1  -1   37.69    0.93
   4  -1   1   35.56    0.93
   4  -1   1   37.90    0.93
   4  -1   1   36.14    1.08
   4  -1   1   36.89    0.93
   4  -1   1   35.84    0.96
  -5   1  -1    4.29    0.14
  -5   1  -1    4.45    0.18
  -5   1  -1    4.32    0.17
  -5   1  -1    4.01    0.17
  -5   1  -1    4.68    0.37
   5  -1   1    4.16    0.17
   5  -1   1    3.99    0.20
   5  -1   1    4.29    0.18
   5  -1   1    4.24    0.17
   5  -1   1    4.17    0.18
  -6   1  -1   -0.01    0.05
  -6   1  -1    0.02    0.06
  -6   1  -1    0.05    0.07
  -6   1  -1    0.10    0.20
   6  -1   1    0.05    0.05
   6  -1   1    0.09    0.05
   6  -1   1    0.05    0.08
   6  -1   1    0.08    0.06
   6  -1   1   -0.04    0.05
  -7   1  -1    2.60    0.16
  -7   1  -1    3.45    0.54
  -7   1  -1    2.54    0.20
   7  -1   1    2.84    0.21
   7  -1   1    2.45    0.16
   7  -1   1    2.34    0.16
   7  -1   1    2.41    0.17
   7  -1   1    2.70    0.21
  -8   1  -1    7.64    0.29
  -8   1  -1    7.93    0.36
  -8   1  -1    7.17    0.30
   8  -1   1    6.45    0.30
   8  -1   1    7.52    0.30
   8  -1   1    7.94    0.36
   8  -1   1    7.59    0.30
   8  -1   1    8.07    0.35
  -9   1  -1    0.12    0.19
  -9   1  -1   -0.11    0.13
  -9   1  -1   -0.30    0.48
   9  -1   1    0.17    0.18
   9  -1   1    0.04    0.11
   9  -1   1   -0.03    0.10
   9  -1   1    0.06    0.11
   9   0  -1    1.81    0.19
   9   0  -1    1.21    0.19
   9   0  -1    1.86    0.22
  -9   0   1    1.47    0.18
  -9   0   1    1.47    0.19
  -9   0   1    1.35    0.22
   8   0  -1    4.32    0.26
   8   0  -1    4.47    0.28
   8   0  -1    4.51    0.23
  -8   0   1    4.54    0.72
  -8   0   1    4.18    0.21
  -8   0   1    4.15    0.25
  -8   0   1    3.93    0.28
   7   0  -1    0.46    0.10
   7   0  -1    0.48    0.08
   7   0  -1    0.42    0.10
  -7   0   1    0.37    0.07
  -7   0   1    0.46    0.11
  -7   0   1    0.37    0.09
  -7   0   1    0.67    0.31
   6   0  -1    4.09    0.18
   6   0  -1    4.28    0.22
   6   0  -1    4.36    0.20
  -6   0   1    4.25    0.18
  -6   0   1    5.43    0.53
  -6   0   1    4.51    0.21
  -6   0   1    4.46    0.19
   5   0  -1    0.11    0.06
   5   0  -1    0.11    0.05
   5   0  -1    0.08    0.04
  -5   0   1    0.07    0.06
  -5   0   1    0.03    0.04
  -5   0   1   -0.11    0.13
  -5   0   1    0.10    0.05
   4   0  -1    0.35    0.08
   4   0  -1    0.45    0.06
  -4   0   1    0.52    0.17
  -4   0   1    0.35    0.06
  -4   0   1    0.31    0.06
  -4   0   1    0.27    0.05
   3   0  -1    1.12    0.08
   3   0  -1    1.15    0.06
   3   0  -1    1.17    0.07
   3   0  -1    1.00    0.08
  -3   0   1    1.31    0.19
  -3   0   1    1.16    0.08
  -3   0   1    1.05    0.07
  -3   0   1    1.02    0.07
   2   0  -1    0.38    0.13
   2   0  -1    0.25    0.04
   2   0  -1    0.18    0.03
   2   0  -1    0.23    0.04
  -2   0   1    0.12    0.10
  -2   0   1    0.22    0.04
  -2   0   1    0.24    0.05
  -2   0   1    0.21    0.04
   1   0  -1   10.16    0.26
   1   0  -1    9.77    0.25
   1   0  -1    9.78    0.25
   1   0  -1   10.42    0.51
   1   0  -1    9.86    0.30
   1   0  -1    9.75    0.25
  -1   0   1   10.20    0.25
  -1   0   1    9.71    0.25
  -1   0   1   10.13    0.50
  -1   0   1   10.11    0.26
  -1   0  -1   76.65    2.25
  -1   0  -1   81.07    2.08
  -1   0  -1   77.63    1.94
  -1   0  -1   88.71    1.96
   1   0   1   82.53    1.94
   1   0   1   81.22    2.08
   1   0   1   87.53    1.96
   1   0   1   81.16    2.01
   1   0   1   79.06    1.96
   1   0   1   76.53    1.94
  -2   0  -1    0.17    0.04
  -2   0  -1    0.15    0.04
  -2   0  -1    0.13    0.05
  -2   0  -1    0.16    0.05
   2   0   1    0.15    0.04
   2   0   1    0.22    0.05
   2   0   1    0.14    0.04
   2   0   1    0.13    0.04
  -3   0  -1  277.69    6.44
  -3   0  -1  273.87    7.47
  -3   0  -1  255.63    6.45
  -3   0  -1  264.58    6.89
   3   0   1  263.99    6.44
   3   0   1  296.23    6.48
   3   0   1  274.94    7.47
   3   0   1  250.70    6.44
  -4   0  -1    3.33    0.12
  -4   0  -1    3.71    0.14
   4   0   1    3.68    0.15
   4   0   1    3.36    0.14
   4   0   1    3.45    0.17
  -5   0  -1   10.95    0.34
  -5   0  -1   10.88    0.33
   5   0   1   11.22    0.34
   5   0   1   11.07    0.39
   5   0   1   11.40    0.35
  -6   0  -1    4.11    0.20
  -6   0  -1    4.27    0.18
  -6   0  -1    3.94    0.15
  -6   0  -1    4.14    0.19
  -6   0  -1    4.61    0.49
   6   0   1    4.02    0.19
   6   0   1    4.11    0.20
   6   0   1    4.27    0.19
   6   0   1    4.24    0.22
  -7   0  -1    0.28    0.10
  -7   0  -1    0.23    0.07
  -7   0  -1    0.26    0.05
  -7   0  -1    0.49    0.26
  -7   0  -1    0.30    0.09
   7   0   1    0.31    0.11
   7   0   1    0.29    0.09
   7   0   1    0.30    0.11
   7   0   1    0.23    0.08
  -8   0  -1    1.35    0.41
  -8   0  -1    2.56    0.22
  -8   0  -1    2.09    0.25
  -8   0  -1    2.12    0.17
   8   0   1    2.48    0.20
   8   0   1    2.43    0.25
   8   0   1    2.27    0.19
   8   0   1    2.60    0.22
   8   0   1    2.35    0.19
   9  -1  -1    0.32    0.09
   9  -1  -1    0.14    0.16
   9  -1  -1    0.13    0.12
  -9   1   1    0.25    0.14
  -9   1   1    0.37    0.10
  -9   1   1    0.23    0.18
  -9   1   1   -0.28    0.39
   8  -1  -1    4.62    0.27
   8  -1  -1    4.18    0.21
   8  -1  -1    4.78    0.23
   8  -1  -1    4.57    0.27
  -8   1   1    4.51    0.60
  -8   1   1    4.07    0.26
  -8   1   1    4.30    0.21
  -8   1   1    4.10    0.23
   7  -1  -1    4.82    0.23
   7  -1  -1    4.58    0.21
   7  -1  -1    4.53    0.26
  -7   1   1    4.62    0.21
  -7   1   1    4.70    0.20
  -7   1   1    5.26    0.53
  -7   1   1    4.69    0.23
   6  -1  -1    2.26    0.15
   6  -1  -1    2.17    0.13
   6  -1  -1    2.20    0.16
  -6   1   1    2.38    0.15
  -6   1   1    2.22    0.13
  -6   1   1    2.25    0.40
   5  -1  -1   16.39    0.49
   5  -1  -1   18.03    0.49
   5  -1  -1   17.51    0.58
  -5   1   1   18.15    0.48
  -5   1   1   17.16    0.48
  -5   1   1   19.97    0.97
   4  -1  -1   73.74    1.79
   4  -1  -1   69.88    2.08
   4  -1  -1   72.77    1.77
  -4   1   1   68.86    1.77
  -4   1   1   81.44    3.49
  -4   1   1   71.62    1.78
   3  -1  -1   17.12    0.45
   3  -1  -1   17.50    0.45
   3  -1  -1   17.05    0.45
  -3   1   1   19.94    0.90
  -3   1   1   17.56    0.45
  -3   1   1   17.74    0.54
  -3   1   1   17.34    0.45
  -3   1   1   17.67    0.45
   2  -1  -1   21.04    0.52
   2  -1  -1   20.49    0.53
   2  -1  -1   24.40    1.04
   2  -1  -1   19.44    0.62
   2  -1  -1   22.28    0.52
  -2   1   1   21.33    0.52
  -2   1   1   21.29    1.03
  -2   1   1   20.34    0.53
  -2   1   1   21.57    0.52
  -2   1   1   21.36    0.62
   1  -1  -1    2.56    0.09
   1  -1  -1    2.50    0.15
  -1   1   1    2.57    0.07
   0  -1  -1    0.02    0.01
   0  -1  -1    0.03    0.02
   0  -1  -1    0.06    0.02
   0  -1  -1    0.05    0.02
   0   1   1    0.02    0.02
   0   1   1    0.05    0.02
   0   1   1    0.06    0.02
  -1  -1  -1   20.53    0.58
  -1  -1  -1   20.91    0.51
  -1  -1  -1   19.61    0.50
  -1  -1  -1   19.78    0.50
   1   1   1   19.86    0.50
   1   1   1   20.63    0.51
   1   1   1   20.65    0.50
  -2  -1  -1    0.14    0.04
  -2  -1  -1    0.08    0.03
  -2  -1  -1    0.06    0.03
   2   1   1    0.25    0.05
   2   1   1    0.25    0.05
   2   1   1    0.09    0.03
  -3  -1  -1   17.24    0.53
  -3  -1  -1   17.97    0.46
  -3  -1  -1   16.52    0.46
   3   1   1   16.45    0.46
   3   1   1   18.12    0.47
   3   1   1   18.18    0.47
   3   1   1   17.38    0.53
  -4  -1  -1   19.96    0.53
  -4  -1  -1   19.63    0.53
  -4  -1  -1   19.55    0.54
  -4  -1  -1   19.55    0.53
   4   1   1   18.97    0.53
   4   1   1   19.59    0.61
   4   1   1   19.98    0.53
  -5  -1  -1   23.08    0.62
  -5  -1  -1   22.64    0.63
  -5  -1  -1   23.03    0.62
  -5  -1  -1   22.23    0.62
   5   1   1   22.87    0.72
   5   1   1   23.74    0.63
   5   1   1   22.00    0.62
  -6  -1  -1    1.16    0.10
  -6  -1  -1    1.50    0.15
  -6  -1  -1    1.19    0.12
  -6  -1  -1    0.86    0.26
   6   1   1    1.30    0.15
   6   1   1    1.17    0.14
   6   1   1    1.19    0.13
  -7  -1  -1    6.16    0.25
  -7  -1  -1    6.05    0.22
  -7  -1  -1    5.60    0.28
  -7  -1  -1    5.72    0.27
  -7  -1  -1    5.82    0.66
   7   1   1    6.19    0.30
   7   1   1    6.22    0.26
   7   1   1    6.09    0.28
  -8  -1  -1    0.81    0.12
  -8  -1  -1    0.87    0.13
  -8  -1  -1    0.98    0.17
  -8  -1  -1    0.50    0.37
  -8  -1  -1    1.00    0.14
   8   1   1    1.21    0.18
   8   1   1    1.45    0.20
   8   1   1    0.95    0.17
   8   1   1    1.41    0.18
   9  -2  -1    4.26    0.32
   9  -2  -1    4.14    0.25
   9  -2  -1    4.04    0.22
  -9   2   1    3.67    0.27
  -9   2   1    3.46    0.70
  -9   2   1    3.92    0.22
  -9   2   1    3.81    0.32
   8  -2  -1    5.75    0.30
   8  -2  -1    5.42    0.24
   8  -2  -1    5.87    0.28
   8  -2  -1    5.41    0.23
   8  -2  -1    5.70    0.27
  -8   2   1    5.58    0.24
  -8   2   1    5.07    0.57
  -8   2   1    5.62    0.28
  -8   2   1    5.03    0.25
   7  -2  -1    1.42    0.17
   7  -2  -1    1.39    0.14
   7  -2  -1    1.53    0.12
   7  -2  -1    1.26    0.13
   7  -2  -1    1.36    0.14
   7  -2  -1    1.38    0.16
  -7   2   1    1.10    0.32
  -7   2   1    1.51    0.16
  -7   2   1    1.15    0.12
  -7   2   1    1.35    0.14
   6  -2  -1   29.06    0.77
   6  -2  -1   29.38    0.76
   6  -2  -1   30.16    0.78
   6  -2  -1   29.44    0.92
   6  -2  -1   28.83    0.77
  -6   2   1   29.88    1.49
  -6   2   1   29.71    0.77
  -6   2   1   29.33    0.77
  -6   2   1   29.31    0.77
   5  -2  -1   13.56    0.38
   5  -2  -1   13.26    0.46
   5  -2  -1   13.55    0.38
   5  -2  -1   13.97    0.39
   5  -2  -1   14.00    0.38
  -5   2   1   13.71    0.38
  -5   2   1   13.55    0.38
  -5   2   1   14.37    0.76
  -5   2   1   13.89    0.38
   4  -2  -1    2.51    0.14
   4  -2  -1    2.58    0.10
   4  -2  -1    2.77    0.11
   4  -2  -1    2.66    0.11
   4  -2  -1    2.56    0.10
  -4   2   1    2.62    0.22
  -4   2   1    2.48    0.10
  -4   2   1    2.54    0.10
  -4   2   1    2.58    0.11
   3  -2  -1   25.08    0.63
   3  -2  -1   28.40    1.25
   3  -2  -1   24.99    0.64
   3  -2  -1   25.72    0.63
   3  -2  -1   25.52    0.64
   3  -2  -1   24.40    0.75
  -3   2   1   26.05    1.24
  -3   2   1   24.41    0.63
  -3   2   1   25.65    0.63
  -3   2   1   25.78    0.76
   2  -2  -1    3.68    0.14
   2  -2  -1    3.67    0.10
   2  -2  -1    3.57    0.10
   2  -2  -1    3.57    0.13
   2  -2  -1    3.43    0.10
   2  -2  -1    3.72    0.21
   2  -2  -1    3.77    0.10
  -2   2   1    3.58    0.10
  -2   2   1    3.81    0.14
   1  -2  -1    8.24    0.20
   1  -2  -1    8.14    0.25
   1  -2  -1    8.42    0.20
   1  -2  -1    8.02    0.20
   1  -2  -1    8.16    0.23
  -1   2   1    7.89    0.20
   0  -2  -1   95.70    2.39
   0  -2  -1   95.11    2.31
   0  -2  -1   94.52    2.33
   0  -2  -1  103.12    2.31
   0   2   1   96.99    2.31
   0   2   1   97.10    2.31
   0   2   1   97.08    2.39
   0   2   1   95.44    2.33
  -1  -2  -1   27.39    0.70
  -1  -2  -1   29.00    0.79
  -1  -2  -1   27.71    0.69
   1   2   1   28.69    0.70
   1   2   1   28.04    0.70
  -2  -2  -1    7.37    0.23
  -2  -2  -1    6.93    0.21
  -2  -2  -1    6.67    0.22
   2   2   1    7.41    0.21
   2   2   1    7.28    0.21
   2   2   1    6.86    0.21
  -3  -2  -1   34.38    0.97
  -3  -2  -1   32.22    0.85
  -3  -2  -1   32.53    0.84
   3   2   1   33.90    0.85
   3   2   1   33.57    0.84
   3   2   1   31.92    0.84
   3   2   1   34.52    0.98
  -4  -2  -1    5.39    0.20
  -4  -2  -1    5.06    0.19
  -4  -2  -1    4.41    0.21
   4   2   1    5.49    0.20
   4   2   1    4.90    0.21
  -5  -2  -1    1.94    0.14
  -5  -2  -1    1.93    0.13
  -5  -2  -1    1.72    0.14
  -5  -2  -1    1.93    0.12
  -5  -2  -1    1.96    0.13
   5   2   1    1.70    0.14
   5   2   1    1.86    0.13
   5   2   1    1.76    0.14
  -6  -2  -1    2.89    0.19
  -6  -2  -1    3.11    0.16
  -6  -2  -1    2.93    0.17
  -6  -2  -1    3.04    0.20
   6   2   1    3.27    0.22
   6   2   1    3.43    0.18
   6   2   1    3.32    0.20
  -7  -2  -1   11.59    0.48
  -7  -2  -1   12.62    0.39
  -7  -2  -1   12.72    0.42
  -7  -2  -1   11.90    0.43
  -7  -2  -1   12.73    0.43
   7   2   1   12.84    0.44
   7   2   1   12.36    0.42
   7   2   1   12.92    0.48
  -8  -2  -1    0.43    0.10
  -8  -2  -1    0.26    0.14
  -8  -2  -1    0.12    0.08
   8   2   1   -0.06    0.14
   8   2   1    0.26    0.11
   8   2   1    0.21    0.11
   8   2   1    0.44    0.13
   8  -3  -1    1.69    0.18
   8  -3  -1    1.76    0.20
   8  -3  -1    2.07    0.21
   8  -3  -1    1.85    0.14
   8  -3  -1    1.74    0.16
  -8   3   1    1.99    0.16
  -8   3   1    1.84    0.22
  -8   3   1    2.22    0.44
   7  -3  -1    8.71    0.30
   7  -3  -1    9.01    0.38
   7  -3  -1    8.84    0.33
   7  -3  -1    9.12    0.31
   7  -3  -1    8.88    0.30
   7  -3  -1    8.59    0.29
  -7   3   1    9.41    0.31
  -7   3   1    9.24    0.59
  -7   3   1    8.92    0.29
   6  -3  -1    1.42    0.11
   6  -3  -1    1.29    0.11
   6  -3  -1    1.29    0.14
   6  -3  -1    1.18    0.13
   6  -3  -1    1.19    0.13
   6  -3  -1    1.35    0.10
  -6   3   1    1.05    0.16
  -6   3   1    1.89    0.28
  -6   3   1    1.31    0.10
  -6   3   1    1.30    0.12
   5  -3  -1    4.32    0.16
   5  -3  -1    4.35    0.21
   5  -3  -1    4.37    0.15
   5  -3  -1    4.14    0.19
   5  -3  -1    4.35    0.16
   5  -3  -1    4.35    0.17
  -5   3   1    4.33    0.16
  -5   3   1    4.53    0.30
  -5   3   1    4.49    0.21
  -5   3   1    4.44    0.16
   4  -3  -1   62.11    1.50
   4  -3  -1   61.32    1.51
   4  -3  -1   59.03    1.76
   4  -3  -1   59.84    1.58
   4  -3  -1   62.92    1.51
   4  -3  -1   62.74    1.49
  -4   3   1   61.46    1.50
  -4   3   1   62.65    2.92
  -4   3   1   62.58    1.77
  -4   3   1   62.35    1.50
   3  -3  -1    0.22    0.04
   3  -3  -1    0.05    0.06
   3  -3  -1    0.08    0.14
   3  -3  -1    0.20    0.03
   3  -3  -1    0.16    0.04
   3  -3  -1    0.25    0.04
   3  -3  -1    0.22    0.04
  -3   3   1    0.27    0.04
  -3   3   1    0.23    0.03
  -3   3   1    0.45    0.07
   2  -3  -1    8.14    0.26
   2  -3  -1    7.78    0.41
   2  -3  -1    8.13    0.20
   2  -3  -1    7.70    0.21
   2  -3  -1    7.91    0.20
   2  -3  -1    7.63    0.24
  -2   3   1    8.36    0.26
   1  -3  -1  116.32    2.76
   1  -3  -1  114.97    3.20
   1  -3  -1  112.03    2.78
   1  -3  -1  112.06    2.88
   1  -3  -1  118.98    2.76
  -1   3   1  117.89    2.77
  -1   3   1  117.58    2.87
   0  -3  -1   10.76    0.28
   0  -3  -1   11.09    0.29
   0  -3  -1   10.53    0.28
   0  -3  -1   10.67    0.28
   0   3   1   10.59    0.28
   0   3   1   10.97    0.29
   0   3   1   10.74    0.28
   0   3   1   10.64    0.28
  -1  -3  -1    1.46    0.08
  -1  -3  -1    1.27    0.07
  -1  -3  -1    1.37    0.06
  -1  -3  -1    1.35    0.07
   1   3   1    1.30    0.07
   1   3   1    1.38    0.06
   1   3   1    1.30    0.07
   1   3   1    1.30    0.07
  -2  -3  -1   68.34    1.88
  -2  -3  -1   65.08    1.64
  -2  -3  -1   64.27    1.63
   2   3   1   69.57    1.64
   2   3   1   65.56    1.63
   2   3   1   68.26    1.63
  -3  -3  -1   25.85    0.68
  -3  -3  -1   26.47    0.78
  -3  -3  -1   25.88    0.69
   3   3   1   27.14    0.69
   3   3   1   25.56    0.77
   3   3   1   27.25    0.69
   3   3   1   25.52    0.68
  -4  -3  -1    4.34    0.19
  -4  -3  -1    4.23    0.19
  -4  -3  -1    4.53    0.18
   4   3   1    4.55    0.19
   4   3   1    4.23    0.18
   4   3   1    4.59    0.19
   4   3   1    4.32    0.20
  -5  -3  -1   14.69    0.45
  -5  -3  -1   14.70    0.51
  -5  -3  -1   15.51    0.45
  -5  -3  -1   14.80    0.45
   5   3   1   15.35    0.45
   5   3   1   15.16    0.46
   5   3   1   15.26    0.52
   5   3   1   15.06    0.45
  -6  -3  -1    0.86    0.17
  -6  -3  -1    0.56    0.12
  -6  -3  -1    0.69    0.12
  -6  -3  -1    0.65    0.12
  -6  -3  -1    0.70    0.13
   6   3   1    1.15    0.17
   6   3   1    0.85    0.14
   6   3   1    0.81    0.16
   6   3   1    0.47    0.10
  -7  -3  -1   -0.17    0.13
  -7  -3  -1    0.06    0.07
  -7  -3  -1    0.27    0.13
  -7  -3  -1    0.16    0.09
  -7  -3  -1    0.03    0.13
   7   3   1    0.13    0.09
   7   3   1    0.13    0.13
   7   3   1   -0.03    0.08
  -8  -3  -1    0.65    0.16
  -8  -3  -1    1.30    0.20
  -8  -3  -1    1.06    0.17
   8   3   1    0.77    0.13
   8   3   1    0.79    0.14
   8   3   1    0.56    0.19
   8  -4  -1    5.28    0.22
   8  -4  -1    5.35    0.27
   8  -4  -1    5.65    0.31
  -8   4   1    5.37    0.23
  -8   4   1    5.24    0.49
  -8   4   1    5.13    0.27
   7  -4  -1    0.11    0.09
   7  -4  -1    0.11    0.09
   7  -4  -1   -0.02    0.06
   7  -4  -1    0.05    0.08
   7  -4  -1    0.16    0.06
   7  -4  -1    0.08    0.07
  -7   4   1    0.08    0.08
  -7   4   1    0.19    0.12
  -7   4   1    0.08    0.06
  -7   4   1    0.13    0.15
   6  -4  -1    9.63    0.28
   6  -4  -1    9.00    0.29
   6  -4  -1    9.60    0.30
   6  -4  -1    9.18    0.37
   6  -4  -1    9.29    0.28
   6  -4  -1    9.37    0.33
  -6   4   1    9.21    0.37
  -6   4   1    9.41    0.29
  -6   4   1    9.09    0.53
  -6   4   1    9.41    0.29
   5  -4  -1   58.96    1.74
   5  -4  -1   60.60    1.49
   5  -4  -1   60.74    1.49
   5  -4  -1   60.25    1.57
   5  -4  -1   59.78    1.47
   5  -4  -1   59.38    1.47
  -5   4   1   60.66    1.74
  -5   4   1   61.15    1.48
  -5   4   1   60.14    1.47
   4  -4  -1    0.10    0.03
   4  -4  -1    0.09    0.03
   4  -4  -1   -0.04    0.11
   4  -4  -1    0.09    0.04
   4  -4  -1    0.18    0.06
   4  -4  -1    0.10    0.03
   4  -4  -1    0.14    0.04
  -4   4   1    0.14    0.03
  -4   4   1    0.19    0.06
  -4   4   1    0.15    0.04
   3  -4  -1   24.42    0.62
   3  -4  -1   24.88    0.61
   3  -4  -1   25.04    0.74
   3  -4  -1   24.44    0.67
   3  -4  -1   27.05    1.21
   3  -4  -1   24.79    0.61
  -3   4   1   24.16    0.62
  -3   4   1   25.28    0.74
   2  -4  -1   85.09    2.06
   2  -4  -1   85.30    2.08
   2  -4  -1   85.70    2.17
   2  -4  -1   89.41    2.06
   2  -4  -1   87.97    2.41
  -2   4   1   85.71    2.17
  -2   4   1   90.88    2.07
  -2   4   1   80.01    2.06
   1  -4  -1   24.09    0.62
   1  -4  -1   25.25    0.61
   1  -4  -1   24.83    0.61
   1  -4  -1   25.60    0.70
   1  -4  -1   24.78    0.65
  -1   4   1   23.82    0.61
  -1   4   1   25.30    0.61
  -1   4   1   25.49    0.65
  -1   4   1   24.95    0.61
   0  -4  -1   11.77    0.31
   0  -4  -1   11.75    0.32
   0  -4  -1   11.44    0.31
   0   4   1   12.60    0.33
   0   4   1   11.88    0.31
   0   4   1   11.76    0.32
  -1  -4  -1   72.69    1.78
  -1  -4  -1   71.17    1.79
  -1  -4  -1   76.82    2.03
   1   4   1   70.75    1.78
   1   4   1   72.10    1.78
   1   4   1   74.91    1.83
  -2  -4  -1    2.59    0.11
  -2  -4  -1    2.58    0.12
  -2  -4  -1    2.42    0.12
   2   4   1    2.75    0.13
   2   4   1    2.47    0.11
  -3  -4  -1   17.71    0.53
  -3  -4  -1   17.26    0.48
  -3  -4  -1   16.65    0.48
   3   4   1   18.47    0.49
   3   4   1   17.64    0.48
   3   4   1   17.48    0.48
   3   4   1   16.39    0.53
  -4  -4  -1   24.49    0.66
  -4  -4  -1   24.06    0.65
  -4  -4  -1   23.64    0.73
   4   4   1   23.79    0.65
   4   4   1   22.94    0.72
   4   4   1   24.23    0.65
   4   4   1   23.88    0.65
  -5  -4  -1    0.09    0.09
  -5  -4  -1   -0.07    0.08
  -5  -4  -1    0.01    0.06
   5   4   1   -0.11    0.08
   5   4   1    0.06    0.05
   5   4   1    0.00    0.08
   5   4   1    0.03    0.09
  -6  -4  -1    4.71    0.26
  -6  -4  -1    4.87    0.23
  -6  -4  -1    4.73    0.24
  -6  -4  -1    4.69    0.27
  -6  -4  -1    4.88    0.25
   6   4   1    5.05    0.27
   6   4   1    4.72    0.24
   6   4   1    5.09    0.27
   6   4   1    4.42    0.26
  -7  -4  -1    6.99    0.31
  -7  -4  -1    6.00    0.39
  -7  -4  -1    7.02    0.29
  -7  -4  -1    7.15    0.33
   7   4   1    7.40    0.31
   7   4   1    7.07    0.35
   7   4   1    6.27    0.36
   8  -5  -1    0.00    0.06
   8  -5  -1   -0.01    0.09
   8  -5  -1   -0.04    0.12
   8  -5  -1    0.10    0.11
  -8   5   1    0.07    0.07
  -8   5   1    0.06    0.12
   7  -5  -1    1.54    0.17
   7  -5  -1    1.72    0.15
   7  -5  -1    1.72    0.12
   7  -5  -1    2.08    0.19
   7  -5  -1    1.80    0.17
   7  -5  -1    1.53    0.14
  -7   5   1    1.93    0.24
  -7   5   1    1.94    0.16
  -7   5   1    2.01    0.13
   6  -5  -1   21.76    0.58
   6  -5  -1   20.90    0.56
   6  -5  -1   21.24    0.64
   6  -5  -1   21.70    0.58
   6  -5  -1   21.30    0.56
   6  -5  -1   20.84    0.69
   6  -5  -1   21.25    0.57
  -6   5   1   21.75    0.57
  -6   5   1   21.18    0.57
  -6   5   1   21.39    0.70
   5  -5  -1    0.10    0.04
   5  -5  -1    0.09    0.05
   5  -5  -1    0.14    0.04
   5  -5  -1    0.13    0.04
   5  -5  -1    0.20    0.06
   5  -5  -1    0.16    0.07
  -5   5   1    0.16    0.08
  -5   5   1    0.15    0.05
  -5   5   1    0.13    0.04
   4  -5  -1   34.06    0.83
   4  -5  -1   33.52    0.85
   4  -5  -1   34.13    0.83
   4  -5  -1   34.79    1.00
   4  -5  -1   33.23    0.85
   4  -5  -1   34.22    0.92
  -4   5   1   33.67    0.84
  -4   5   1   35.03    0.84
  -4   5   1   33.26    1.00
   3  -5  -1   67.17    1.72
   3  -5  -1   69.45    3.17
   3  -5  -1   69.32    1.62
   3  -5  -1   66.33    1.62
   3  -5  -1   68.42    1.90
   3  -5  -1   66.93    1.64
  -3   5   1   64.32    1.63
   2  -5  -1    6.37    0.19
   2  -5  -1    6.73    0.22
   2  -5  -1    6.58    0.18
   2  -5  -1    6.62    0.22
   2  -5  -1    6.58    0.18
  -2   5   1    6.76    0.19
  -2   5   1    6.94    0.22
  -2   5   1    6.37    0.19
  -2   5   1    6.53    0.18
   1  -5  -1   85.25    2.00
   1  -5  -1   84.67    1.99
   1  -5  -1   81.10    2.01
   1  -5  -1   81.53    2.08
  -1   5   1   83.77    2.08
  -1   5   1   82.45    2.00
  -1   5   1   81.41    2.00
   0  -5  -1   15.23    0.40
   0  -5  -1   14.80    0.40
   0  -5  -1   15.49    0.40
   0   5   1   15.28    0.41
   0   5   1   14.76    0.40
   0   5   1   15.00    0.40
  -1  -5  -1    9.24    0.27
   1   5   1    9.08    0.26
   1   5   1    9.30    0.27
   1   5   1    9.09    0.27
  -2  -5  -1    7.18    0.24
  -2  -5  -1    7.37    0.24
  -2  -5  -1    7.60    0.24
   2   5   1    7.02    0.24
   2   5   1    7.44    0.23
   2   5   1    7.71    0.25
  -3  -5  -1   27.76    0.81
  -3  -5  -1   27.26    0.73
  -3  -5  -1   26.75    0.73
   3   5   1   28.34    0.73
   3   5   1   26.80    0.73
  -4  -5  -1    0.69    0.12
  -4  -5  -1    0.35    0.08
  -4  -5  -1    0.53    0.10
   4   5   1    0.53    0.08
   4   5   1    0.60    0.11
   4   5   1    0.51    0.10
   4   5   1    0.39    0.07
  -5  -5  -1    8.43    0.32
  -5  -5  -1    8.69    0.35
  -5  -5  -1    8.78    0.32
   5   5   1    8.71    0.35
   5   5   1    8.38    0.34
   5   5   1    8.14    0.31
   5   5   1    8.21    0.33
  -6  -5  -1    5.68    0.28
  -6  -5  -1    5.68    0.32
  -6  -5  -1    6.06    0.28
   6   5   1    5.37    0.33
   6   5   1    5.54    0.28
   6   5   1    5.49    0.27
   6   5   1    5.35    0.32
  -7  -5  -1    0.02    0.20
  -7  -5  -1    0.14    0.11
  -7  -5  -1    0.12    0.13
  -7  -5  -1    0.21    0.10
   7   5   1    0.15    0.11
   7   5   1    0.09    0.12
   7  -6  -1    1.42    0.13
   7  -6  -1    1.63    0.15
   7  -6  -1    1.50    0.19
   7  -6  -1    1.55    0.12
   7  -6  -1    1.30    0.18
  -7   6   1    1.61    0.16
  -7   6   1    1.44    0.28
  -7   6   1    1.38    0.13
   6  -6  -1    0.28    0.09
   6  -6  -1    0.28    0.09
   6  -6  -1    0.34    0.06
   6  -6  -1    0.40    0.07
   6  -6  -1    0.35    0.06
  -6   6   1    0.29    0.06
  -6   6   1    0.23    0.07
  -6   6   1    0.41    0.12
   5  -6  -1    9.92    0.34
   5  -6  -1    9.74    0.27
   5  -6  -1    9.95    0.36
   5  -6  -1    9.25    0.28
   5  -6  -1    9.48    0.27
  -5   6   1    9.69    0.28
  -5   6   1    9.49    0.28
  -5   6   1    9.70    0.37
   4  -6  -1   10.32    0.35
   4  -6  -1    9.76    0.33
   4  -6  -1   10.05    0.27
   4  -6  -1   10.39    0.27
   4  -6  -1   10.06    0.29
  -4   6   1    9.83    0.28
  -4   6   1   10.04    0.29
   3  -6  -1   12.60    0.34
   3  -6  -1   12.74    0.33
   3  -6  -1   13.05    0.40
   3  -6  -1   13.26    0.33
   3  -6  -1   12.92    0.39
  -3   6   1   12.36    0.34
  -3   6   1   12.97    0.34
   2  -6  -1   31.60    0.78
   2  -6  -1   30.32    0.79
   2  -6  -1   31.28    0.84
   2  -6  -1   32.03    0.78
   2  -6  -1   32.45    0.90
  -2   6   1   31.47    0.79
  -2   6   1   31.25    0.84
  -2   6   1   32.21    0.78
   1  -6  -1   25.43    0.66
   1  -6  -1   25.88    0.65
   1  -6  -1   25.74    0.65
   1  -6  -1   25.96    0.69
  -1   6   1   26.92    0.69
  -1   6   1   26.46    0.66
  -1   6   1   24.95    0.66
   0  -6  -1   14.42    0.39
   0  -6  -1   14.76    0.40
   0  -6  -1   13.86    0.40
   0   6   1   14.98    0.41
   0   6   1   14.43    0.40
   0   6   1   14.61    0.40
  -1  -6  -1   19.30    0.52
  -1  -6  -1   18.82    0.51
   1   6   1   19.13    0.52
   1   6   1   19.18    0.52
   1   6   1   19.13    0.52
  -2  -6  -1    7.98    0.27
  -2  -6  -1    7.81    0.27
   2   6   1    8.32    0.28
   2   6   1    7.97    0.27
   2   6   1    7.96    0.26
  -3  -6  -1    3.03    0.15
  -3  -6  -1    3.28    0.17
  -3  -6  -1    2.90    0.16
   3   6   1    3.08    0.16
   3   6   1    2.92    0.16
   3   6   1    3.07    0.19
  -4  -6  -1    1.68    0.16
  -4  -6  -1    1.65    0.16
  -4  -6  -1    1.60    0.15
   4   6   1    1.66    0.16
   4   6   1    1.44    0.14
   4   6   1    1.84    0.20
  -5  -6  -1    1.57    0.20
  -5  -6  -1    1.67    0.20
  -5  -6  -1    2.17    0.19
   5   6   1    1.80    0.22
   5   6   1    1.88    0.17
   5   6   1    2.03    0.25
  -6  -6  -1   -0.11    0.12
  -6  -6  -1   -0.04    0.15
  -6  -6  -1    0.06    0.11
   6   6   1   -0.03    0.09
   7  -7  -1    2.56    0.22
   7  -7  -1    2.70    0.15
   7  -7  -1    2.51    0.15
   7  -7  -1    2.02    0.16
   7  -7  -1    2.94    0.23
   7  -7  -1    2.48    0.19
   7  -7  -1    2.43    0.18
  -7   7   1    2.37    0.18
  -7   7   1    2.53    0.15
   6  -7  -1    1.38    0.16
   6  -7  -1    1.26    0.11
   6  -7  -1    1.30    0.16
   6  -7  -1    1.39    0.10
   6  -7  -1    1.31    0.11
  -6   7   1    1.11    0.13
  -6   7   1    1.24    0.11
   5  -7  -1    1.36    0.10
   5  -7  -1    1.17    0.15
   5  -7  -1    1.38    0.11
   5  -7  -1    1.19    0.09
   5  -7  -1    1.12    0.09
   5  -7  -1    1.46    0.14
  -5   7   1    1.16    0.10
  -5   7   1    1.18    0.11
   4  -7  -1    3.71    0.13
   4  -7  -1    3.80    0.13
   4  -7  -1    3.84    0.17
   4  -7  -1    3.65    0.14
   4  -7  -1    3.72    0.19
  -4   7   1    3.62    0.16
  -4   7   1    3.69    0.14
   3  -7  -1    4.52    0.15
   3  -7  -1    4.43    0.19
   3  -7  -1    4.34    0.14
   3  -7  -1    4.43    0.15
  -3   7   1    4.28    0.15
  -3   7   1    4.38    0.16
   2  -7  -1   15.67    0.41
   2  -7  -1   15.45    0.41
   2  -7  -1   15.71    0.46
   2  -7  -1   15.25    0.42
  -2   7   1   14.99    0.41
  -2   7   1   15.41    0.46
  -2   7   1   15.80    0.40
  -2   7   1   15.63    0.42
   1  -7  -1    7.53    0.24
   1  -7  -1    7.85    0.23
   1  -7  -1    7.69    0.26
   1  -7  -1    7.91    0.24
  -1   7   1    7.71    0.24
  -1   7   1    7.82    0.26
  -1   7   1    7.74    0.23
  -1   7   1    7.74    0.24
   0  -7  -1   11.35    0.32
   0  -7  -1   11.09    0.32
   0  -7  -1   11.04    0.31
   0   7   1    9.48    0.32
   0   7   1   11.18    0.32
   0   7   1   10.99    0.32
  -1  -7  -1    1.99    0.13
  -1  -7  -1    2.13    0.13
  -1  -7  -1    2.01    0.13
   1   7   1    2.16    0.14
   1   7   1    2.34    0.15
   1   7   1    2.33    0.13
  -2  -7  -1    2.65    0.16
  -2  -7  -1    2.69    0.15
   2   7   1    2.65    0.18
   2   7   1    2.69    0.15
   2   7   1    2.50    0.14
  -3  -7  -1    6.92    0.27
  -3  -7  -1    6.86    0.27
   3   7   1    6.55    0.25
   3   7   1    6.91    0.29
   3   7   1    6.77    0.26
  -4  -7  -1    0.62    0.11
  -4  -7  -1    0.79    0.15
   4   7   1    0.52    0.09
   4   7   1    0.84    0.15
   4   7   1    0.67    0.11
  -5  -7  -1    3.19    0.24
  -5  -7  -1    3.55    0.24
   5   7   1    3.25    0.32
   5   7   1    2.94    0.21
   6  -8  -1    2.70    0.22
   6  -8  -1    2.60    0.15
   6  -8  -1    3.08    0.22
   6  -8  -1    2.91    0.17
  -6   8   1    2.77    0.15
   5  -8  -1    4.11    0.16
   5  -8  -1    4.18    0.21
   5  -8  -1    4.08    0.17
   5  -8  -1    3.92    0.23
  -5   8   1    3.75    0.16
   4  -8  -1    1.93    0.16
   4  -8  -1    1.82    0.11
   4  -8  -1    1.92    0.10
   4  -8  -1    1.97    0.10
  -4   8   1    2.12    0.14
  -4   8   1    1.94    0.11
   3  -8  -1    0.58    0.09
   3  -8  -1    0.62    0.12
   3  -8  -1    0.48    0.08
   3  -8  -1    0.58    0.09
  -3   8   1    0.56    0.08
  -3   8   1    0.52    0.10
   2  -8  -1    7.28    0.24
   2  -8  -1    7.41    0.23
   2  -8  -1    7.46    0.23
   2  -8  -1    7.29    0.27
  -2   8   1    7.46    0.24
  -2   8   1    7.38    0.28
  -2   8   1    7.18    0.23
  -2   8   1    7.42    0.22
   1  -8  -1    3.31    0.17
   1  -8  -1    3.18    0.15
   1  -8  -1    3.67    0.16
   1  -8  -1    3.41    0.15
  -1   8   1    3.27    0.14
  -1   8   1    3.39    0.15
  -1   8   1    3.46    0.17
  -1   8   1    3.29    0.18
   0  -8  -1   -0.03    0.06
   0  -8  -1    0.10    0.05
   0   8   1    0.10    0.07
   0   8   1    0.07    0.05
   0   8   1    0.01    0.07
  -1  -8  -1    6.29    0.23
  -1  -8  -1    6.10    0.23
  -1  -8  -1    5.84    0.23
   1   8   1    5.93    0.24
   1   8   1    6.15    0.25
   1   8   1    6.03    0.23
  -2  -8  -1    9.63    0.34
  -2  -8  -1   10.54    0.34
  -2  -8  -1   10.14    0.34
   2   8   1   10.36    0.34
   2   8   1   10.01    0.33
   2   8   1   10.25    0.36
  -3  -8  -1   -0.16    0.08
  -3  -8  -1   -0.09    0.09
   3   8   1    0.06    0.10
   3   8   1    0.12    0.07
   3   8   1   -0.18    0.12
  -4  -8  -1    5.13    0.28
  -4  -8  -1    5.10    0.26
   4   8   1    4.84    0.26
   4   8   1    4.96    0.27
   4   8   1    5.07    0.36
  -5  -8  -1    1.16    0.23
   5   8   1    1.35    0.27
   5  -9  -1    0.72    0.12
   5  -9  -1    1.03    0.11
   5  -9  -1    0.75    0.13
  -5   9   1    0.84    0.12
   4  -9  -1    0.00    0.05
   4  -9  -1    0.14    0.09
  -4   9   1   -0.03    0.05
   3  -9  -1    7.55    0.23
   3  -9  -1    7.41    0.29
   3  -9  -1    7.25    0.24
   3  -9  -1    7.31    0.23
  -3   9   1    7.08    0.24
  -3   9   1    7.22    0.25
   2  -9  -1    4.49    0.18
   2  -9  -1    4.47    0.18
   2  -9  -1    4.30    0.18
   2  -9  -1    4.69    0.21
  -2   9   1    4.11    0.17
  -2   9   1    4.15    0.24
  -2   9   1    4.37    0.18
  -2   9   1    4.39    0.20
   1  -9  -1    1.03    0.14
   1  -9  -1    1.06    0.11
   1  -9  -1    1.12    0.13
  -1   9   1    1.15    0.16
  -1   9   1    0.86    0.12
  -1   9   1    1.07    0.11
   0  -9  -1   15.35    0.45
   0  -9  -1   14.76    0.45
   0  -9  -1   14.14    0.44
   0   9   1   15.20    0.44
   0   9   1   14.93    0.46
   0   9   1   15.59    0.47
  -1  -9  -1    0.49    0.09
  -1  -9  -1    0.41    0.09
   1   9   1    0.52    0.12
   1   9   1    0.28    0.08
   1   9   1    0.54    0.12
  -2  -9  -1    1.37    0.16
  -2  -9  -1    1.41    0.17
   2   9   1    1.29    0.23
   2   9   1    1.46    0.20
   2   9   1    1.44    0.15
  -3  -9  -1    1.94    0.22
  -3  -9  -1    1.52    0.18
   3   9   1    1.83    0.18
   3   9   1    1.34    0.21
   3   9   1    1.86    0.30
   4 -10  -1    0.01    0.03
   3 -10  -1   -0.12    0.40
   3 -10  -1    0.27    0.07
   3 -10  -1    0.27    0.11
   3 -10  -1    0.35    0.08
   3 -10  -1    0.28    0.09
  -3  10   1    0.34    0.10
  -3  10   1    0.26    0.08
   2 -10  -1    0.75    0.14
   2 -10  -1    0.58    0.10
   2 -10  -1    0.47    0.08
  -2  10   1    0.63    0.12
  -2  10   1    0.34    0.15
  -2  10   1    0.48    0.11
   1 -10  -1    5.45    0.25
   1 -10  -1    5.39    0.22
   1 -10  -1    5.58    0.24
  -1  10   1    5.40    0.27
  -1  10   1    5.51    0.22
  -1  10   1    5.04    0.30
   0 -10  -1   -0.04    0.08
   0 -10  -1   -0.12    0.07
   0  10   1    0.02    0.08
   0  10   1    0.09    0.13
   0  10   1    0.08    0.13
  -1 -10  -1    0.75    0.14
  -1 -10  -1    0.92    0.18
   1  10   1    0.81    0.17
   1  10   1    0.69    0.11
   1  10   1    0.85    0.15
   0  11  -2    6.29    0.28
   0  11  -2    6.81    0.39
   0 -11   2    6.61    0.30
   0 -11   2    6.52    0.28
  -1  11  -2   -0.04    0.09
  -1  11  -2    0.07    0.16
   1 -11   2   -0.45    0.62
   1 -11   2    0.15    0.10
   1 -11   2    0.08    0.08
  -2  11  -2    0.33    0.10
  -2  11  -2    0.09    0.16
   2 -11   2   -0.19    0.35
   2 -11   2    0.24    0.10
   2 -11   2    0.25    0.08
   2  10  -2    1.70    0.17
   2  10  -2    1.63    0.31
   2  10  -2    1.40    0.27
  -2 -10   2    1.78    0.19
  -2 -10   2    1.55    0.21
   1  10  -2    0.66    0.16
   1  10  -2    0.64    0.10
   1  10  -2    0.65    0.15
  -1 -10   2    0.53    0.11
  -1 -10   2    0.62    0.10
  -1 -10   2   -0.77    0.66
   0  10  -2    0.79    0.15
   0  10  -2    0.54    0.15
   0  10  -2    0.61    0.10
   0 -10   2    0.55    0.10
   0 -10   2   -0.57    0.56
   0 -10   2    0.73    0.14
  -1  10  -2    0.14    0.12
  -1  10  -2    0.12    0.07
  -1  10  -2   -0.10    0.13
   1 -10   2    0.22    0.07
   1 -10   2   -0.36    0.47
   1 -10   2    0.11    0.08
  -2  10  -2    8.21    0.29
  -2  10  -2    8.27    0.34
   2 -10   2    8.21    0.29
   2 -10   2    8.11    0.30
  -3  10  -2    0.09    0.11
  -3  10  -2    0.16    0.08
   3 -10   2   -0.04    0.08
   3 -10   2    0.14    0.07
   3 -10   2    0.17    0.09
  -4  10  -2    0.32    0.13
  -4  10  -2    0.39    0.09
   4 -10   2    0.26    0.08
   4 -10   2    0.28    0.11
   4   9  -2   -0.11    0.09
   4   9  -2    0.11    0.08
   4   9  -2   -0.10    0.17
  -4  -9   2   -0.07    0.11
  -4  -9   2   -0.08    0.10
   3   9  -2    3.21    0.20
   3   9  -2    3.09    0.30
   3   9  -2    2.82    0.25
  -3  -9   2    3.23    0.22
  -3  -9   2    3.25    0.22
   2   9  -2    0.74    0.14
   2   9  -2    0.66    0.12
   2   9  -2    0.70    0.13
  -2  -9   2    0.58    0.11
  -2  -9   2   -0.28    0.63
  -2  -9   2    0.72    0.11
   1   9  -2    0.78    0.12
   1   9  -2    0.70    0.11
   1   9  -2    0.74    0.12
  -1  -9   2    0.85    0.11
  -1  -9   2   -0.03    0.49
  -1  -9   2    0.63    0.12
   0   9  -2    2.03    0.14
   0   9  -2    2.29    0.20
   0   9  -2    2.00    0.20
   0  -9   2    1.80    0.14
   0  -9   2    2.08    0.16
  -1   9  -2    0.59    0.08
  -1   9  -2    0.55    0.10
  -1   9  -2    0.46    0.11
   1  -9   2    0.60    0.09
   1  -9   2    0.72    0.11
   1  -9   2   -0.16    0.36
   1  -9   2    0.71    0.12
  -2   9  -2    0.30    0.11
  -2   9  -2    0.32    0.07
  -2   9  -2    0.22    0.09
   2  -9   2    0.29    0.09
   2  -9   2   -0.13    0.28
   2  -9   2    0.25    0.07
   2  -9   2    0.23    0.07
   2  -9   2    0.18    0.08
  -3   9  -2    1.64    0.20
  -3   9  -2    1.70    0.14
  -3   9  -2    1.86    0.14
  -3   9  -2    1.80    0.18
   3  -9   2    1.97    0.14
   3  -9   2    1.78    0.13
   3  -9   2    1.65    0.16
   3  -9   2    1.41    0.15
  -4   9  -2   15.89    0.47
  -4   9  -2   15.53    0.52
  -4   9  -2   15.81    0.48
   4  -9   2   15.64    0.47
   4  -9   2   16.46    0.52
   4  -9   2   16.51    0.47
  -5   9  -2    1.82    0.21
  -5   9  -2    1.78    0.15
  -5   9  -2    1.99    0.23
   5  -9   2    1.47    0.18
   5  -9   2    2.38    0.19
   5  -9   2    1.43    0.14
  -6   9  -2    3.89    0.21
  -6   9  -2    3.88    0.34
  -6   9  -2    4.17    0.28
   6  -9   2    3.74    0.33
   6  -9   2    3.97    0.25
   6  -9   2    3.94    0.20
   6  -9   2    3.82    0.26
   5   8  -2    0.35    0.10
   5   8  -2    0.78    0.13
  -5  -8   2    0.15    0.12
  -5  -8   2    0.18    0.11
   4   8  -2    6.69    0.28
   4   8  -2    6.63    0.34
   4   8  -2    7.28    0.32
   4   8  -2    7.37    0.30
  -4  -8   2    7.51    0.31
  -4  -8   2    6.78    0.30
   3   8  -2    0.32    0.10
   3   8  -2    0.40    0.08
   3   8  -2    0.22    0.07
   3   8  -2    0.34    0.11
   3   8  -2    0.12    0.11
  -3  -8   2   -0.39    0.53
  -3  -8   2    0.27    0.09
  -3  -8   2    0.25    0.09
   2   8  -2    3.55    0.18
   2   8  -2    3.33    0.22
   2   8  -2    3.80    0.22
  -2  -8   2    3.80    0.20
  -2  -8   2    3.84    0.19
   1   8  -2    8.24    0.29
   1   8  -2    8.36    0.31
   1   8  -2    8.89    0.31
  -1  -8   2    8.38    0.29
  -1  -8   2    8.47    0.29
   0   8  -2    0.89    0.10
   0   8  -2    1.16    0.14
   0   8  -2    0.83    0.14
   0  -8   2    0.91    0.10
   0  -8   2    0.89    0.12
  -1   8  -2   16.37    0.49
  -1   8  -2   16.26    0.47
   1  -8   2   15.89    0.46
   1  -8   2   16.10    0.46
   1  -8   2   16.31    0.47
  -2   8  -2    8.22    0.26
  -2   8  -2    7.94    0.30
  -2   8  -2    8.26    0.28
  -2   8  -2    7.99    0.27
   2  -8   2    8.26    0.27
   2  -8   2    8.15    0.27
   2  -8   2    8.25    0.27
   2  -8   2    8.35    0.30
  -3   8  -2    0.01    0.08
  -3   8  -2    0.10    0.05
  -3   8  -2    0.06    0.07
  -3   8  -2    0.14    0.07
   3  -8   2    0.10    0.06
   3  -8   2    0.18    0.06
   3  -8   2    0.06    0.06
   3  -8   2    0.15    0.05
  -4   8  -2    4.20    0.21
  -4   8  -2    4.32    0.22
  -4   8  -2    4.26    0.18
  -4   8  -2    4.28    0.23
   4  -8   2    4.19    0.22
   4  -8   2    4.36    0.20
   4  -8   2    4.22    0.19
   4  -8   2    4.07    0.18
  -5   8  -2    2.43    0.19
  -5   8  -2    2.31    0.21
  -5   8  -2    2.41    0.15
   5  -8   2    2.48    0.14
   5  -8   2    2.20    0.18
   5  -8   2    2.50    0.17
   5  -8   2    2.13    0.18
  -6   8  -2    3.54    0.18
  -6   8  -2    3.15    0.28
  -6   8  -2    2.86    0.24
   6  -8   2    3.50    0.21
   6  -8   2    3.24    0.21
   6  -8   2    2.96    0.26
   6  -8   2    2.79    0.17
   6  -8   2    3.18    0.19
  -7   8  -2    1.43    0.16
  -7   8  -2    1.52    0.26
   7  -8   2    1.43    0.15
   7  -8   2    1.13    0.18
   7  -8   2    1.51    0.27
   7  -8   2    1.29    0.23
   6   7  -2    1.11    0.21
   6   7  -2    1.06    0.20
  -6  -7   2    0.90    0.15
  -6  -7   2    1.23    0.21
   5   7  -2    1.05    0.16
   5   7  -2    1.45    0.17
   5   7  -2    1.32    0.16
  -5  -7   2    0.91    0.18
  -5  -7   2    1.25    0.19
   4   7  -2    3.74    0.23
   4   7  -2    3.67    0.20
   4   7  -2    3.23    0.24
   4   7  -2    3.46    0.20
  -4  -7   2    3.80    0.21
  -4  -7   2    3.52    0.21
   3   7  -2   10.26    0.36
   3   7  -2   11.01    0.36
   3   7  -2   10.63    0.36
   3   7  -2   11.04    0.37
   3   7  -2   11.12    0.37
  -3  -7   2   11.06    0.36
  -3  -7   2   11.05    0.37
   2   7  -2   20.58    0.57
   2   7  -2   19.74    0.57
   2   7  -2   20.69    0.58
   2   7  -2   20.41    0.57
  -2  -7   2   20.05    0.57
  -2  -7   2   19.88    0.57
   1   7  -2    0.86    0.12
   1   7  -2    0.81    0.12
   1   7  -2    0.72    0.09
  -1  -7   2    0.78    0.11
  -1  -7   2    0.83    0.10
   0   7  -2   17.30    0.48
   0   7  -2   16.81    0.49
   0   7  -2   16.75    0.47
   0  -7   2   16.70    0.47
   0  -7   2   17.05    0.47
  -1   7  -2    3.28    0.15
  -1   7  -2    3.64    0.16
  -1   7  -2    3.41    0.16
   1  -7   2    3.30    0.16
   1  -7   2    3.48    0.15
   1  -7   2    3.34    0.15
  -2   7  -2    4.87    0.18
  -2   7  -2    4.72    0.19
  -2   7  -2    4.42    0.18
  -2   7  -2    4.63    0.20
   2  -7   2    4.64    0.17
   2  -7   2    4.37    0.17
   2  -7   2    4.67    0.17
   2  -7   2    4.55    0.19
  -3   7  -2    9.79    0.30
  -3   7  -2    9.99    0.31
  -3   7  -2    9.56    0.33
  -3   7  -2    9.74    0.33
   3  -7   2    9.53    0.30
   3  -7   2    9.66    0.29
   3  -7   2    9.60    0.30
   3  -7   2   10.06    0.33
  -4   7  -2    4.91    0.19
  -4   7  -2    5.31    0.23
  -4   7  -2    5.07    0.21
   4  -7   2    4.55    0.20
   4  -7   2    4.85    0.22
   4  -7   2    4.88    0.19
   4  -7   2    5.16    0.20
  -5   7  -2    2.75    0.15
  -5   7  -2    2.57    0.17
  -5   7  -2    2.75    0.20
   5  -7   2    2.96    0.17
   5  -7   2    2.61    0.15
   5  -7   2    2.98    0.17
   5  -7   2    2.85    0.17
   5  -7   2    2.89    0.15
  -6   7  -2    9.26    0.34
  -6   7  -2    9.10    0.31
  -6   7  -2    8.47    0.39
   6  -7   2    9.39    0.30
   6  -7   2    9.91    0.35
   6  -7   2    8.79    0.32
   6  -7   2    9.01    0.31
   6  -7   2    8.81    0.32
   6  -7   2    9.15    0.35
  -7   7  -2    1.48    0.15
  -7   7  -2    1.31    0.23
   7  -7   2    1.28    0.13
   7  -7   2    1.39    0.20
   7  -7   2    1.28    0.16
   7  -7   2    1.76    0.22
   7   6  -2    1.73    0.23
   7   6  -2    1.14    0.22
   7   6  -2    1.06    0.23
  -7  -6   2    1.41    0.26
  -7  -6   2    1.27    0.23
   6   6  -2    1.54    0.27
   6   6  -2    1.86    0.20
   6   6  -2    1.92    0.20
  -6  -6   2    1.69    0.22
  -6  -6   2    2.15    0.20
   5   6  -2    0.30    0.09
   5   6  -2    0.35    0.11
   5   6  -2    0.34    0.12
   5   6  -2    0.29    0.08
  -5  -6   2    0.40    0.11
  -5  -6   2    0.25    0.11
  -5  -6   2    0.38    0.10
   4   6  -2    9.98    0.35
   4   6  -2   10.15    0.34
   4   6  -2    9.81    0.36
   4   6  -2   10.30    0.36
  -4  -6   2   10.18    0.35
  -4  -6   2   10.30    0.34
   3   6  -2    0.63    0.10
   3   6  -2    0.25    0.07
   3   6  -2    0.61    0.12
   3   6  -2    0.49    0.10
  -3  -6   2    0.40    0.08
  -3  -6   2    0.49    0.08
   2   6  -2   -0.07    0.05
   2   6  -2    0.05    0.04
   2   6  -2   -0.01    0.03
   2   6  -2    0.06    0.05
   2   6  -2    0.05    0.05
  -2  -6   2   -0.04    0.04
  -2  -6   2   -0.18    0.25
  -2  -6   2    0.00    0.04
   1   6  -2    6.46    0.22
   1   6  -2    6.25    0.21
   1   6  -2    5.86    0.21
   1   6  -2    6.37    0.20
  -1  -6   2    5.95    0.21
  -1  -6   2    5.85    0.21
   0   6  -2   13.44    0.39
   0   6  -2   13.64    0.38
   0  -6   2   12.65    0.37
   0  -6   2   12.70    0.37
  -1   6  -2   16.90    0.46
  -1   6  -2   17.53    0.48
  -1   6  -2   16.64    0.46
  -1   6  -2   17.41    0.49
   1  -6   2   16.71    0.46
   1  -6   2   16.17    0.46
   1  -6   2   16.89    0.48
  -2   6  -2   16.15    0.44
  -2   6  -2   15.50    0.43
  -2   6  -2   16.31    0.48
   2  -6   2   16.24    0.47
   2  -6   2   16.02    0.44
   2  -6   2   15.74    0.44
  -3   6  -2    3.78    0.15
  -3   6  -2    3.79    0.17
  -3   6  -2    3.83    0.16
   3  -6   2    3.54    0.17
   3  -6   2    3.73    0.15
   3  -6   2    3.73    0.15
  -4   6  -2    6.51    0.22
  -4   6  -2    6.72    0.23
  -4   6  -2    6.96    0.27
   4  -6   2    6.60    0.22
   4  -6   2    6.37    0.25
   4  -6   2    6.75    0.22
   4  -6   2    6.36    0.22
  -5   6  -2   16.42    0.55
  -5   6  -2   16.34    0.46
  -5   6  -2   16.93    0.47
   5  -6   2   16.24    0.51
   5  -6   2   16.39    0.46
   5  -6   2   16.62    0.49
   5  -6   2   15.84    0.46
   5  -6   2   16.35    0.47
   5  -6   2   16.18    0.47
  -6   6  -2    3.80    0.21
  -6   6  -2    3.89    0.18
  -6   6  -2    3.91    0.26
   6  -6   2    3.76    0.18
   6  -6   2    4.04    0.20
   6  -6   2    3.78    0.18
   6  -6   2    3.71    0.21
   6  -6   2    3.75    0.20
   6  -6   2    3.90    0.20
  -7   6  -2    0.13    0.07
  -7   6  -2   -0.13    0.13
  -7   6  -2    0.23    0.12
   7  -6   2    0.03    0.08
   7  -6   2    0.10    0.06
   7  -6   2    0.14    0.08
   7  -6   2    0.07    0.08
   7  -6   2    0.02    0.11
  -8   6  -2    7.92    0.38
  -8   6  -2    8.04    0.31
   8  -6   2    8.32    0.37
   8  -6   2    8.30    0.28
   8  -6   2    7.92    0.30
   8  -6   2    7.79    0.32
   7   5  -2    0.69    0.14
   7   5  -2    0.74    0.18
   7   5  -2    1.24    0.20
  -7  -5   2    0.93    0.16
  -7  -5   2    0.68    0.13
   6   5  -2    2.16    0.23
   6   5  -2    2.10    0.19
   6   5  -2    1.71    0.19
  -6  -5   2    2.23    0.24
  -6  -5   2    1.65    0.20
  -6  -5   2    1.85    0.17
   5   5  -2    1.60    0.15
   5   5  -2    1.77    0.18
   5   5  -2    1.62    0.15
   5   5  -2    1.28    0.16
  -5  -5   2    1.64    0.18
  -5  -5   2    1.36    0.15
  -5  -5   2    1.50    0.16
   4   5  -2    2.63    0.16
   4   5  -2    2.62    0.16
   4   5  -2    2.73    0.16
   4   5  -2    2.56    0.16
  -4  -5   2    2.69    0.16
  -4  -5   2    2.71    0.16
  -4  -5   2    2.58    0.15
   3   5  -2    7.64    0.26
   3   5  -2    7.69    0.28
   3   5  -2    8.10    0.27
   3   5  -2    7.89    0.26
  -3  -5   2    7.46    0.26
  -3  -5   2    7.92    0.27
   2   5  -2   35.93    0.88
   2   5  -2   30.32    0.87
   2   5  -2   34.68    0.88
   2   5  -2   34.92    0.98
  -2  -5   2   34.73    0.88
  -2  -5   2   34.34    0.88
   1   5  -2    5.88    0.20
   1   5  -2    6.36    0.21
   1   5  -2    6.02    0.20
   1   5  -2    6.33    0.20
   1   5  -2    6.11    0.20
  -1  -5   2    5.72    0.20
  -1  -5   2    5.80    0.20
   0   5  -2   12.90    0.36
   0   5  -2   13.74    0.38
   0   5  -2   13.72    0.37
   0  -5   2   13.17    0.37
   0  -5   2   12.80    0.37
  -1   5  -2   31.68    0.82
  -1   5  -2   35.10    0.92
  -1   5  -2   32.46    0.82
   1  -5   2   31.94    0.82
   1  -5   2   30.90    0.82
   1  -5   2   32.38    0.85
  -2   5  -2   14.41    0.43
  -2   5  -2   14.28    0.38
  -2   5  -2   14.26    0.38
   2  -5   2   13.52    0.41
   2  -5   2   13.80    0.39
  -3   5  -2    4.90    0.17
  -3   5  -2    4.74    0.19
  -3   5  -2    4.80    0.17
   3  -5   2    4.71    0.18
   3  -5   2    4.41    0.16
  -4   5  -2   22.40    0.69
  -4   5  -2   22.46    0.60
  -4   5  -2   22.98    0.60
   4  -5   2   22.87    0.59
   4  -5   2   22.83    0.64
   4  -5   2   22.15    0.60
   4  -5   2   22.60    0.60
  -5   5  -2    2.13    0.15
  -5   5  -2    2.36    0.12
  -5   5  -2    2.21    0.17
   5  -5   2    2.27    0.12
   5  -5   2    2.17    0.13
   5  -5   2    2.21    0.13
   5  -5   2    2.28    0.14
   5  -5   2    2.23    0.14
   5  -5   2    2.54    0.14
  -6   5  -2    6.90    0.32
  -6   5  -2    6.99    0.27
  -6   5  -2    6.73    0.25
   6  -5   2    6.77    0.28
   6  -5   2    6.57    0.25
   6  -5   2    7.31    0.27
   6  -5   2    6.86    0.25
   6  -5   2    7.22    0.25
   6  -5   2    6.47    0.24
  -7   5  -2   11.00    0.39
  -7   5  -2    9.61    0.45
  -7   5  -2   11.01    0.36
   7  -5   2   11.37    0.39
   7  -5   2   11.18    0.34
   7  -5   2   10.91    0.38
   7  -5   2   11.98    0.40
   7  -5   2   11.15    0.36
   7  -5   2   11.02    0.36
  -8   5  -2    0.42    0.15
  -8   5  -2    0.47    0.09
   8  -5   2    0.50    0.10
   8  -5   2    0.51    0.10
   8  -5   2    0.24    0.15
   8   4  -2    1.08    0.22
   8   4  -2    0.99    0.15
   8   4  -2    0.77    0.22
  -8  -4   2    0.87    0.16
  -8  -4   2    1.20    0.17
  -8  -4   2    0.76    0.13
   7   4  -2    0.80    0.17
   7   4  -2    1.02    0.17
   7   4  -2    1.18    0.19
  -7  -4   2    0.72    0.11
  -7  -4   2    0.91    0.17
  -7  -4   2    1.03    0.20
   6   4  -2    1.22    0.16
   6   4  -2    1.27    0.20
   6   4  -2    1.29    0.16
  -6  -4   2    1.14    0.17
  -6  -4   2    1.32    0.21
  -6  -4   2    1.23    0.14
   5   4  -2    4.40    0.22
   5   4  -2    4.40    0.20
   5   4  -2    4.54    0.22
  -5  -4   2    4.10    0.19
  -5  -4   2    4.02    0.20
  -5  -4   2    4.48    0.22
   4   4  -2   27.91    0.73
   4   4  -2   26.66    0.83
   4   4  -2   28.42    0.74
  -4  -4   2   27.27    0.73
  -4  -4   2   28.07    0.73
  -4  -4   2   26.84    0.73
   3   4  -2   31.74    0.92
   3   4  -2   31.63    0.82
   3   4  -2   31.45    0.81
  -3  -4   2   31.23    0.81
  -3  -4   2   30.81    0.81
   2   4  -2   11.15    0.31
   2   4  -2   10.88    0.31
   2   4  -2   10.55    0.31
   2   4  -2   10.80    0.34
  -2  -4   2   10.48    0.31
  -2  -4   2   10.26    0.31
   1   4  -2   34.62    0.86
   1   4  -2   33.35    0.85
   1   4  -2   34.96    0.85
  -1  -4   2   32.67    0.85
  -1  -4   2   33.70    0.85
   0   4  -2  171.66    4.21
   0   4  -2  164.09    4.06
   0   4  -2  171.94    4.08
   0   4  -2  175.30    4.06
   0  -4   2  166.08    4.06
   0  -4   2  165.67    4.08
   0  -4   2  170.84    4.06
  -1   4  -2    1.48    0.08
  -1   4  -2    1.48    0.07
  -1   4  -2    1.49    0.08
  -1   4  -2    1.50    0.08
   1  -4   2    1.56    0.08
   1  -4   2    1.48    0.07
   1  -4   2    1.41    0.08
   1  -4   2    1.48    0.16
  -2   4  -2   38.48    1.06
  -2   4  -2   37.19    0.91
  -2   4  -2   36.03    0.91
   2  -4   2   36.47    0.91
   2  -4   2   35.84    0.96
   2  -4   2   36.18    0.92
  -3   4  -2   32.97    0.94
  -3   4  -2   32.35    0.81
  -3   4  -2   32.14    0.81
   3  -4   2   31.69    0.85
   3  -4   2   31.84    0.82
  -4   4  -2    0.20    0.05
  -4   4  -2    0.15    0.04
  -4   4  -2    0.18    0.06
   4  -4   2    0.21    0.05
   4  -4   2    0.15    0.04
   4  -4   2    0.19    0.04
   4  -4   2    0.20    0.05
   4  -4   2    0.16    0.05
  -5   4  -2   33.91    1.02
  -5   4  -2   33.39    0.87
  -5   4  -2   35.06    0.87
   5  -4   2   33.06    1.02
   5  -4   2   34.11    0.88
   5  -4   2   33.30    0.92
   5  -4   2   33.67    0.88
   5  -4   2   33.18    0.87
   5  -4   2   34.31    0.91
  -6   4  -2    4.11    0.18
  -6   4  -2    4.09    0.20
  -6   4  -2    4.12    0.23
  -6   4  -2    5.04    0.35
   6  -4   2    4.29    0.21
   6  -4   2    4.11    0.18
   6  -4   2    4.16    0.21
   6  -4   2    4.26    0.17
   6  -4   2    3.88    0.23
   6  -4   2    4.17    0.18
  -7   4  -2    0.15    0.19
  -7   4  -2    0.07    0.09
  -7   4  -2    0.14    0.07
   7  -4   2    0.08    0.07
   7  -4   2    0.12    0.07
   7  -4   2    0.10    0.08
   7  -4   2    0.06    0.05
   7  -4   2   -0.02    0.08
   7  -4   2    0.06    0.08
   7  -4   2    0.09    0.10
  -8   4  -2    6.32    0.34
  -8   4  -2    7.13    0.58
  -8   4  -2    7.17    0.28
   8  -4   2    7.27    0.31
   8  -4   2    6.58    0.29
   8  -4   2    6.69    0.35
   8  -4   2    6.85    0.34
   8  -4   2    7.02    0.28
   8   3  -2    7.48    0.41
   8   3  -2    8.27    0.35
   8   3  -2    7.05    0.37
  -8  -3   2    7.17    0.42
  -8  -3   2    7.25    0.26
  -8  -3   2    7.27    0.35
   7   3  -2    4.17    0.23
   7   3  -2    4.36    0.28
   7   3  -2    4.39    0.25
  -7  -3   2    4.88    0.29
  -7  -3   2    4.60    0.22
  -7  -3   2    4.16    0.24
   6   3  -2    3.15    0.20
   6   3  -2    3.12    0.19
   6   3  -2    3.21    0.21
  -6  -3   2    3.28    0.21
  -6  -3   2    3.19    0.18
  -6  -3   2    3.04    0.20
   5   3  -2   14.12    0.48
   5   3  -2   13.75    0.42
   5   3  -2   14.18    0.43
  -5  -3   2   15.02    0.43
  -5  -3   2   14.07    0.42
  -5  -3   2   14.18    0.42
   4   3  -2    3.36    0.17
   4   3  -2    3.48    0.15
   4   3  -2    3.53    0.16
  -4  -3   2    3.30    0.15
  -4  -3   2    3.91    0.16
  -4  -3   2    3.36    0.15
   3   3  -2    0.03    0.04
   3   3  -2    0.02    0.04
   3   3  -2    0.05    0.04
  -3  -3   2    0.05    0.04
  -3  -3   2   -0.06    0.04
  -3  -3   2   -0.01    0.04
   2   3  -2   79.81    2.16
   2   3  -2   75.05    1.87
   2   3  -2   77.12    1.88
  -2  -3   2   75.99    1.87
   1   3  -2   72.51    1.72
   1   3  -2   68.34    1.71
   1   3  -2   69.66    1.71
  -1  -3   2   69.99    1.71
  -1  -3   2   72.13    1.71
   0   3  -2   12.76    0.33
   0   3  -2   12.69    0.34
   0   3  -2   11.92    0.33
   0   3  -2   12.57    0.33
   0  -3   2   11.82    0.33
   0  -3   2   12.86    0.33
  -1   3  -2  238.94    5.97
  -1   3  -2  243.19    5.77
  -1   3  -2  247.58    5.78
  -1   3  -2  238.16    5.80
   1  -3   2  239.79    5.82
   1  -3   2  244.01   11.25
   1  -3   2  235.72    5.79
   1  -3   2  244.93    5.77
   1  -3   2  236.39    6.02
  -2   3  -2   36.33    0.90
  -2   3  -2   36.58    0.90
  -2   3  -2   35.18    0.90
  -2   3  -2   37.21    0.94
  -2   3  -2   37.04    1.04
   2  -3   2   34.98    0.90
   2  -3   2   35.84    0.94
   2  -3   2   37.32    0.90
   2  -3   2   35.98    0.90
  -3   3  -2    1.48    0.08
  -3   3  -2    1.67    0.09
   3  -3   2    1.44    0.12
   3  -3   2    1.72    0.10
   3  -3   2    1.40    0.08
   3  -3   2    2.07    0.12
  -4   3  -2   43.16    1.26
  -4   3  -2   42.64    1.08
  -4   3  -2   44.56    1.09
   4  -3   2   44.28    1.14
   4  -3   2   42.82    1.09
   4  -3   2   42.39    1.26
   4  -3   2   43.90    1.09
   4  -3   2   42.43    1.08
   4  -3   2   43.56    1.13
  -5   3  -2    6.22    0.23
  -5   3  -2    6.01    0.22
  -5   3  -2    6.98    0.41
   5  -3   2    5.96    0.26
   5  -3   2    6.05    0.23
   5  -3   2    6.45    0.23
   5  -3   2    6.00    0.22
   5  -3   2    6.22    0.22
   5  -3   2    6.34    0.21
  -6   3  -2    1.07    0.14
  -6   3  -2    0.90    0.22
  -6   3  -2    1.05    0.11
   6  -3   2    1.09    0.09
   6  -3   2    1.07    0.10
   6  -3   2    1.07    0.12
   6  -3   2    1.00    0.12
   6  -3   2    1.08    0.14
   6  -3   2    1.06    0.14
  -7   3  -2    9.06    0.34
  -7   3  -2   10.36    0.67
  -7   3  -2    9.01    0.31
   7  -3   2    8.70    0.38
   7  -3   2    9.49    0.32
   7  -3   2    8.87    0.34
   7  -3   2    8.93    0.32
   7  -3   2    8.70    0.33
  -8   3  -2    1.27    0.15
  -8   3  -2    1.45    0.55
  -8   3  -2    1.67    0.25
   8  -3   2    1.56    0.18
   8  -3   2    1.69    0.21
   8  -3   2    1.40    0.15
   8  -3   2    1.32    0.25
   8  -3   2    1.47    0.18
   8   2  -2    1.02    0.18
   8   2  -2    0.55    0.13
   8   2  -2    1.09    0.19
  -8  -2   2    0.82    0.17
  -8  -2   2    0.81    0.15
  -8  -2   2    0.57    0.14
   7   2  -2    2.93    0.22
   7   2  -2    3.57    0.20
   7   2  -2    3.62    0.23
  -7  -2   2    2.84    0.21
  -7  -2   2    3.32    0.18
  -7  -2   2    1.83    0.59
  -7  -2   2    3.58    0.24
   6   2  -2   11.83    0.37
   6   2  -2   11.61    0.43
   6   2  -2   11.86    0.38
  -6  -2   2   11.62    0.43
  -6  -2   2   11.73    0.37
  -6  -2   2   10.99    0.37
  -6  -2   2   10.36    0.82
  -6  -2   2   11.58    0.38
   5   2  -2    2.67    0.14
   5   2  -2    2.71    0.16
   5   2  -2    2.87    0.16
  -5  -2   2    2.68    0.14
  -5  -2   2    2.96    0.15
   4   2  -2   34.95    0.91
   4   2  -2   36.47    1.06
   4   2  -2   36.44    0.92
  -4  -2   2   34.29    0.91
  -4  -2   2   36.04    0.92
  -4  -2   2   37.44    0.92
   3   2  -2   90.67    2.48
   3   2  -2   86.72    2.15
  -3  -2   2   88.70    2.14
  -3  -2   2   88.57    2.15
  -3  -2   2   85.95    2.14
   2   2  -2    5.11    0.18
   2   2  -2    4.97    0.16
   2   2  -2    5.09    0.16
  -2  -2   2    5.12    0.16
  -2  -2   2    4.84    0.16
  -2  -2   2    5.14    0.16
   1   2  -2   36.57    0.91
   1   2  -2   37.70    0.91
  -1  -2   2   37.45    0.91
  -1  -2   2   35.96    0.91
   0   2  -2  282.30    6.73
   0   2  -2  275.82    6.98
   0   2  -2  282.97    6.79
   0  -2   2  268.64    6.76
   0  -2   2  283.51    6.76
   0  -2   2  286.17   13.16
   0  -2   2  283.62    6.74
  -1   2  -2   21.50    0.53
  -1   2  -2   22.56    1.02
  -1   2  -2   21.02    0.54
   1  -2   2   21.48    0.54
   1  -2   2   19.43    0.55
   1  -2   2   21.35    0.53
   1  -2   2   21.36    0.57
   1  -2   2   21.73    0.53
  -2   2  -2   16.52    0.44
  -2   2  -2   16.55    0.43
  -2   2  -2   16.67    0.43
  -2   2  -2   16.05    0.43
  -2   2  -2   16.89    0.50
   2  -2   2   16.74    0.43
   2  -2   2   16.84    0.43
   2  -2   2   16.16    0.43
   2  -2   2   17.19    0.46
   2  -2   2   16.57    0.43
  -3   2  -2  122.13    3.01
  -3   2  -2  123.52    3.49
  -3   2  -2  124.41    3.03
  -3   2  -2  123.33    3.12
  -3   2  -2  127.66    3.01
   3  -2   2  124.08    3.03
   3  -2   2  127.44    3.01
   3  -2   2  125.81    3.03
   3  -2   2  124.22    3.12
   3  -2   2  126.43    3.01
   3  -2   2  125.64    3.21
  -4   2  -2   22.24    0.60
  -4   2  -2   22.84    0.60
  -4   2  -2   23.36    0.60
   4  -2   2   23.44    0.62
   4  -2   2   22.54    0.70
   4  -2   2   22.77    0.63
   4  -2   2   22.83    0.60
   4  -2   2   24.08    0.61
   4  -2   2   22.62    0.61
  -5   2  -2    1.10    0.09
  -5   2  -2    1.13    0.11
  -5   2  -2    1.05    0.11
   5  -2   2    1.04    0.10
   5  -2   2    1.13    0.08
   5  -2   2    1.10    0.10
   5  -2   2    1.16    0.12
   5  -2   2    0.96    0.11
   5  -2   2    1.04    0.09
  -6   2  -2    4.60    0.20
  -6   2  -2    4.93    0.21
  -6   2  -2    4.98    0.22
  -6   2  -2    5.29    0.45
   6  -2   2    4.77    0.20
   6  -2   2    4.85    0.21
   6  -2   2    4.86    0.21
   6  -2   2    4.45    0.24
   6  -2   2    4.73    0.22
  -7   2  -2    0.83    0.12
  -7   2  -2    0.94    0.26
  -7   2  -2    0.93    0.17
   7  -2   2    1.02    0.18
   7  -2   2    0.94    0.14
   7  -2   2    1.00    0.12
   7  -2   2    1.04    0.13
   7  -2   2    1.33    0.18
  -8   2  -2    0.02    0.10
  -8   2  -2   -0.08    0.12
  -8   2  -2    0.10    0.34
  -8   2  -2    0.05    0.08
   8  -2   2    0.16    0.08
   8  -2   2    0.08    0.08
   8  -2   2    0.04    0.08
   8  -2   2    0.09    0.15
   8   1  -2    4.51    0.24
   8   1  -2    4.69    0.28
   8   1  -2    3.94    0.29
  -8  -1   2    4.62    0.29
  -8  -1   2    3.49    0.73
  -8  -1   2    3.93    0.31
  -8  -1   2    4.30    0.22
   7   1  -2    9.84    0.41
   7   1  -2   10.02    0.34
   7   1  -2   10.41    0.36
  -7  -1   2   10.15    0.82
  -7  -1   2   10.41    0.37
  -7  -1   2   10.36    0.36
  -7  -1   2   10.02    0.34
   6   1  -2    0.11    0.06
   6   1  -2    0.10    0.07
   6   1  -2    0.10    0.07
  -6  -1   2   -0.03    0.07
  -6  -1   2    0.16    0.08
  -6  -1   2   -0.08    0.20
  -6  -1   2    0.08    0.05
   5   1  -2   14.48    0.49
   5   1  -2   14.22    0.42
   5   1  -2   14.60    0.41
  -5  -1   2   14.52    0.41
  -5  -1   2   15.04    0.42
  -5  -1   2   13.99    0.87
  -5  -1   2   14.75    0.42
   4   1  -2   43.13    1.24
   4   1  -2   41.08    1.05
   4   1  -2   42.08    1.06
  -4  -1   2   43.49    1.06
  -4  -1   2   41.03    1.05
  -4  -1   2   42.85    1.06
   3   1  -2    0.31    0.17
   3   1  -2    0.54    0.06
   3   1  -2    0.58    0.06
   3   1  -2    0.56    0.08
   3   1  -2    0.46    0.06
  -3  -1   2    0.56    0.07
  -3  -1   2    0.52    0.06
   2   1  -2    0.50    0.05
   2   1  -2    0.58    0.06
   2   1  -2    0.53    0.05
   2   1  -2    0.51    0.05
  -2  -1   2    0.46    0.05
  -2  -1   2    0.45    0.05
  -2  -1   2    0.48    0.05
  -2  -1   2    0.50    0.15
   1   1  -2  250.37    6.04
   1   1  -2  264.90   11.83
   1   1  -2  250.21    6.01
   1   1  -2  246.39    5.99
  -1  -1   2  244.96    6.42
  -1  -1   2  244.00   11.76
  -1  -1   2  253.75    5.99
  -1  -1   2  244.66    5.99
   0   1  -2    4.00    0.12
   0   1  -2    4.11    0.12
   0   1  -2    4.15    0.23
   0   1  -2    3.95    0.13
   0   1  -2    3.97    0.12
   0  -1   2    4.10    0.23
   0  -1   2    4.17    0.12
   0  -1   2    3.94    0.12
  -1   1  -2   44.14    1.10
  -1   1  -2   44.44    1.14
  -1   1  -2   43.57    1.06
  -1   1  -2   43.51    1.06
  -1   1  -2   42.44    1.07
   1  -1   2   44.82    1.07
   1  -1   2   43.70    1.14
   1  -1   2   43.31    1.06
   1  -1   2   44.71    1.10
  -2   1  -2  160.68    3.93
  -2   1  -2  183.15    3.96
  -2   1  -2  171.53    4.56
  -2   1  -2  176.92    4.06
  -2   1  -2  152.59    3.92
  -2   1  -2  160.50    4.20
  -2   1  -2  174.19    3.95
   2  -1   2  147.98    4.06
   2  -1   2  163.20    4.20
   2  -1   2  158.49    3.92
   2  -1   2  161.23    3.95
   2  -1   2  159.42    3.95
  -3   1  -2    1.72    0.09
  -3   1  -2    1.92    0.09
  -3   1  -2    1.84    0.10
  -3   1  -2    1.86    0.10
   3  -1   2    1.80    0.09
   3  -1   2    1.85    0.09
   3  -1   2    1.89    0.10
   3  -1   2    1.67    0.10
   3  -1   2    1.88    0.10
   3  -1   2    1.84    0.09
  -4   1  -2   13.99    0.40
  -4   1  -2   14.81    0.41
  -4   1  -2   15.00    0.40
  -4   1  -2   14.74    0.41
   4  -1   2   14.30    0.41
   4  -1   2   14.72    0.41
   4  -1   2   14.06    0.40
   4  -1   2   14.38    0.41
   4  -1   2   13.91    0.47
   4  -1   2   14.58    0.41
  -5   1  -2   25.39    0.71
  -5   1  -2   26.95    0.73
  -5   1  -2   26.70    0.71
   5  -1   2   28.47    0.72
   5  -1   2   25.52    0.82
   5  -1   2   27.08    0.73
   5  -1   2   27.55    0.71
   5  -1   2   27.27    0.72
  -6   1  -2    4.56    0.21
  -6   1  -2    4.40    0.20
  -6   1  -2    4.58    0.19
  -6   1  -2    4.36    0.17
   6  -1   2    4.77    0.20
   6  -1   2    4.33    0.23
   6  -1   2    4.53    0.22
   6  -1   2    4.68    0.20
   6  -1   2    4.57    0.20
  -7   1  -2    3.76    0.16
  -7   1  -2    3.64    0.20
  -7   1  -2    3.37    0.19
  -7   1  -2    3.86    0.24
  -7   1  -2    4.47    0.56
   7  -1   2    3.68    0.20
   7  -1   2    3.47    0.23
   7  -1   2    3.89    0.25
   7  -1   2    3.48    0.20
   7  -1   2    3.84    0.20
  -8   1  -2    5.46    0.33
  -8   1  -2    5.99    0.26
  -8   1  -2    5.97    0.70
  -8   1  -2    5.56    0.28
   8  -1   2    6.10    0.33
   8  -1   2    5.73    0.27
   8  -1   2    5.92    0.27
   8  -1   2    5.88    0.27
   8  -1   2    6.14    0.33
   8   0  -2    7.18    0.29
   8   0  -2    7.40    0.32
   8   0  -2    7.13    0.35
  -8   0   2    7.23    0.28
  -8   0   2    7.04    0.33
  -8   0   2    6.63    0.29
  -8   0   2    6.49    0.70
   7   0  -2    0.31    0.07
   7   0  -2    0.36    0.10
   7   0  -2    0.20    0.08
  -7   0   2    0.36    0.24
  -7   0   2    0.41    0.07
  -7   0   2    0.34    0.10
  -7   0   2    0.37    0.10
   6   0  -2    7.81    0.27
   6   0  -2    7.33    0.26
   6   0  -2    7.60    0.32
  -6   0   2    7.47    0.26
  -6   0   2    7.52    0.27
  -6   0   2    7.69    0.58
  -6   0   2    7.63    0.27
   5   0  -2   35.13    0.88
   5   0  -2   33.67    0.87
   5   0  -2   34.35    1.04
  -5   0   2   33.04    0.87
  -5   0   2   34.27    0.88
  -5   0   2   35.61    1.74
   4   0  -2    0.15    0.06
   4   0  -2    0.25    0.20
   4   0  -2    0.09    0.04
   4   0  -2    0.12    0.04
  -4   0   2    0.05    0.04
  -4   0   2    0.07    0.03
   3   0  -2    4.33    0.14
   3   0  -2    4.25    0.14
   3   0  -2    4.63    0.33
   3   0  -2    4.30    0.14
  -3   0   2    4.56    0.31
  -3   0   2    3.92    0.14
  -3   0   2    4.23    0.14
   2   0  -2   72.61    1.75
   2   0  -2   72.13    1.74
   2   0  -2   69.58    2.03
   2   0  -2   71.59    1.74
  -2   0   2   71.60    3.41
  -2   0   2   74.02    1.74
  -2   0   2   73.76    1.85
  -2   0   2   73.80    1.75
   1   0  -2    4.23    0.27
   1   0  -2    4.97    0.13
   1   0  -2    4.89    0.14
   1   0  -2    4.87    0.13
   1   0  -2    4.71    0.13
  -1   0   2    4.84    0.27
  -1   0   2    4.84    0.13
  -1   0   2    4.83    0.14
  -1   0   2    4.64    0.13
  -1   0   2    4.95    0.13
   0   0  -2  138.31    3.35
   0   0  -2  136.94    3.37
   0   0  -2  138.40    3.35
   0   0  -2  141.67    3.59
   0   0   2  144.61    3.36
   0   0   2  140.50    3.60
   0   0   2  139.37    3.35
  -1   0  -2  140.79    3.51
  -1   0  -2  150.63    3.51
  -1   0  -2  147.54    3.76
  -1   0  -2  145.98    3.53
  -1   0  -2  142.46    3.53
  -1   0  -2  143.66    3.64
   1   0   2  144.18    3.64
   1   0   2  142.44    3.54
   1   0   2  161.37    3.51
   1   0   2  147.29    3.76
   1   0   2  146.92    3.51
   1   0   2  149.53    3.53
  -2   0  -2    0.89    0.06
  -2   0  -2    0.91    0.07
  -2   0  -2    0.92    0.06
  -2   0  -2    0.95    0.06
   2   0   2    0.87    0.06
   2   0   2    0.84    0.06
   2   0   2    0.91    0.05
   2   0   2    0.94    0.06
   2   0   2    0.96    0.07
   2   0   2    0.94    0.06
  -3   0  -2  200.31    4.62
  -3   0  -2  197.47    4.62
  -3   0  -2  187.77    5.35
  -3   0  -2  192.13    4.93
   3   0   2  192.39    4.62
   3   0   2  198.05    4.65
   3   0   2  192.46    4.77
   3   0   2  189.69    4.64
   3   0   2  183.49    5.35
  -4   0  -2   97.74    2.31
  -4   0  -2   94.13    2.31
  -4   0  -2   94.84    2.45
  -4   0  -2   96.08    2.32
   4   0   2   92.10    2.30
   4   0   2   94.31    2.32
   4   0   2   94.97    2.38
   4   0   2   98.62    2.32
   4   0   2   88.69    2.67
  -5   0  -2    4.17    0.18
  -5   0  -2    4.31    0.16
  -5   0  -2    4.38    0.18
  -5   0  -2    3.82    0.17
   5   0   2    3.97    0.17
   5   0   2    4.52    0.19
   5   0   2    4.17    0.18
   5   0   2    4.17    0.18
   5   0   2    3.82    0.20
  -6   0  -2    8.15    0.29
  -6   0  -2    8.26    0.27
  -6   0  -2    7.97    0.29
  -6   0  -2    7.96    0.29
   6   0   2    8.36    0.29
   6   0   2    7.96    0.29
   6   0   2    8.16    0.34
   6   0   2    8.72    0.31
   6   0   2    8.18    0.29
  -7   0  -2    4.47    0.59
  -7   0  -2    4.34    0.21
  -7   0  -2    4.48    0.19
  -7   0  -2    4.39    0.23
  -7   0  -2    3.99    0.25
   7   0   2    4.14    0.26
   7   0   2    4.66    0.26
   7   0   2    4.53    0.22
   7   0   2    4.36    0.23
   7   0   2    4.27    0.22
  -8   0  -2   -0.12    0.06
  -8   0  -2    0.04    0.10
  -8   0  -2    0.19    0.08
  -8   0  -2   -0.25    0.34
  -8   0  -2    0.27    0.16
   8   0   2    0.02    0.15
   8   0   2    0.02    0.09
   8   0   2    0.01    0.08
   8   0   2    0.19    0.11
   8   0   2    0.14    0.09
  -9   1   2    1.90    0.45
   8  -1  -2    0.13    0.11
   8  -1  -2    0.18    0.10
   8  -1  -2    0.04    0.08
  -8   1   2   -0.33    0.26
  -8   1   2    0.27    0.12
  -8   1   2    0.05    0.07
   7  -1  -2    7.54    0.33
   7  -1  -2    7.36    0.26
   7  -1  -2    7.89    0.29
   7  -1  -2    7.28    0.27
  -7   1   2    7.40    0.26
  -7   1   2    7.26    0.58
  -7   1   2    7.25    0.28
  -7   1   2    7.14    0.27
   6  -1  -2   20.28    0.68
   6  -1  -2   20.88    0.56
   6  -1  -2   21.53    0.57
   6  -1  -2   21.69    0.58
  -6   1   2   20.32    0.57
  -6   1   2   21.07    0.57
  -6   1   2   21.55    1.13
  -6   1   2   20.99    0.57
   5  -1  -2   13.63    0.38
   5  -1  -2   13.70    0.37
   5  -1  -2   13.63    0.38
   5  -1  -2   12.85    0.46
  -5   1   2   13.98    0.38
  -5   1   2   13.10    0.38
  -5   1   2   14.30    0.78
  -5   1   2   13.53    0.38
   4  -1  -2   89.38    2.13
   4  -1  -2   86.15    2.15
   4  -1  -2   97.29    4.21
   4  -1  -2   89.76    2.13
   4  -1  -2   86.09    2.50
  -4   1   2   88.57    2.15
  -4   1   2   85.78    2.13
  -4   1   2   88.65    4.19
  -4   1   2   83.68    2.13
   3  -1  -2   10.39    0.27
   3  -1  -2   10.30    0.28
   3  -1  -2   11.34    0.58
   3  -1  -2    9.85    0.34
   3  -1  -2   10.23    0.27
  -3   1   2   10.58    0.27
  -3   1   2   10.05    0.27
  -3   1   2   10.10    0.56
  -3   1   2    9.79    0.27
   2  -1  -2   28.24    0.85
   2  -1  -2   29.91    0.71
   2  -1  -2   29.05    0.72
   2  -1  -2   29.87    0.77
   2  -1  -2   29.40    0.71
   2  -1  -2   30.83    1.43
  -2   1   2   29.62    0.71
  -2   1   2   29.46    1.42
   1  -1  -2   44.75    2.10
   1  -1  -2   44.23    1.15
  -1   1   2   43.79    1.06
   0  -1  -2   54.20    1.46
   0  -1  -2   55.81    1.35
   0  -1  -2   56.67    1.36
   0  -1  -2   57.03    1.35
   0   1   2   56.66    1.36
   0   1   2   57.26    1.35
   0   1   2   56.69    1.35
   0   1   2   57.18    1.36
  -1  -1  -2   25.50    0.64
  -1  -1  -2   25.86    0.64
   1   1   2   26.03    0.64
   1   1   2   25.93    0.64
  -2  -1  -2   52.62    1.40
  -2  -1  -2   54.24    1.31
  -2  -1  -2   53.04    1.32
  -2  -1  -2   53.47    1.51
   2   1   2   54.05    1.32
   2   1   2   52.28    1.31
   2   1   2   55.16    1.32
   2   1   2   54.24    1.31
  -3  -1  -2   34.62    1.03
  -3  -1  -2   35.68    0.95
  -3  -1  -2   35.80    0.91
  -3  -1  -2   34.03    0.90
   3   1   2   34.91    0.90
   3   1   2   37.52    0.91
   3   1   2   36.72    0.90
   3   1   2   35.80    1.04
  -4  -1  -2   22.92    0.62
  -4  -1  -2   22.58    0.70
  -4  -1  -2   23.80    0.63
  -4  -1  -2   23.28    0.64
   4   1   2   22.18    0.61
   4   1   2   23.64    0.62
  -5  -1  -2   12.26    0.37
  -5  -1  -2   12.95    0.38
  -5  -1  -2   12.42    0.38
   5   1   2   11.91    0.38
   5   1   2   13.00    0.39
   5   1   2   12.18    0.37
   5   1   2   12.24    0.43
  -6  -1  -2    4.35    0.25
  -6  -1  -2    4.36    0.20
  -6  -1  -2    4.46    0.22
  -6  -1  -2    4.68    0.20
   6   1   2    4.10    0.21
   6   1   2    4.79    0.25
   6   1   2    4.26    0.23
   6   1   2    4.10    0.20
  -7  -1  -2    3.17    0.20
  -7  -1  -2    3.21    0.24
  -7  -1  -2    3.88    0.18
  -7  -1  -2    2.89    0.24
  -7  -1  -2    3.61    0.22
   7   1   2    3.54    0.20
   7   1   2    3.92    0.25
   7   1   2    3.67    0.25
   7   1   2    3.66    0.21
   7   1   2    3.87    0.21
  -8  -1  -2    2.69    0.19
  -8  -1  -2    2.75    0.24
  -8  -1  -2    3.33    0.21
   8   1   2    3.06    0.23
   8   1   2    3.13    0.22
   8   1   2    2.91    0.21
   8   1   2    2.88    0.26
   8   1   2    2.97    0.29
   8  -2  -2    4.54    0.21
   8  -2  -2    4.45    0.20
   8  -2  -2    4.32    0.25
   8  -2  -2    4.51    0.24
   8  -2  -2    4.53    0.28
  -8   2   2    4.64    0.25
  -8   2   2    4.50    0.23
  -8   2   2    4.44    0.21
  -8   2   2    4.20    0.56
   7  -2  -2    0.91    0.15
   7  -2  -2    0.54    0.07
   7  -2  -2    0.74    0.11
   7  -2  -2    0.57    0.09
   7  -2  -2    0.93    0.15
  -7   2   2    0.60    0.21
  -7   2   2    0.52    0.09
  -7   2   2    0.77    0.12
  -7   2   2    0.68    0.11
   6  -2  -2    8.95    0.27
   6  -2  -2    8.52    0.27
   6  -2  -2    8.88    0.35
   6  -2  -2    8.55    0.28
  -6   2   2    8.71    0.58
  -6   2   2    8.68    0.28
  -6   2   2    8.58    0.27
  -6   2   2    8.20    0.27
   5  -2  -2   25.97    0.83
   5  -2  -2   26.94    0.69
   5  -2  -2   29.19    1.39
   5  -2  -2   27.26    0.70
   5  -2  -2   26.60    0.69
  -5   2   2   26.52    0.69
  -5   2   2   27.16    0.69
  -5   2   2   26.50    0.69
  -5   2   2   27.26    1.36
   4  -2  -2   15.74    0.42
   4  -2  -2   15.91    0.41
   4  -2  -2   16.95    0.84
   4  -2  -2   15.65    0.41
  -4   2   2   15.67    0.41
  -4   2   2   15.66    0.41
  -4   2   2   16.17    0.51
  -4   2   2   14.67    0.40
  -4   2   2   16.22    0.82
   3  -2  -2   16.14    0.50
   3  -2  -2   16.58    0.40
   3  -2  -2   16.67    0.40
   3  -2  -2   16.49    0.43
   3  -2  -2   15.86    0.85
  -3   2   2   15.80    0.82
  -3   2   2   16.06    0.41
   2  -2  -2   53.97    1.26
   2  -2  -2   51.35    1.48
   2  -2  -2   50.26    2.48
  -2   2   2   53.06    1.25
  -2   2   2   52.59    1.25
   1  -2  -2    6.81    0.19
   0  -2  -2   70.00    1.69
   0  -2  -2   70.40    1.69
   0  -2  -2   68.86    1.71
   0  -2  -2   72.66    1.75
   0   2   2   72.04    1.70
   0   2   2   72.76    1.70
   0   2   2   68.50    1.70
   0   2   2   70.81    1.70
  -1  -2  -2   42.54    1.01
  -1  -2  -2   40.63    1.02
  -1  -2  -2   41.02    1.01
   1   2   2   42.11    1.02
   1   2   2   39.28    1.01
   1   2   2   42.05    1.01
  -2  -2  -2    0.38    0.06
  -2  -2  -2    0.35    0.05
  -2  -2  -2    0.42    0.05
  -2  -2  -2    0.33    0.06
   2   2   2    0.39    0.06
   2   2   2    0.37    0.06
   2   2   2    0.47    0.06
  -3  -2  -2   16.28    0.45
  -3  -2  -2   16.31    0.45
  -3  -2  -2   16.36    0.50
  -3  -2  -2   15.52    0.47
   3   2   2   17.10    0.45
   3   2   2   16.71    0.45
   3   2   2   15.68    0.44
  -4  -2  -2   17.10    0.47
  -4  -2  -2   16.64    0.48
  -4  -2  -2   16.69    0.47
  -4  -2  -2   17.38    0.53
   4   2   2   17.60    0.47
   4   2   2   14.95    0.46
   4   2   2   16.14    0.53
   4   2   2   15.87    0.46
  -5  -2  -2    2.15    0.16
  -5  -2  -2    2.28    0.15
  -5  -2  -2    2.10    0.15
  -5  -2  -2    2.27    0.13
  -5  -2  -2    2.26    0.14
   5   2   2    2.11    0.14
   5   2   2    2.35    0.14
   5   2   2    2.44    0.16
   5   2   2    2.30    0.16
  -6  -2  -2   11.05    0.38
  -6  -2  -2   11.21    0.42
  -6  -2  -2   11.03    0.39
  -6  -2  -2   11.39    0.38
  -6  -2  -2   11.07    0.36
   6   2   2   11.39    0.37
   6   2   2   11.73    0.39
   6   2   2   11.28    0.43
   6   2   2   11.67    0.38
  -7  -2  -2   10.30    0.35
  -7  -2  -2    9.86    0.39
  -7  -2  -2   10.67    0.37
  -7  -2  -2    9.37    0.43
  -7  -2  -2   10.25    0.39
   7   2   2   10.90    0.38
   7   2   2   11.04    0.41
   7   2   2   10.31    0.38
   7   2   2   10.51    0.43
  -8  -2  -2    0.03    0.10
  -8  -2  -2   -0.02    0.08
  -8  -2  -2    0.15    0.12
   8   2   2    0.25    0.12
   8   2   2    0.20    0.11
   8   2   2    0.08    0.16
   8   2   2    0.17    0.10
   8   2   2    0.21    0.11
   8  -3  -2    0.00    0.10
   8  -3  -2    0.00    0.11
   8  -3  -2    0.10    0.07
   8  -3  -2    0.01    0.11
  -8   3   2    0.16    0.24
  -8   3   2   -0.02    0.07
  -8   3   2   -0.05    0.10
   7  -3  -2    3.13    0.21
   7  -3  -2    3.00    0.17
   7  -3  -2    3.17    0.19
   7  -3  -2    3.15    0.15
   7  -3  -2    3.15    0.19
   7  -3  -2    3.34    0.16
  -7   3   2    3.37    0.16
  -7   3   2    3.19    0.38
  -7   3   2    3.24    0.18
   6  -3  -2    5.84    0.21
   6  -3  -2    6.29    0.22
   6  -3  -2    6.18    0.29
   6  -3  -2    6.21    0.21
   6  -3  -2    6.12    0.25
   6  -3  -2    6.20    0.21
  -6   3   2    5.99    0.21
  -6   3   2    6.33    0.44
  -6   3   2    6.35    0.28
  -6   3   2    6.13    0.21
   5  -3  -2    0.34    0.07
   5  -3  -2    0.34    0.07
   5  -3  -2    0.35    0.06
   5  -3  -2    0.24    0.17
   5  -3  -2    0.46    0.06
   5  -3  -2    0.30    0.06
   5  -3  -2    0.39    0.07
  -5   3   2    0.38    0.05
  -5   3   2    0.60    0.11
  -5   3   2    0.32    0.05
  -5   3   2    0.60    0.18
   4  -3  -2   20.55    0.52
   4  -3  -2   20.95    0.51
   4  -3  -2   19.92    0.57
   4  -3  -2   20.42    0.64
   4  -3  -2   20.19    0.52
   4  -3  -2   20.55    1.04
   4  -3  -2   20.67    0.51
  -4   3   2   20.61    0.52
   3  -3  -2    1.02    0.08
   3  -3  -2    0.97    0.05
   3  -3  -2    1.02    0.05
   3  -3  -2    0.95    0.08
  -3   3   2    1.02    0.05
  -3   3   2    1.10    0.05
   2  -3  -2    5.75    0.18
   2  -3  -2    5.58    0.20
   1  -3  -2   11.36    0.28
   1  -3  -2   11.37    0.28
   1  -3  -2   11.18    0.28
   1  -3  -2   11.43    0.31
   0  -3  -2    7.92    0.22
   0  -3  -2    8.22    0.22
   0  -3  -2    8.26    0.22
   0  -3  -2    8.40    0.22
   0   3   2    8.65    0.22
   0   3   2    8.34    0.22
   0   3   2    8.09    0.22
   0   3   2    8.18    0.22
  -1  -3  -2    6.92    0.21
  -1  -3  -2    7.25    0.23
  -1  -3  -2    7.33    0.21
  -1  -3  -2    7.15    0.21
   1   3   2    7.44    0.21
   1   3   2    7.46    0.20
   1   3   2    7.07    0.21
   1   3   2    7.32    0.21
  -2  -3  -2   42.73    1.07
  -2  -3  -2   42.01    1.08
  -2  -3  -2   43.17    1.22
   2   3   2   42.75    1.07
   2   3   2   44.50    1.07
  -3  -3  -2   15.10    0.43
  -3  -3  -2   15.54    0.44
  -3  -3  -2   15.26    0.48
   3   3   2   16.12    0.43
   3   3   2   15.00    0.43
   3   3   2   15.82    0.44
  -4  -3  -2    0.84    0.11
  -4  -3  -2    0.78    0.10
  -4  -3  -2    0.84    0.12
   4   3   2    0.96    0.11
   4   3   2    0.69    0.09
   4   3   2    0.78    0.11
  -5  -3  -2    9.65    0.37
  -5  -3  -2    9.41    0.32
  -5  -3  -2    9.54    0.33
  -5  -3  -2    9.38    0.33
   5   3   2   10.22    0.34
   5   3   2    9.89    0.34
   5   3   2    9.56    0.32
   5   3   2    9.71    0.36
  -6  -3  -2    7.77    0.28
  -6  -3  -2    7.08    0.30
  -6  -3  -2    7.69    0.31
  -6  -3  -2    7.96    0.30
  -6  -3  -2    7.46    0.34
   6   3   2    7.67    0.35
   6   3   2    7.83    0.32
   6   3   2    7.57    0.32
   6   3   2    7.19    0.29
  -7  -3  -2    0.03    0.15
  -7  -3  -2   -0.07    0.08
  -7  -3  -2   -0.04    0.12
  -7  -3  -2    0.06    0.08
   7   3   2    0.08    0.10
   7   3   2   -0.10    0.12
   7   3   2   -0.05    0.09
  -8  -3  -2    4.08    0.30
  -8  -3  -2    4.58    0.25
  -8  -3  -2    4.50    0.28
   8   3   2    4.06    0.28
   8   3   2    3.60    0.39
   8   3   2    4.27    0.29
   8  -4  -2    3.29    0.22
   8  -4  -2    3.40    0.22
   8  -4  -2    3.40    0.19
   8  -4  -2    3.59    0.17
   8  -4  -2    3.61    0.26
  -8   4   2    3.15    0.48
  -8   4   2    3.40    0.22
  -8   4   2    3.34    0.18
   7  -4  -2    0.07    0.07
   7  -4  -2    0.15    0.05
   7  -4  -2    0.21    0.08
   7  -4  -2    0.12    0.09
   7  -4  -2    0.09    0.07
   7  -4  -2    0.07    0.09
  -7   4   2    0.13    0.08
  -7   4   2    0.06    0.06
   6  -4  -2    0.22    0.06
   6  -4  -2    0.27    0.08
   6  -4  -2    0.28    0.09
   6  -4  -2    0.17    0.08
   6  -4  -2    0.17    0.05
   6  -4  -2    0.24    0.05
  -6   4   2    0.21    0.06
  -6   4   2    0.21    0.05
   5  -4  -2   19.68    0.49
   5  -4  -2   19.23    0.49
   5  -4  -2   19.37    0.50
   5  -4  -2   18.59    0.51
   5  -4  -2   19.19    0.57
   5  -4  -2   19.45    0.62
  -5   4   2   19.30    0.50
  -5   4   2   19.51    0.50
   4  -4  -2    2.28    0.13
   4  -4  -2    2.50    0.08
   4  -4  -2    2.49    0.27
   4  -4  -2    2.37    0.09
   4  -4  -2    2.46    0.08
   4  -4  -2    2.46    0.14
  -4   4   2    2.37    0.09
   3  -4  -2    0.93    0.08
   3  -4  -2    0.79    0.05
   3  -4  -2    0.90    0.14
   3  -4  -2    0.87    0.08
   3  -4  -2    0.83    0.05
  -3   4   2    0.75    0.04
  -3   4   2    0.97    0.05
   2  -4  -2   51.43    1.25
   2  -4  -2   52.46    1.32
  -2   4   2   51.43    1.24
   1  -4  -2   43.12    1.16
   1  -4  -2   40.85    1.01
   1  -4  -2   40.91    1.05
   1  -4  -2   41.78    1.00
   1  -4  -2   40.84    1.00
  -1   4   2   40.47    1.00
  -1   4   2   41.85    1.05
   0  -4  -2    0.75    0.05
   0  -4  -2    0.80    0.06
   0  -4  -2    0.86    0.06
   0  -4  -2    0.62    0.06
   0   4   2    0.69    0.06
   0   4   2    0.80    0.06
   0   4   2    0.76    0.06
  -1  -4  -2   11.27    0.33
  -1  -4  -2   11.27    0.31
  -1  -4  -2   10.66    0.31
   1   4   2   10.57    0.31
   1   4   2   11.40    0.31
   1   4   2   11.51    0.30
  -2  -4  -2    5.75    0.20
  -2  -4  -2    5.89    0.21
  -2  -4  -2    5.90    0.20
   2   4   2    5.75    0.20
   2   4   2    6.11    0.18
   2   4   2    6.13    0.21
  -3  -4  -2    0.12    0.06
  -3  -4  -2    0.04    0.05
  -3  -4  -2    0.08    0.06
   3   4   2    0.08    0.05
   3   4   2    0.02    0.05
  -4  -4  -2   14.05    0.43
  -4  -4  -2   14.77    0.48
  -4  -4  -2   14.00    0.43
   4   4   2   13.66    0.43
   4   4   2   14.78    0.44
   4   4   2   14.82    0.43
  -5  -4  -2    1.20    0.17
  -5  -4  -2    1.15    0.14
  -5  -4  -2    1.15    0.15
  -5  -4  -2    1.12    0.14
   5   4   2    1.14    0.13
   5   4   2    1.38    0.18
   5   4   2    1.28    0.17
  -6  -4  -2    3.10    0.22
  -6  -4  -2    2.66    0.24
  -6  -4  -2    2.76    0.19
  -6  -4  -2    3.34    0.21
   6   4   2    3.08    0.26
   6   4   2    2.93    0.25
   6   4   2    3.00    0.20
  -7  -4  -2    8.37    0.34
  -7  -4  -2    7.93    0.36
  -7  -4  -2    8.14    0.33
   7   4   2    8.52    0.35
   7   4   2    7.27    0.40
   8  -5  -2    0.53    0.08
   8  -5  -2    0.32    0.12
   8  -5  -2    0.49    0.10
   8  -5  -2    0.47    0.13
  -8   5   2    0.49    0.11
  -8   5   2    0.68    0.13
   7  -5  -2    1.58    0.12
   7  -5  -2    1.79    0.14
   7  -5  -2    1.89    0.13
   7  -5  -2    1.80    0.18
   7  -5  -2    1.82    0.19
   7  -5  -2    1.74    0.15
  -7   5   2    1.92    0.13
  -7   5   2    1.83    0.15
   6  -5  -2   17.16    0.53
   6  -5  -2   16.68    0.44
   6  -5  -2   17.19    0.44
   6  -5  -2   17.23    0.58
   6  -5  -2   16.64    0.46
   6  -5  -2   16.68    0.46
  -6   5   2   17.20    0.46
  -6   5   2   17.08    0.46
   5  -5  -2    0.82    0.13
   5  -5  -2    0.69    0.06
   5  -5  -2    0.55    0.09
   5  -5  -2    0.61    0.08
   5  -5  -2    0.59    0.07
  -5   5   2    0.46    0.07
   4  -5  -2   10.37    0.60
   4  -5  -2   11.24    0.35
   4  -5  -2   11.07    0.29
   4  -5  -2    9.97    0.29
   4  -5  -2   11.58    0.37
  -4   5   2   10.67    0.29
  -4   5   2   11.16    0.29
   3  -5  -2   43.69    2.08
   3  -5  -2   43.38    1.13
   3  -5  -2   43.38    1.06
   3  -5  -2   43.83    1.25
  -3   5   2   44.89    1.05
  -3   5   2   41.44    1.05
   2  -5  -2    0.95    0.08
   2  -5  -2    0.96    0.05
  -2   5   2    0.91    0.05
  -2   5   2    0.71    0.05
   1  -5  -2   38.75    1.03
   1  -5  -2   36.79    0.91
   1  -5  -2   35.67    0.94
   1  -5  -2   36.81    0.90
   1  -5  -2   36.16    0.89
  -1   5   2   35.75    0.90
  -1   5   2   36.58    0.90
  -1   5   2   37.27    0.95
  -1   5   2   37.09    0.90
   0  -5  -2   10.94    0.31
   0  -5  -2   10.78    0.30
   0  -5  -2   11.01    0.30
   0   5   2   11.06    0.31
   0   5   2   11.18    0.31
   0   5   2   11.42    0.31
  -1  -5  -2   -0.08    0.04
  -1  -5  -2    0.20    0.05
  -1  -5  -2    0.04    0.04
   1   5   2    0.00    0.03
   1   5   2    0.02    0.03
   1   5   2    0.04    0.04
  -2  -5  -2    6.51    0.22
  -2  -5  -2    5.89    0.21
  -2  -5  -2    5.91    0.21
   2   5   2    6.00    0.21
   2   5   2    5.90    0.22
   2   5   2    6.18    0.19
  -3  -5  -2   12.84    0.39
  -3  -5  -2   13.29    0.42
  -3  -5  -2   13.13    0.39
   3   5   2   12.88    0.39
   3   5   2   12.98    0.40
  -4  -5  -2    1.04    0.14
  -4  -5  -2    1.22    0.15
  -4  -5  -2    1.34    0.15
   4   5   2    0.96    0.12
   4   5   2    1.09    0.16
   4   5   2    1.28    0.14
  -5  -5  -2    1.40    0.20
  -5  -5  -2    1.59    0.18
  -5  -5  -2    1.59    0.16
   5   5   2    1.36    0.16
   5   5   2    1.42    0.22
   5   5   2    1.54    0.20
  -6  -5  -2    4.07    0.24
  -6  -5  -2    3.67    0.24
  -6  -5  -2    4.02    0.23
  -6  -5  -2    3.80    0.30
   6   5   2    3.96    0.24
   6   5   2    4.08    0.32
   6   5   2    4.26    0.31
  -7  -5  -2    0.32    0.13
  -7  -5  -2    0.27    0.11
  -7  -5  -2    0.24    0.13
   7   5   2    0.23    0.12
   7  -6  -2    1.70    0.20
   7  -6  -2    1.30    0.14
   7  -6  -2    1.25    0.18
   7  -6  -2    1.18    0.11
  -7   6   2    1.39    0.15
  -7   6   2    1.24    0.12
   6  -6  -2    0.22    0.07
   6  -6  -2    0.14    0.05
   6  -6  -2    0.15    0.08
   6  -6  -2    0.24    0.09
  -6   6   2    0.17    0.05
   5  -6  -2   13.48    0.46
   5  -6  -2   13.14    0.36
   5  -6  -2   13.14    0.43
  -5   6   2   13.44    0.36
  -5   6   2   13.09    0.35
   4  -6  -2    8.02    0.28
   4  -6  -2    7.92    0.22
   4  -6  -2    8.10    0.29
   4  -6  -2    7.74    0.46
   4  -6  -2    7.56    0.22
  -4   6   2    8.14    0.22
  -4   6   2    7.54    0.22
   3  -6  -2    9.78    0.27
   3  -6  -2   10.04    0.32
   3  -6  -2    9.63    0.54
   3  -6  -2    9.93    0.32
  -3   6   2   10.04    0.26
   2  -6  -2   24.28    0.62
   2  -6  -2   24.76    0.67
   2  -6  -2   25.11    0.71
   2  -6  -2   24.57    0.61
   2  -6  -2   25.10    0.60
  -2   6   2   24.40    0.62
   1  -6  -2   24.50    0.61
   1  -6  -2   24.37    0.65
   1  -6  -2   24.21    0.63
   1  -6  -2   24.69    0.62
  -1   6   2   24.98    0.61
  -1   6   2   24.78    0.66
  -1   6   2   24.66    0.62
  -1   6   2   24.37    0.62
   0  -6  -2    4.27    0.15
   0  -6  -2    4.14    0.15
   0  -6  -2    4.10    0.15
   0   6   2    4.26    0.15
   0   6   2    4.08    0.15
   0   6   2    4.19    0.15
  -1  -6  -2   26.03    0.70
  -1  -6  -2   26.91    0.68
   1   6   2   26.22    0.69
   1   6   2   26.49    0.69
   1   6   2   26.60    0.69
  -2  -6  -2    4.68    0.19
  -2  -6  -2    4.62    0.19
  -2  -6  -2    4.70    0.17
   2   6   2    4.55    0.17
   2   6   2    4.71    0.21
   2   6   2    4.74    0.19
  -3  -6  -2    0.18    0.07
  -3  -6  -2   -0.05    0.06
  -3  -6  -2    0.06    0.06
   3   6   2   -0.03    0.05
   3   6   2    0.09    0.06
   3   6   2    0.10    0.09
  -4  -6  -2    0.58    0.11
  -4  -6  -2    0.43    0.09
  -4  -6  -2    0.56    0.10
   4   6   2    0.41    0.08
   4   6   2    0.47    0.13
  -5  -6  -2    1.58    0.19
  -5  -6  -2    2.06    0.23
  -5  -6  -2    1.70    0.18
   5   6   2    1.46    0.18
   5   6   2    1.70    0.17
  -6  -6  -2    0.06    0.11
  -6  -6  -2    0.14    0.13
  -6  -6  -2   -0.02    0.09
  -6  -6  -2   -0.02    0.16
   6   6   2    0.09    0.10
   7  -7  -2    0.59    0.13
   7  -7  -2    0.91    0.12
   7  -7  -2    0.79    0.11
   7  -7  -2    0.84    0.14
   7  -7  -2    0.79    0.14
  -7   7   2    0.74    0.14
  -7   7   2    0.97    0.12
   6  -7  -2    6.64    0.30
   6  -7  -2    6.72    0.29
   6  -7  -2    6.13    0.21
   6  -7  -2    5.99    0.22
  -6   7   2    6.20    0.21
  -6   7   2    6.51    0.21
   5  -7  -2    0.08    0.05
   5  -7  -2    0.05    0.08
   5  -7  -2    0.11    0.08
   5  -7  -2   -0.02    0.05
  -5   7   2    0.09    0.04
  -5   7   2    0.07    0.05
   4  -7  -2    1.33    0.08
   4  -7  -2    1.28    0.12
   4  -7  -2    1.18    0.08
   4  -7  -2    1.16    0.22
   4  -7  -2    1.20    0.13
  -4   7   2    1.25    0.09
  -4   7   2    1.28    0.08
   3  -7  -2   17.90    0.52
   3  -7  -2   17.74    0.46
   3  -7  -2   17.77    0.53
   3  -7  -2   18.45    0.93
  -3   7   2   17.37    0.46
  -3   7   2   17.34    0.46
   2  -7  -2   15.68    0.42
   2  -7  -2   15.70    0.40
   2  -7  -2   16.26    0.46
   2  -7  -2   15.52    0.40
  -2   7   2   15.78    0.42
   1  -7  -2   21.70    0.56
   1  -7  -2   21.86    0.56
   1  -7  -2   22.36    0.60
   1  -7  -2   21.44    0.57
  -1   7   2   22.24    0.56
  -1   7   2   22.03    0.57
  -1   7   2   22.15    0.60
  -1   7   2   21.70    0.57
   0  -7  -2   10.42    0.32
   0  -7  -2   10.75    0.32
   0  -7  -2   11.15    0.32
   0   7   2   11.35    0.33
   0   7   2   11.19    0.33
   0   7   2   10.91    0.33
  -1  -7  -2    2.28    0.14
  -1  -7  -2    2.02    0.13
  -1  -7  -2    2.37    0.14
   1   7   2    2.11    0.15
   1   7   2    2.03    0.13
   1   7   2    2.26    0.13
  -2  -7  -2    0.20    0.07
  -2  -7  -2    0.25    0.07
  -2  -7  -2    0.21    0.07
   2   7   2    0.26    0.07
   2   7   2    0.72    0.12
   2   7   2    0.14    0.09
  -3  -7  -2    7.64    0.30
  -3  -7  -2    8.36    0.30
   3   7   2    7.98    0.29
   3   7   2    7.73    0.27
   3   7   2    8.05    0.32
  -4  -7  -2    0.56    0.11
  -4  -7  -2    0.53    0.11
  -4  -7  -2    0.53    0.10
   4   7   2    0.50    0.10
   4   7   2    0.34    0.14
   4   7   2    0.81    0.13
  -5  -7  -2    0.13    0.13
  -5  -7  -2   -0.05    0.11
  -5  -7  -2    0.02    0.10
   5   7   2   -0.09    0.11
   5   7   2    0.04    0.09
   5   7   2    0.10    0.18
   6  -8  -2    0.36    0.11
   6  -8  -2    0.18    0.06
   6  -8  -2    0.03    0.10
   6  -8  -2    0.09    0.07
  -6   8   2    0.15    0.07
  -6   8   2    0.12    0.06
   5  -8  -2    1.47    0.17
   5  -8  -2    1.24    0.10
   5  -8  -2    1.17    0.11
   5  -8  -2    1.60    0.15
  -5   8   2    1.18    0.11
   4  -8  -2    7.43    0.28
   4  -8  -2    6.97    0.22
   4  -8  -2    7.20    0.46
   4  -8  -2    7.42    0.27
  -4   8   2    6.99    0.22
  -4   8   2    7.07    0.21
   3  -8  -2    0.06    0.05
   3  -8  -2    0.13    0.07
  -3   8   2    0.02    0.05
  -3   8   2    0.06    0.04
   2  -8  -2    0.86    0.12
   2  -8  -2    0.80    0.09
   2  -8  -2    0.65    0.09
   2  -8  -2    0.73    0.09
  -2   8   2    0.76    0.09
  -2   8   2    0.92    0.11
   1  -8  -2   14.39    0.40
   1  -8  -2   14.33    0.41
   1  -8  -2   14.61    0.40
  -1   8   2   14.41    0.39
  -1   8   2   14.57    0.41
  -1   8   2   14.63    0.44
  -1   8   2   15.06    0.41
   0  -8  -2    4.97    0.20
   0  -8  -2    4.80    0.19
   0  -8  -2    4.56    0.19
   0   8   2    4.66    0.18
   0   8   2    4.72    0.19
   0   8   2    4.76    0.20
   0   8   2    4.79    0.21
  -1  -8  -2   20.11    0.57
  -1  -8  -2   20.11    0.56
  -1  -8  -2   21.00    0.57
   1   8   2   20.68    0.57
   1   8   2   18.38    0.56
   1   8   2   21.55    0.57
  -2  -8  -2   12.80    0.41
  -2  -8  -2   13.32    0.41
   2   8   2   12.59    0.43
   2   8   2   13.29    0.41
   2   8   2   12.85    0.39
  -3  -8  -2    0.96    0.16
  -3  -8  -2    0.56    0.10
   3   8   2    0.86    0.16
   3   8   2    0.51    0.10
   3   8   2    0.92    0.14
  -4  -8  -2    0.19    0.12
  -4  -8  -2    0.47    0.12
   4   8   2    0.30    0.11
   4   8   2    0.41    0.10
   4   8   2    0.34    0.19
   5  -9  -2    3.07    0.23
   5  -9  -2    2.94    0.14
   5  -9  -2    3.01    0.15
  -5   9   2    2.88    0.15
  -5   9   2    2.72    0.13
   4  -9  -2    0.89    0.17
   4  -9  -2    0.59    0.10
  -4   9   2    0.73    0.11
  -4   9   2    0.69    0.10
   3  -9  -2    1.47    0.16
   3  -9  -2    1.21    0.10
  -3   9   2    1.28    0.11
   2  -9  -2   12.65    0.35
   2  -9  -2   13.16    0.41
   2  -9  -2   12.50    0.37
   2  -9  -2   12.76    0.35
  -2   9   2   12.39    0.36
  -2   9   2   12.67    0.37
   1  -9  -2    2.15    0.15
   1  -9  -2    2.35    0.15
   1  -9  -2    2.47    0.14
  -1   9   2    2.20    0.14
  -1   9   2    2.33    0.17
  -1   9   2    2.45    0.20
   0  -9  -2    6.95    0.25
   0  -9  -2    7.19    0.27
   0  -9  -2    6.47    0.26
   0   9   2    6.94    0.28
   0   9   2    7.29    0.28
   0   9   2    7.18    0.26
  -1  -9  -2    6.27    0.25
  -1  -9  -2    6.71    0.26
   1   9   2    6.73    0.30
   1   9   2    6.08    0.26
   1   9   2    6.25    0.26
  -2  -9  -2    1.14    0.17
  -2  -9  -2    0.45    0.10
   2   9   2    0.51    0.12
   2   9   2    0.67    0.15
   2   9   2    0.53    0.10
  -3  -9  -2   12.80    0.45
  -3  -9  -2   13.33    0.44
   3   9   2   13.48    0.44
   3   9   2   12.14    0.42
   3   9   2   12.20    0.50
   2 -10  -2    1.94    0.15
   2 -10  -2    2.55    0.16
   2 -10  -2    2.54    0.15
  -2  10   2    2.60    0.19
  -2  10   2    2.34    0.16
   1 -10  -2    0.62    0.11
   1 -10  -2    0.60    0.11
   1 -10  -2    0.53    0.09
  -1  10   2    0.50    0.12
  -1  10   2    0.59    0.09
  -1  10   2    0.65    0.15
   0 -10  -2    1.46    0.19
   0 -10  -2    1.52    0.15
   0  10   2    1.60    0.23
   0  10   2    2.17    0.16
   0  10   2    1.74    0.24
   0  11  -3    2.63    0.33
   0  11  -3    2.86    0.21
   0 -11   3    2.86    0.24
   0 -11   3    2.98    0.20
  -1  11  -3    0.69    0.19
  -1  11  -3    0.88    0.16
   1 -11   3   -0.05    0.54
   1 -11   3    0.91    0.13
   1 -11   3    1.21    0.16
  -2  11  -3    3.33    0.31
  -2  11  -3    3.26    0.21
   2 -11   3    3.21    0.23
   2 -11   3    3.00    0.19
  -3 -10   3    1.07    0.20
  -3 -10   3    0.63    0.13
   2  10  -3    1.17    0.17
   2  10  -3    0.98    0.18
  -2 -10   3    1.08    0.15
  -2 -10   3    1.25    0.18
  -2 -10   3   -0.51    0.90
   1  10  -3    3.64    0.31
   1  10  -3    3.42    0.20
  -1 -10   3    3.41    0.21
  -1 -10   3    3.64    0.23
   0  10  -3    1.79    0.23
   0  10  -3    2.30    0.25
   0  10  -3    1.77    0.16
   0 -10   3    1.81    0.18
   0 -10   3    2.05    0.16
  -1  10  -3    3.41    0.26
  -1  10  -3    3.10    0.19
   1 -10   3    3.51    0.19
   1 -10   3    3.41    0.20
  -2  10  -3    2.41    0.17
  -2  10  -3    2.50    0.24
   2 -10   3    1.47    0.39
   2 -10   3    2.43    0.18
   2 -10   3    2.67    0.16
  -3  10  -3    2.77    0.18
  -3  10  -3    2.66    0.25
   3 -10   3    2.74    0.19
   3 -10   3    2.37    0.16
   3 -10   3    2.86    0.21
  -4  10  -3    2.00    0.17
  -4  10  -3    2.08    0.25
  -4  10  -3    2.11    0.21
   4 -10   3    2.33    0.19
   4 -10   3    2.42    0.16
   4 -10   3    2.08    0.21
   4   9  -3    0.69    0.16
   4   9  -3    0.48    0.12
  -4  -9   3    1.09    0.20
  -4  -9   3    0.61    0.14
   3   9  -3    4.94    0.34
   3   9  -3    4.67    0.29
   3   9  -3    5.42    0.25
   3   9  -3    4.48    0.21
  -3  -9   3    4.75    0.26
  -3  -9   3    5.49    0.27
   2   9  -3    5.41    0.28
   2   9  -3    5.30    0.24
   2   9  -3    5.39    0.30
  -2  -9   3    5.57    0.25
  -2  -9   3    5.61    0.26
   1   9  -3    1.92    0.20
   1   9  -3    2.25    0.22
   1   9  -3    1.89    0.14
  -1  -9   3    2.08    0.17
  -1  -9   3    2.13    0.16
   0   9  -3    2.35    0.20
   0   9  -3    2.47    0.21
   0   9  -3    2.57    0.15
   0  -9   3    2.53    0.16
   0  -9   3    2.35    0.17
  -1   9  -3    3.88    0.18
  -1   9  -3    3.92    0.23
  -1   9  -3    3.81    0.23
   1  -9   3    3.86    0.20
   1  -9   3    4.05    0.19
  -2   9  -3    2.59    0.21
  -2   9  -3    2.51    0.15
  -2   9  -3    2.35    0.20
   2  -9   3    2.00    0.31
   2  -9   3    2.36    0.16
   2  -9   3    2.43    0.18
   2  -9   3    2.67    0.17
   2  -9   3    2.63    0.15
  -3   9  -3    5.76    0.26
  -3   9  -3    5.50    0.24
  -3   9  -3    5.68    0.23
   3  -9   3    6.03    0.23
   3  -9   3    5.60    0.26
   3  -9   3    6.00    0.24
   3  -9   3    5.29    0.24
  -4   9  -3    7.27    0.27
  -4   9  -3    6.45    0.30
  -4   9  -3    7.41    0.31
   4  -9   3    7.55    0.27
   4  -9   3    7.47    0.27
   4  -9   3    7.27    0.31
  -5   9  -3   -0.01    0.08
  -5   9  -3    0.01    0.13
  -5   9  -3    0.04    0.13
   5  -9   3    0.07    0.07
   5  -9   3   -0.09    0.08
   5  -9   3   -0.02    0.08
  -6   9  -3    4.77    0.24
  -6   9  -3    4.82    0.32
  -6   9  -3    4.05    0.35
   6  -9   3    4.67    0.28
   6  -9   3    4.42    0.36
   6  -9   3    4.42    0.22
   6  -9   3    4.71    0.24
   5   8  -3    0.03    0.10
   5   8  -3    0.00    0.09
  -5  -8   3    0.12    0.12
  -5  -8   3    0.03    0.10
   4   8  -3    5.13    0.31
   4   8  -3    4.85    0.23
   4   8  -3    4.74    0.24
   4   8  -3    4.26    0.29
   4   8  -3    4.58    0.27
  -4  -8   3    5.07    0.26
  -4  -8   3    5.12    0.27
   3   8  -3    8.42    0.34
   3   8  -3    8.11    0.33
   3   8  -3    8.18    0.33
   3   8  -3    8.69    0.31
   3   8  -3    8.45    0.31
  -3  -8   3    8.79    0.33
  -3  -8   3    8.76    0.33
   2   8  -3    0.09    0.06
   2   8  -3    0.09    0.10
   2   8  -3    0.24    0.08
   2   8  -3    0.21    0.10
   2   8  -3    0.52    0.09
  -2  -8   3    0.54    0.50
  -2  -8   3    0.13    0.08
  -2  -8   3    0.19    0.08
   1   8  -3   19.11    0.57
   1   8  -3   19.04    0.55
   1   8  -3   20.00    0.57
  -1  -8   3   19.93    0.56
  -1  -8   3   18.99    0.56
   0   8  -3   14.65    0.43
   0   8  -3   13.75    0.41
   0   8  -3   13.16    0.43
   0  -8   3   13.71    0.41
   0  -8   3   13.67    0.42
  -1   8  -3    0.54    0.10
  -1   8  -3    0.54    0.10
  -1   8  -3    0.73    0.13
  -1   8  -3    0.66    0.12
   1  -8   3    0.19    0.29
   1  -8   3    0.69    0.11
   1  -8   3    0.63    0.10
  -2   8  -3   11.82    0.36
  -2   8  -3   10.84    0.37
  -2   8  -3   11.55    0.35
  -2   8  -3   11.34    0.36
   2  -8   3    9.88    0.61
   2  -8   3   11.17    0.35
   2  -8   3   11.70    0.35
   2  -8   3   11.18    0.37
   2  -8   3   12.10    0.37
  -3   8  -3    4.56    0.21
  -3   8  -3    4.20    0.21
  -3   8  -3    4.08    0.18
   3  -8   3    4.31    0.18
   3  -8   3    3.97    0.18
   3  -8   3    4.16    0.18
   3  -8   3    4.01    0.21
  -4   8  -3    0.71    0.12
  -4   8  -3    0.78    0.11
  -4   8  -3    0.89    0.11
   4  -8   3    0.97    0.13
   4  -8   3    0.78    0.10
   4  -8   3    0.79    0.12
   4  -8   3    0.69    0.14
  -5   8  -3    8.40    0.35
  -5   8  -3    7.29    0.31
  -5   8  -3    8.27    0.29
   5  -8   3    8.17    0.32
   5  -8   3    8.12    0.29
   5  -8   3    8.33    0.31
   5  -8   3    8.22    0.35
   5  -8   3    7.35    0.30
   5  -8   3    7.87    0.28
  -6   8  -3    3.37    0.30
  -6   8  -3    2.94    0.19
  -6   8  -3    3.30    0.26
   6  -8   3    3.58    0.23
   6  -8   3    3.12    0.19
   6  -8   3    2.86    0.18
   6  -8   3    3.59    0.29
   6   7  -3    0.22    0.10
   6   7  -3    0.14    0.18
   6   7  -3    0.45    0.12
  -6  -7   3    0.24    0.14
  -6  -7   3    0.34    0.13
   5   7  -3    6.11    0.28
   5   7  -3    6.24    0.28
   5   7  -3    5.67    0.33
  -5  -7   3    6.13    0.29
  -5  -7   3    6.55    0.29
   4   7  -3    0.82    0.12
   4   7  -3    0.93    0.14
   4   7  -3    1.02    0.14
   4   7  -3    0.70    0.12
  -4  -7   3    0.82    0.12
  -4  -7   3    1.06    0.15
   3   7  -3    5.71    0.24
   3   7  -3    6.13    0.26
   3   7  -3    5.92    0.26
   3   7  -3    5.86    0.24
  -3  -7   3    5.80    0.25
  -3  -7   3    6.01    0.25
   2   7  -3   23.45    0.65
   2   7  -3   23.71    0.67
   2   7  -3   24.48    0.66
   2   7  -3   24.04    0.66
   2   7  -3   23.87    0.71
  -2  -7   3   24.06    0.66
  -2  -7   3   23.61    0.66
   1   7  -3    8.00    0.28
   1   7  -3    8.05    0.26
   1   7  -3    7.82    0.27
   1   7  -3    7.42    0.26
  -1  -7   3    8.00    0.27
  -1  -7   3    7.57    0.27
   0   7  -3    2.08    0.14
   0   7  -3    1.96    0.13
   0  -7   3    2.19    0.13
   0  -7   3    2.08    0.13
  -1   7  -3   24.67    0.69
  -1   7  -3   24.80    0.67
  -1   7  -3   24.86    0.64
  -1   7  -3   23.55    0.63
   1  -7   3   23.80    0.64
   1  -7   3   20.01    1.20
   1  -7   3   24.15    0.63
  -2   7  -3    5.10    0.21
  -2   7  -3    5.32    0.19
  -2   7  -3    5.33    0.21
   2  -7   3    5.28    0.21
   2  -7   3    5.08    0.19
   2  -7   3    5.15    0.20
   2  -7   3    4.82    0.32
  -3   7  -3    0.11    0.07
  -3   7  -3    0.13    0.07
  -3   7  -3    0.12    0.05
   3  -7   3    0.11    0.06
   3  -7   3    0.15    0.06
   3  -7   3    0.09    0.05
  -4   7  -3    9.00    0.34
  -4   7  -3    9.34    0.30
  -4   7  -3    8.98    0.31
   4  -7   3    9.09    0.30
   4  -7   3    9.16    0.33
   4  -7   3    9.81    0.30
   4  -7   3    9.08    0.30
  -5   7  -3    0.09    0.09
  -5   7  -3    0.00    0.10
  -5   7  -3    0.15    0.06
   5  -7   3    0.15    0.07
   5  -7   3    0.19    0.07
   5  -7   3    0.21    0.09
   5  -7   3    0.03    0.06
   5  -7   3    0.04    0.06
   5  -7   3    0.01    0.08
  -6   7  -3    0.10    0.12
  -6   7  -3    0.05    0.07
  -6   7  -3   -0.02    0.12
   6  -7   3    0.12    0.07
   6  -7   3    0.15    0.10
   6  -7   3    0.05    0.07
   6  -7   3    0.04    0.10
   6  -7   3    0.08    0.06
  -7   7  -3    3.08    0.28
  -7   7  -3    2.47    0.19
   7  -7   3    2.96    0.24
   7  -7   3    3.22    0.25
   7  -7   3    2.99    0.20
   7  -7   3    2.78    0.18
   7   6  -3    1.76    0.23
   7   6  -3    1.02    0.23
   7   6  -3    1.80    0.23
  -7  -6   3    1.72    0.25
  -7  -6   3    1.84    0.23
   6   6  -3    2.84    0.29
   6   6  -3    3.18    0.22
   6   6  -3    2.94    0.22
  -6  -6   3    2.67    0.23
  -6  -6   3    2.71    0.21
   5   6  -3    0.10    0.11
   5   6  -3    0.09    0.08
   5   6  -3    0.17    0.09
   5   6  -3    0.05    0.08
  -5  -6   3    0.10    0.09
  -5  -6   3   -0.07    0.10
  -5  -6   3    0.07    0.07
   4   6  -3    6.89    0.28
   4   6  -3    7.14    0.28
   4   6  -3    7.12    0.28
   4   6  -3    7.48    0.28
  -4  -6   3    7.18    0.28
  -4  -6   3    6.95    0.28
   3   6  -3   11.18    0.35
   3   6  -3   10.97    0.37
   3   6  -3   10.59    0.35
   3   6  -3   10.81    0.35
  -3  -6   3   10.83    0.35
  -3  -6   3   10.82    0.35
   2   6  -3   -0.01    0.05
   2   6  -3   -0.01    0.04
   2   6  -3    0.08    0.05
   2   6  -3    0.02    0.04
  -2  -6   3    0.01    0.06
  -2  -6   3   -0.01    0.05
   1   6  -3    5.82    0.21
   1   6  -3    6.02    0.22
   1   6  -3    5.90    0.21
   1   6  -3    6.06    0.22
  -1  -6   3    5.99    0.21
  -1  -6   3    6.01    0.21
   0   6  -3   26.96    0.71
   0   6  -3   28.58    0.72
   0  -6   3   26.84    0.71
   0  -6   3   27.13    0.72
  -1   6  -3    0.72    0.08
  -1   6  -3    0.72    0.09
   1  -6   3    0.73    0.08
   1  -6   3    0.61    0.21
   1  -6   3    0.65    0.09
   1  -6   3    0.71    0.08
  -2   6  -3    0.53    0.08
  -2   6  -3    0.55    0.09
  -2   6  -3    0.53    0.07
   2  -6   3    0.54    0.08
   2  -6   3    0.47    0.08
   2  -6   3    0.59    0.08
   2  -6   3    0.67    0.11
  -3   6  -3    8.43    0.27
  -3   6  -3    8.49    0.27
  -3   6  -3    8.72    0.30
   3  -6   3    8.24    0.29
   3  -6   3    8.29    0.27
   3  -6   3    8.50    0.27
  -4   6  -3    0.55    0.08
  -4   6  -3    0.61    0.13
  -4   6  -3    0.37    0.06
   4  -6   3    0.63    0.09
   4  -6   3    0.43    0.08
   4  -6   3    0.36    0.07
   4  -6   3    0.43    0.07
  -5   6  -3    0.10    0.06
  -5   6  -3    0.04    0.09
  -5   6  -3   -0.07    0.08
   5  -6   3    0.04    0.05
   5  -6   3    0.01    0.07
   5  -6   3    0.04    0.06
   5  -6   3    0.11    0.07
   5  -6   3    0.12    0.06
   5  -6   3    0.12    0.06
  -6   6  -3    6.66    0.28
  -6   6  -3    6.90    0.25
  -6   6  -3    6.56    0.33
   6  -6   3    6.98    0.29
   6  -6   3    6.28    0.26
   6  -6   3    6.73    0.27
   6  -6   3    6.90    0.28
   6  -6   3    6.50    0.25
   6  -6   3    6.52    0.26
  -7   6  -3    1.43    0.15
  -7   6  -3    1.25    0.23
   7  -6   3    1.20    0.16
   7  -6   3    1.00    0.16
   7  -6   3    1.44    0.22
   7  -6   3    1.33    0.13
   7  -6   3    1.03    0.18
  -8   6  -3    0.63    0.10
  -8   6  -3    0.82    0.19
   8  -6   3    0.57    0.17
   8  -6   3    1.05    0.19
   8  -6   3    0.67    0.10
   8  -6   3    0.68    0.11
   7   5  -3    1.08    0.21
   7   5  -3    0.56    0.18
   7   5  -3    0.86    0.19
  -7  -5   3    0.68    0.12
  -7  -5   3    0.72    0.16
   6   5  -3    0.11    0.08
   6   5  -3   -0.05    0.12
   6   5  -3    0.13    0.09
  -6  -5   3   -0.01    0.07
  -6  -5   3    0.05    0.10
  -6  -5   3    0.03    0.12
   5   5  -3    0.24    0.08
   5   5  -3    0.35    0.10
   5   5  -3    0.24    0.08
  -5  -5   3    0.29    0.08
  -5  -5   3    0.25    0.08
  -5  -5   3    0.18    0.10
   4   5  -3    3.56    0.19
   4   5  -3    3.69    0.18
   4   5  -3    3.79    0.19
  -4  -5   3    3.42    0.17
  -4  -5   3    3.94    0.19
  -4  -5   3    3.59    0.19
   3   5  -3    1.63    0.11
   3   5  -3    1.58    0.12
   3   5  -3    1.45    0.11
   3   5  -3    1.30    0.11
  -3  -5   3    1.27    0.12
  -3  -5   3    1.27    0.11
  -3  -5   3    1.39    0.11
   2   5  -3   10.29    0.32
   2   5  -3   10.99    0.32
   2   5  -3   10.84    0.32
   2   5  -3   10.76    0.34
  -2  -5   3   10.44    0.32
  -2  -5   3   10.39    0.32
   1   5  -3   19.66    0.54
   1   5  -3   20.73    0.54
   1   5  -3   20.57    0.54
  -1  -5   3   19.81    0.54
  -1  -5   3   19.63    0.54
   0   5  -3   15.78    0.44
   0   5  -3   17.15    0.44
   0   5  -3   17.02    0.44
   0  -5   3   15.58    0.86
   0  -5   3   16.22    0.44
   0  -5   3   15.99    0.44
  -1   5  -3   20.96    0.54
  -1   5  -3   19.55    0.53
   1  -5   3   20.33    0.54
   1  -5   3   20.16    0.53
   1  -5   3   20.80    1.01
   1  -5   3   19.69    0.56
  -2   5  -3   32.79    0.91
  -2   5  -3   32.39    0.80
  -2   5  -3   30.74    0.80
   2  -5   3   30.83    0.84
   2  -5   3   29.98    0.80
   2  -5   3   31.45    0.80
  -3   5  -3    0.06    0.05
  -3   5  -3    0.01    0.04
  -3   5  -3   -0.02    0.04
   3  -5   3    0.01    0.04
   3  -5   3    0.00    0.04
   3  -5   3    0.04    0.04
  -4   5  -3    8.24    0.31
  -4   5  -3    8.38    0.27
  -4   5  -3    8.92    0.28
   4  -5   3    8.15    0.29
   4  -5   3    8.28    0.27
   4  -5   3    8.36    0.27
   4  -5   3    8.40    0.29
   4  -5   3    8.55    0.27
  -5   5  -3    4.16    0.20
  -5   5  -3    4.10    0.18
  -5   5  -3    4.23    0.23
   5  -5   3    4.54    0.18
   5  -5   3    4.21    0.20
   5  -5   3    4.09    0.19
   5  -5   3    4.27    0.18
   5  -5   3    4.25    0.19
  -6   5  -3    0.10    0.11
  -6   5  -3    0.08    0.06
  -6   5  -3    0.01    0.08
   6  -5   3    0.12    0.06
   6  -5   3    0.09    0.07
   6  -5   3    0.00    0.06
   6  -5   3    0.09    0.07
   6  -5   3    0.12    0.08
  -7   5  -3    0.21    0.15
  -7   5  -3    0.02    0.07
  -7   5  -3    0.19    0.11
   7  -5   3    0.06    0.08
   7  -5   3    0.12    0.07
   7  -5   3    0.19    0.12
   7  -5   3    0.03    0.09
   7  -5   3    0.25    0.07
  -8   5  -3    1.75    0.29
  -8   5  -3    1.30    0.17
   8  -5   3    1.56    0.19
   8  -5   3    1.46    0.16
   8  -5   3    1.80    0.17
   8  -5   3    1.50    0.20
   8  -5   3    1.63    0.28
   8   4  -3    1.16    0.23
   7   4  -3    0.07    0.14
   7   4  -3    0.04    0.09
   7   4  -3    0.16    0.10
  -7  -4   3    0.06    0.11
  -7  -4   3    0.00    0.08
  -7  -4   3    0.18    0.16
   6   4  -3    1.67    0.18
   6   4  -3    1.91    0.20
   6   4  -3    2.21    0.17
  -6  -4   3    2.10    0.19
  -6  -4   3    2.25    0.16
  -6  -4   3    2.15    0.22
   5   4  -3    3.29    0.17
   5   4  -3    3.28    0.20
   5   4  -3    3.26    0.19
  -5  -4   3    3.42    0.20
  -5  -4   3    3.10    0.19
  -5  -4   3    2.97    0.17
   4   4  -3   10.39    0.36
   4   4  -3    9.94    0.32
   4   4  -3    9.73    0.32
  -4  -4   3    9.61    0.32
  -4  -4   3   10.26    0.32
   3   4  -3    2.11    0.12
   3   4  -3    2.08    0.12
   3   4  -3    2.17    0.12
  -3  -4   3    2.21    0.12
  -3  -4   3    2.02    0.12
  -3  -4   3    1.82    0.11
   2   4  -3    8.19    0.28
   2   4  -3    8.31    0.26
  -2  -4   3    9.16    0.26
  -2  -4   3    8.12    0.26
  -2  -4   3    8.15    0.26
   1   4  -3    2.63    0.12
   1   4  -3    2.69    0.11
   1   4  -3    1.84    0.43
  -1  -4   3    2.60    0.12
  -1  -4   3    2.66    0.12
   0   4  -3  101.43    2.37
   0   4  -3   96.48    2.35
   0   4  -3   97.04    2.45
   0   4  -3  101.11    2.36
   0  -4   3   88.99    4.58
   0  -4   3   98.81    2.36
   0  -4   3   97.74    2.37
  -1   4  -3   25.05    0.65
  -1   4  -3   24.82    0.63
  -1   4  -3   24.86    0.62
  -1   4  -3   20.62    1.20
  -1   4  -3   24.22    0.62
   1  -4   3   24.25    0.63
   1  -4   3   23.99    0.65
   1  -4   3   26.03    1.18
   1  -4   3   24.01    0.62
  -2   4  -3   40.86    2.11
  -2   4  -3   45.40    1.11
  -2   4  -3   46.16    1.27
  -2   4  -3   45.18    1.11
   2  -4   3   44.98    1.15
   2  -4   3   44.45    1.10
   2  -4   3   44.69    1.11
  -3   4  -3   32.57    0.85
  -3   4  -3   34.19    0.85
  -3   4  -3   34.66    0.98
   3  -4   3   32.95    0.85
   3  -4   3   34.35    0.91
   3  -4   3   32.70    0.88
   3  -4   3   32.59    0.85
  -4   4  -3    0.02    0.05
  -4   4  -3    0.01    0.04
  -4   4  -3    0.01    0.05
   4  -4   3    0.02    0.04
   4  -4   3    0.06    0.04
   4  -4   3    0.01    0.04
   4  -4   3    0.00    0.05
   4  -4   3    0.06    0.04
  -5   4  -3   15.57    0.45
  -5   4  -3   15.05    0.44
  -5   4  -3   15.50    0.52
   5  -4   3   15.38    0.45
   5  -4   3   15.23    0.44
   5  -4   3   14.98    0.44
   5  -4   3   15.24    0.45
   5  -4   3   15.79    0.47
  -6   4  -3    0.92    0.15
  -6   4  -3    0.93    0.11
  -6   4  -3    0.99    0.26
  -6   4  -3    0.77    0.15
   6  -4   3    0.90    0.11
   6  -4   3    1.04    0.13
   6  -4   3    0.97    0.12
   6  -4   3    0.89    0.13
   6  -4   3    1.02    0.16
  -7   4  -3    0.16    0.07
  -7   4  -3    0.11    0.22
  -7   4  -3    0.02    0.10
   7  -4   3    0.00    0.06
   7  -4   3    0.08    0.07
   7  -4   3    0.16    0.11
   7  -4   3    0.25    0.09
   7  -4   3    0.19    0.07
  -8   4  -3    1.75    0.17
  -8   4  -3    1.88    0.29
  -8   4  -3    2.37    0.55
   8  -4   3    1.68    0.20
   8  -4   3    1.88    0.19
   8  -4   3    1.61    0.26
   8  -4   3    2.12    0.17
   8   3  -3    2.21    0.24
   8   3  -3    2.08    0.31
  -8  -3   3    2.24    0.24
  -8  -3   3    2.14    0.19
  -8  -3   3    1.91    0.35
   7   3  -3    4.16    0.25
   7   3  -3    4.60    0.23
   7   3  -3    4.10    0.28
  -7  -3   3    4.19    0.25
  -7  -3   3    4.27    0.29
  -7  -3   3    4.54    0.22
   6   3  -3    0.90    0.14
   6   3  -3    1.17    0.17
   6   3  -3    1.21    0.14
  -6  -3   3    1.17    0.17
  -6  -3   3    1.03    0.13
  -6  -3   3    1.21    0.15
   5   3  -3    3.45    0.18
   5   3  -3    3.30    0.19
   5   3  -3    3.32    0.16
  -5  -3   3    3.59    0.19
  -5  -3   3    3.51    0.18
  -5  -3   3    3.44    0.16
   4   3  -3   10.31    0.31
   4   3  -3    9.94    0.31
   4   3  -3   10.28    0.35
  -4  -3   3    9.78    0.32
  -4  -3   3    9.61    0.31
   3   3  -3    5.56    0.19
   3   3  -3    5.61    0.19
   3   3  -3    5.54    0.22
   2   3  -3   27.97    0.71
  -2  -3   3   26.69    0.71
  -2  -3   3   26.82    0.71
  -2  -3   3   29.46    0.71
   1   3  -3    5.90    0.19
   1   3  -3    6.07    0.19
   1   3  -3    6.23    0.19
  -1  -3   3    5.87    0.19
  -1  -3   3    6.30    0.19
  -1  -3   3    5.93    0.19
   0   3  -3   57.45    1.37
   0   3  -3   54.49    1.36
   0   3  -3   54.74    1.41
   0   3  -3   55.80    1.36
   0  -3   3   56.88    1.36
   0  -3   3   58.26    2.66
   0  -3   3   53.60    1.36
  -1   3  -3   68.40    1.69
  -1   3  -3   69.12    3.28
  -1   3  -3   68.69    1.75
  -1   3  -3   69.02    1.70
   1  -3   3   68.29    1.75
   1  -3   3   72.58    1.69
   1  -3   3   72.95    3.28
   1  -3   3   68.59    1.70
   1  -3   3   69.40    1.69
  -2   3  -3    9.30    0.26
  -2   3  -3    9.28    0.47
  -2   3  -3    9.53    0.27
  -2   3  -3    9.09    0.27
   2  -3   3    9.21    0.27
   2  -3   3    9.48    0.28
   2  -3   3    9.11    0.27
   2  -3   3    8.99    0.27
  -3   3  -3    0.78    0.08
  -3   3  -3    1.07    0.08
  -3   3  -3    0.97    0.09
   3  -3   3    0.92    0.08
   3  -3   3    1.03    0.08
   3  -3   3    0.87    0.08
   3  -3   3    0.90    0.08
   3  -3   3    1.02    0.08
  -4   3  -3   78.03    1.98
  -4   3  -3   79.48    1.91
  -4   3  -3   75.21    1.91
   4  -3   3   78.48    1.92
   4  -3   3   78.55    1.91
   4  -3   3   76.94    1.92
   4  -3   3   79.19    1.98
   4  -3   3   77.19    2.03
  -5   3  -3    7.58    0.27
  -5   3  -3    7.94    0.26
   5  -3   3    8.15    0.27
   5  -3   3    7.99    0.26
   5  -3   3    7.71    0.26
   5  -3   3    8.22    0.28
   5  -3   3    7.90    0.27
  -6   3  -3   -0.01    0.05
  -6   3  -3   -0.13    0.07
   6  -3   3    0.16    0.07
   6  -3   3    0.09    0.09
   6  -3   3    0.07    0.06
   6  -3   3    0.05    0.06
   6  -3   3    0.05    0.05
  -7   3  -3    9.68    0.34
  -7   3  -3   10.77    0.71
  -7   3  -3    9.98    0.38
   7  -3   3    9.53    0.35
   7  -3   3   10.16    0.36
   7  -3   3   10.14    0.35
   7  -3   3    9.76    0.37
  -8   3  -3    0.08    0.15
  -8   3  -3    0.09    0.07
  -8   3  -3    0.02    0.36
   8  -3   3    0.09    0.09
   8  -3   3    0.16    0.09
   8  -3   3    0.14    0.10
   8  -3   3    0.09    0.15
   8   2  -3    1.39    0.26
   8   2  -3    2.28    0.21
  -8  -2   3    1.76    0.17
  -8  -2   3    1.86    0.30
   7   2  -3   -0.03    0.10
   7   2  -3   -0.04    0.08
   7   2  -3    0.02    0.08
  -7  -2   3    0.00    0.07
  -7  -2   3   -0.01    0.11
  -7  -2   3   -0.23    0.25
   6   2  -3    4.13    0.21
   6   2  -3    4.17    0.19
   6   2  -3    4.07    0.24
  -6  -2   3    4.14    0.22
  -6  -2   3    3.89    0.18
  -6  -2   3    3.92    0.20
   5   2  -3    7.14    0.30
   5   2  -3    7.43    0.25
   5   2  -3    7.40    0.26
  -5  -2   3    7.62    0.26
  -5  -2   3    7.48    0.26
  -5  -2   3    7.44    0.25
   4   2  -3    4.73    0.21
   4   2  -3    4.77    0.18
   4   2  -3    4.96    0.18
  -4  -2   3    4.99    0.18
  -4  -2   3    4.63    0.17
  -4  -2   3    4.91    0.19
   3   2  -3    8.56    0.30
   3   2  -3    8.66    0.26
   3   2  -3    8.40    0.25
  -3  -2   3    8.29    0.25
  -3  -2   3    8.71    0.26
  -3  -2   3    8.96    0.26
   2   2  -3    6.20    0.18
   2   2  -3    6.02    0.18
  -2  -2   3    5.91    0.18
  -2  -2   3    5.78    0.18
  -2  -2   3    5.72    0.18
   1   2  -3    4.04    0.13
   1   2  -3    3.88    0.13
   1   2  -3    3.15    0.28
  -1  -2   3    3.99    0.27
  -1  -2   3    3.73    0.13
  -1  -2   3    4.20    0.13
  -1  -2   3    3.92    0.13
   0   2  -3  129.35    3.04
   0   2  -3  126.84    3.04
   0   2  -3  118.36    5.93
   0   2  -3  127.55    3.06
   0   2  -3  130.43    3.15
   0  -2   3  131.20    5.93
   0  -2   3  121.77    3.04
   0  -2   3  124.84    3.04
   0  -2   3  130.65    3.26
   0  -2   3  127.43    3.06
  -1   2  -3    0.35    0.04
  -1   2  -3    0.37    0.05
  -1   2  -3    0.39    0.05
  -1   2  -3    0.39    0.10
  -1   2  -3    0.34    0.04
   1  -2   3    0.31    0.05
   1  -2   3    0.36    0.05
   1  -2   3    0.35    0.05
   1  -2   3    0.40    0.05
   1  -2   3    0.31    0.05
  -2   2  -3   27.50    0.77
  -2   2  -3   29.80    0.74
  -2   2  -3   28.92    0.72
  -2   2  -3   28.56    0.72
  -2   2  -3   28.14    0.72
   2  -2   3   28.87    0.72
   2  -2   3   29.07    0.73
   2  -2   3   28.56    0.74
   2  -2   3   27.76    0.73
   2  -2   3   29.13    0.77
  -3   2  -3   79.00    1.89
  -3   2  -3   77.82    1.95
  -3   2  -3   75.77    1.88
  -3   2  -3   77.34    1.90
  -3   2  -3   76.88    2.01
   3  -2   3   78.95    2.01
   3  -2   3   77.35    1.90
   3  -2   3   76.77    1.95
   3  -2   3   76.25    1.88
   3  -2   3   76.95    1.90
  -4   2  -3    2.29    0.12
  -4   2  -3    2.25    0.11
  -4   2  -3    2.52    0.13
   4  -2   3    2.33    0.13
   4  -2   3    2.42    0.12
   4  -2   3    2.24    0.11
   4  -2   3    2.33    0.12
   4  -2   3    2.27    0.12
  -5   2  -3    2.02    0.14
  -5   2  -3    1.96    0.11
  -5   2  -3    1.80    0.12
  -5   2  -3    2.01    0.13
   5  -2   3    2.15    0.12
   5  -2   3    2.19    0.13
   5  -2   3    2.27    0.12
   5  -2   3    2.12    0.13
   5  -2   3    2.13    0.15
  -6   2  -3    6.82    0.27
  -6   2  -3    6.65    0.24
  -6   2  -3    6.62    0.25
  -6   2  -3    6.67    0.26
   6  -2   3    6.78    0.26
   6  -2   3    6.83    0.23
   6  -2   3    6.95    0.28
   6  -2   3    6.63    0.26
   6  -2   3    6.53    0.25
  -7   2  -3    1.98    0.18
  -7   2  -3    1.78    0.21
  -7   2  -3    1.82    0.16
  -7   2  -3    1.71    0.49
   7  -2   3    1.92    0.16
   7  -2   3    1.71    0.17
   7  -2   3    2.21    0.22
   7  -2   3    1.98    0.16
  -8   2  -3    0.11    0.36
  -8   2  -3    0.35    0.16
  -8   2  -3    0.28    0.09
  -8   2  -3    0.28    0.12
   8  -2   3    0.33    0.09
   8  -2   3    0.31    0.16
   8  -2   3    0.22    0.11
   8  -2   3    0.21    0.09
   8   1  -3    3.43    0.28
   8   1  -3    3.27    0.22
  -8  -1   3    3.43    0.29
  -8  -1   3    3.63    0.21
  -8  -1   3    3.48    0.26
   7   1  -3    4.77    0.22
   7   1  -3    4.64    0.24
   7   1  -3    4.33    0.25
  -7  -1   3    4.35    0.57
  -7  -1   3    4.23    0.24
  -7  -1   3    4.50    0.24
  -7  -1   3    4.11    0.20
   6   1  -3    0.09    0.07
   6   1  -3    0.04    0.06
   6   1  -3    0.09    0.08
  -6  -1   3    0.01    0.05
  -6  -1   3    0.09    0.08
  -6  -1   3    0.20    0.27
  -6  -1   3    0.02    0.08
   5   1  -3    9.68    0.31
   5   1  -3   10.09    0.37
   5   1  -3    9.57    0.30
  -5  -1   3    9.55    0.30
  -5  -1   3    9.96    0.31
  -5  -1   3   10.38    0.64
  -5  -1   3   10.05    0.31
   4   1  -3    6.70    0.22
   4   1  -3    6.95    0.26
   4   1  -3    6.94    0.22
  -4  -1   3    7.05    0.20
  -4  -1   3    6.76    0.22
  -4  -1   3    6.67    0.22
  -4  -1   3    6.95    0.22
   3   1  -3    3.39    0.13
   3   1  -3    3.97    0.44
   3   1  -3    3.30    0.12
   3   1  -3    3.24    0.16
  -3  -1   3    3.01    0.12
  -3  -1   3    3.34    0.13
  -3  -1   3    3.43    0.14
   2   1  -3   11.39    0.30
   2   1  -3   11.26    0.30
   2   1  -3   10.84    0.62
   2   1  -3   11.14    0.30
  -2  -1   3   11.51    0.30
  -2  -1   3   10.75    0.30
  -2  -1   3   11.34    0.61
  -2  -1   3   11.48    0.32
   1   1  -3   46.44    1.14
   1   1  -3   45.80    1.13
   1   1  -3   49.80    2.23
   1   1  -3   47.02    1.21
   1   1  -3   45.67    1.13
  -1  -1   3   46.92    2.22
  -1  -1   3   43.16    1.13
  -1  -1   3   46.63    1.13
  -1  -1   3   46.39    1.21
   0   1  -3    0.25    0.04
   0   1  -3    0.31    0.10
   0   1  -3    0.30    0.04
   0   1  -3    0.28    0.04
   0  -1   3    0.28    0.04
   0  -1   3    0.25    0.04
   0  -1   3    0.32    0.05
  -1   1  -3    1.76    0.07
  -1   1  -3    1.78    0.08
  -1   1  -3    1.73    0.08
  -1   1  -3    1.84    0.08
   1  -1   3    1.81    0.08
   1  -1   3    1.87    0.08
   1  -1   3    1.86    0.07
   1  -1   3    1.69    0.08
   1  -1   3    1.69    0.08
   1  -1   3    1.79    0.08
  -2   1  -3   51.90    1.41
  -2   1  -3   55.07    1.35
  -2   1  -3   53.11    1.31
  -2   1  -3   53.88    1.32
  -2   1  -3   54.30    1.31
   2  -1   3   52.90    1.32
   2  -1   3   53.28    1.32
   2  -1   3   55.40    1.31
   2  -1   3   54.48    1.41
   2  -1   3   52.80    1.32
  -3   1  -3    3.86    0.16
  -3   1  -3    3.84    0.14
  -3   1  -3    3.48    0.14
  -3   1  -3    3.61    0.14
  -3   1  -3    3.78    0.15
   3  -1   3    3.84    0.14
   3  -1   3    3.50    0.14
   3  -1   3    4.02    0.15
   3  -1   3    3.65    0.14
   3  -1   3    3.76    0.15
  -4   1  -3   47.08    1.19
  -4   1  -3   49.00    1.19
  -4   1  -3   45.94    1.18
  -4   1  -3   46.51    1.25
   4  -1   3   47.72    1.22
   4  -1   3   45.81    1.19
   4  -1   3   47.68    1.19
   4  -1   3   47.36    1.19
   4  -1   3   48.40    1.25
  -5   1  -3   20.58    0.56
  -5   1  -3   19.82    0.56
  -5   1  -3   19.84    0.57
  -5   1  -3   19.77    0.55
   5  -1   3   19.64    0.56
   5  -1   3   20.67    0.56
   5  -1   3   20.61    0.56
   5  -1   3   19.57    0.56
  -6   1  -3    0.41    0.07
  -6   1  -3    0.37    0.08
  -6   1  -3    0.63    0.10
  -6   1  -3    0.65    0.13
   6  -1   3    0.68    0.11
   6  -1   3    0.68    0.12
   6  -1   3    0.75    0.11
   6  -1   3    0.72    0.11
  -7   1  -3    8.95    0.36
  -7   1  -3    8.70    0.32
  -7   1  -3    9.08    0.31
  -7   1  -3    8.98    0.34
   7  -1   3    9.09    0.36
   7  -1   3    9.25    0.33
   7  -1   3    9.77    0.33
   7  -1   3    8.97    0.33
  -8   1  -3    4.48    0.27
  -8   1  -3    4.53    0.33
  -8   1  -3    4.91    0.21
  -8   1  -3    4.45    0.76
  -8   1  -3    5.12    0.25
   8  -1   3    5.02    0.25
   8  -1   3    4.72    0.26
   8  -1   3    4.55    0.33
   8  -1   3    4.71    0.25
   8   0  -3    3.13    0.25
   8   0  -3    3.30    0.21
  -8   0   3    3.25    0.26
  -8   0   3    2.25    0.63
  -8   0   3    3.46    0.19
   7   0  -3   -0.01    0.08
   7   0  -3   -0.03    0.06
   7   0  -3   -0.01    0.09
   7   0  -3    0.00    0.07
  -7   0   3   -0.18    0.23
  -7   0   3   -0.06    0.08
  -7   0   3   -0.03    0.05
   6   0  -3   11.71    0.35
   6   0  -3   11.42    0.34
   6   0  -3   11.42    0.43
   6   0  -3   11.63    0.36
  -6   0   3   11.64    0.36
  -6   0   3   11.14    0.34
  -6   0   3   11.51    0.75
   5   0  -3   26.45    0.85
   5   0  -3   27.57    0.70
   5   0  -3   26.94    0.71
   5   0  -3   30.36    1.46
  -5   0   3   25.66    0.70
  -5   0   3   27.83    0.71
  -5   0   3   26.75    1.40
  -5   0   3   27.35    0.71
   4   0  -3    0.00    0.03
   4   0  -3    0.10    0.05
   4   0  -3   -0.10    0.16
   4   0  -3   -0.03    0.04
   4   0  -3    0.02    0.03
  -4   0   3   -0.03    0.05
  -4   0   3    0.01    0.03
  -4   0   3   -0.01    0.03
  -4   0   3   -0.05    0.10
   3   0  -3   13.27    0.78
   3   0  -3   13.39    0.45
   3   0  -3   13.73    0.37
   3   0  -3   13.40    0.36
   3   0  -3   14.00    0.36
  -3   0   3   15.54    0.78
  -3   0   3   15.73    0.38
  -3   0   3   13.38    0.37
  -3   0   3   13.98    0.37
  -3   0   3   14.27    0.37
   2   0  -3    7.85    0.47
   2   0  -3    8.51    0.23
   2   0  -3    7.97    0.22
   2   0  -3    7.90    0.21
   2   0  -3    8.23    0.21
  -2   0   3    7.82    0.21
  -2   0   3    8.06    0.22
  -2   0   3    7.86    0.45
  -2   0   3    8.16    0.22
  -2   0   3    8.07    0.23
   1   0  -3    6.68    0.18
   1   0  -3    6.38    0.39
   1   0  -3    6.53    0.18
   1   0  -3    6.95    0.20
   1   0  -3    6.59    0.18
  -1   0   3    6.77    0.18
  -1   0   3    6.88    0.20
  -1   0   3    6.84    0.39
  -1   0   3    6.84    0.18
  -1   0   3    6.72    0.18
   0   0  -3    0.71    0.05
   0   0  -3    0.78    0.04
   0   0  -3    0.81    0.05
   0   0   3    0.76    0.05
   0   0   3    0.73    0.04
   0   0   3    0.81    0.06
   0   0   3    0.80    0.04
  -1   0  -3   13.40    0.35
  -1   0  -3   13.12    0.35
  -1   0  -3   12.50    0.35
  -1   0  -3   13.32    0.35
  -1   0  -3   13.20    0.38
  -1   0  -3   13.57    0.34
   1   0   3   13.64    0.35
   1   0   3   13.57    0.35
   1   0   3   13.47    0.34
   1   0   3   13.30    0.38
   1   0   3   13.01    0.35
   1   0   3   14.17    0.35
  -2   0  -3    8.74    0.25
  -2   0  -3    8.53    0.25
  -2   0  -3    8.54    0.24
  -2   0  -3    8.35    0.26
  -2   0  -3    8.48    0.24
   2   0   3    8.61    0.26
   2   0   3    8.49    0.24
   2   0   3    8.43    0.25
   2   0   3    8.58    0.23
   2   0   3    7.92    0.24
   2   0   3    8.49    0.24
  -3   0  -3   72.23    1.83
  -3   0  -3   74.25    1.82
  -3   0  -3   74.19    1.94
   3   0   3   73.19    1.82
   3   0   3   75.26    1.82
   3   0   3   72.47    1.83
   3   0   3   76.93    1.83
   3   0   3   75.41    1.86
   3   0   3   75.16    1.94
  -4   0  -3   78.05    2.06
  -4   0  -3   77.81    1.95
  -4   0  -3   76.84    1.94
  -4   0  -3   81.93    1.95
   4   0   3   79.61    1.96
   4   0   3   82.73    1.96
   4   0   3   77.38    1.94
   4   0   3   78.62    1.99
  -5   0  -3    0.46    0.07
  -5   0  -3    0.57    0.11
  -5   0  -3    0.56    0.10
  -5   0  -3    0.64    0.09
   5   0   3    0.46    0.09
   5   0   3    0.54    0.09
   5   0   3    0.35    0.07
   5   0   3    0.55    0.09
  -6   0  -3   31.14    0.85
  -6   0  -3   29.38    0.83
  -6   0  -3   30.42    0.82
   6   0   3   30.31    0.83
   6   0   3   30.41    0.83
   6   0   3   31.75    0.84
   6   0   3   31.05    0.84
  -7   0  -3    5.07    0.28
  -7   0  -3    5.24    0.23
  -7   0  -3    5.03    0.23
  -7   0  -3    4.90    0.25
   7   0   3    4.97    0.24
   7   0   3    5.36    0.29
   7   0   3    5.03    0.23
   7   0   3    5.50    0.25
  -8   0  -3    0.42    0.09
  -8   0  -3    0.33    0.12
  -8   0  -3    0.06    0.42
  -8   0  -3    0.43    0.10
   8   0   3    0.41    0.12
   8   0   3    0.48    0.11
   8   0   3    0.36    0.10
   8   0   3    0.44    0.19
   8  -1  -3    0.29    0.12
   8  -1  -3    0.26    0.09
  -8   1   3    0.06    0.27
  -8   1   3    0.43    0.08
  -8   1   3    0.11    0.10
  -8   1   3    0.28    0.13
   7  -1  -3    3.42    0.18
   7  -1  -3    3.39    0.22
   7  -1  -3    3.56    0.17
   7  -1  -3    3.31    0.19
  -7   1   3    3.12    0.16
  -7   1   3    3.26    0.19
  -7   1   3    3.38    0.44
  -7   1   3    3.32    0.18
   6  -1  -3   12.63    0.38
   6  -1  -3   12.81    0.37
   6  -1  -3   12.98    0.46
   6  -1  -3   13.17    0.37
  -6   1   3   12.71    0.37
  -6   1   3   12.75    0.37
  -6   1   3   11.39    0.36
  -6   1   3   13.03    0.78
   5  -1  -3    4.83    0.23
   5  -1  -3    5.43    0.45
   5  -1  -3    4.94    0.17
   5  -1  -3    4.88    0.18
   5  -1  -3    5.08    0.17
  -5   1   3    4.91    0.38
  -5   1   3    4.83    0.17
  -5   1   3    4.74    0.17
  -5   1   3    4.84    0.17
   4  -1  -3  118.33    2.86
   4  -1  -3  117.95    2.88
   4  -1  -3  118.15    2.86
   4  -1  -3  130.21    5.65
   4  -1  -3  115.64    3.35
  -4   1   3  120.05    5.62
  -4   1   3  117.02    2.86
  -4   1   3  119.11    2.87
  -4   1   3  115.13    2.86
   3  -1  -3    9.85    0.27
   3  -1  -3    9.33    0.26
   3  -1  -3    9.91    0.26
   3  -1  -3    9.59    0.25
   3  -1  -3    9.46    0.33
   3  -1  -3   10.67    0.61
  -3   1   3    9.80    0.54
  -3   1   3    9.95    0.26
  -3   1   3    9.19    0.26
  -3   1   3    9.88    0.26
   2  -1  -3    9.77    0.57
   2  -1  -3   10.67    0.27
   2  -1  -3   10.41    0.26
   2  -1  -3   10.52    0.26
   2  -1  -3   10.69    0.30
  -2   1   3   10.55    0.26
  -2   1   3   10.51    0.57
   1  -1  -3  194.47    4.82
   1  -1  -3  191.36    9.40
   1  -1  -3  203.21    4.78
   1  -1  -3  198.21    4.79
  -1   1   3  224.92    5.14
  -1   1   3  192.80    4.78
   0  -1  -3   21.89    0.61
   0  -1  -3   22.94    0.55
   0  -1  -3   22.76    0.56
   0  -1  -3   22.35    0.55
   0  -1  -3   23.00    0.56
   0   1   3   22.60    0.56
   0   1   3   22.65    0.55
   0   1   3   22.42    0.55
   0   1   3   21.75    0.61
  -1  -1  -3    2.31    0.09
  -1  -1  -3    2.36    0.09
  -1  -1  -3    2.37    0.11
  -1  -1  -3    2.64    0.10
  -1  -1  -3    2.50    0.09
   1   1   3    2.21    0.09
   1   1   3    2.48    0.10
   1   1   3    2.24    0.09
  -2  -1  -3   12.29    0.37
  -2  -1  -3   12.69    0.39
  -2  -1  -3   12.93    0.34
  -2  -1  -3   12.29    0.34
   2   1   3   12.65    0.33
   2   1   3   11.92    0.34
   2   1   3   12.92    0.34
   2   1   3   12.53    0.34
   2   1   3   12.45    0.34
  -3  -1  -3   11.75    0.34
  -3  -1  -3   11.82    0.39
  -3  -1  -3   11.76    0.36
   3   1   3   11.46    0.34
   3   1   3   11.94    0.34
   3   1   3   12.47    0.34
  -4  -1  -3    0.20    0.06
  -4  -1  -3    0.23    0.05
  -4  -1  -3    0.22    0.06
  -4  -1  -3    0.26    0.06
   4   1   3    0.29    0.06
   4   1   3    0.29    0.06
   4   1   3    0.27    0.06
   4   1   3    0.32    0.07
   4   1   3    0.34    0.07
  -5  -1  -3    4.29    0.18
  -5  -1  -3    4.21    0.19
  -5  -1  -3    4.14    0.19
  -5  -1  -3    3.99    0.21
   5   1   3    3.96    0.18
   5   1   3    4.15    0.18
   5   1   3    4.11    0.18
   5   1   3    4.09    0.17
   5   1   3    4.28    0.20
  -6  -1  -3   12.30    0.40
  -6  -1  -3   12.52    0.40
  -6  -1  -3   12.01    0.40
  -6  -1  -3   11.64    0.45
  -6  -1  -3   12.39    0.39
   6   1   3   12.61    0.41
   6   1   3   12.26    0.40
   6   1   3   11.82    0.39
   6   1   3   12.38    0.40
   6   1   3   12.73    0.38
  -7  -1  -3    1.16    0.19
  -7  -1  -3    1.36    0.15
  -7  -1  -3    1.42    0.17
  -7  -1  -3    1.23    0.21
   7   1   3    1.38    0.15
   7   1   3    1.50    0.18
   7   1   3    1.45    0.24
   7   1   3    1.34    0.18
  -8  -1  -3    9.47    0.35
  -8  -1  -3    9.52    0.39
  -8  -1  -3    9.30    0.37
   8   1   3    9.64    0.38
   8   1   3    9.43    0.36
   8   1   3    8.91    0.43
   8   1   3   10.20    0.39
   8  -2  -3    2.09    0.22
   8  -2  -3    2.01    0.20
   8  -2  -3    1.69    0.14
  -8   2   3    1.81    0.52
  -8   2   3    1.76    0.18
  -8   2   3    1.84    0.15
  -8   2   3    1.97    0.21
   7  -2  -3    0.17    0.08
   7  -2  -3    0.16    0.08
   7  -2  -3    0.24    0.07
   7  -2  -3    0.18    0.08
  -7   2   3    0.17    0.06
  -7   2   3    0.29    0.07
  -7   2   3    0.19    0.08
  -7   2   3    0.20    0.21
   6  -2  -3    9.59    0.30
   6  -2  -3    9.73    0.29
   6  -2  -3    9.68    0.29
   6  -2  -3   10.25    0.39
  -6   2   3   10.14    0.63
  -6   2   3    9.39    0.29
  -6   2   3   10.21    0.30
  -6   2   3    9.80    0.30
   5  -2  -3   29.90    0.73
   5  -2  -3   29.42    0.74
   5  -2  -3   29.05    0.90
   5  -2  -3   29.88    0.73
   5  -2  -3   31.41    1.51
  -5   2   3   24.90    1.45
  -5   2   3   28.55    0.73
  -5   2   3   28.97    0.74
  -5   2   3   30.08    0.74
   4  -2  -3    5.78    0.16
   4  -2  -3    6.04    0.24
   4  -2  -3    5.75    0.18
   4  -2  -3    6.16    0.41
   4  -2  -3    5.83    0.17
   4  -2  -3    5.74    0.16
  -4   2   3    5.81    0.17
  -4   2   3    5.24    0.16
  -4   2   3    6.03    0.38
  -4   2   3    5.66    0.17
   3  -2  -3   29.72    0.73
   3  -2  -3   29.28    0.88
   3  -2  -3   29.93    0.79
   3  -2  -3   30.71    1.47
  -3   2   3   29.39    0.72
  -3   2   3   29.45    0.72
   2  -2  -3  305.52   14.23
   1  -2  -3    0.13    0.02
   1  -2  -3    0.08    0.03
   1  -2  -3    0.10    0.02
  -1   2   3    0.10    0.02
  -1   2   3    0.13    0.02
   0  -2  -3   34.99    0.86
   0  -2  -3   33.50    0.95
   0  -2  -3   35.53    0.86
   0  -2  -3   34.82    0.87
   0   2   3   36.82    0.86
   0   2   3   36.60    0.86
   0   2   3   35.56    0.86
   0   2   3   35.80    0.86
  -1  -2  -3    0.07    0.03
  -1  -2  -3    0.14    0.04
  -1  -2  -3    0.16    0.04
  -1  -2  -3    0.10    0.03
   1   2   3    0.11    0.03
   1   2   3    0.12    0.03
   1   2   3    0.08    0.03
  -2  -2  -3    1.78    0.13
  -2  -2  -3    2.06    0.10
  -2  -2  -3    2.51    0.13
  -2  -2  -3    2.01    0.12
   2   2   3    2.27    0.10
   2   2   3    2.05    0.10
   2   2   3    2.27    0.11
  -3  -2  -3    1.46    0.11
  -3  -2  -3    1.45    0.10
  -3  -2  -3    1.36    0.10
  -3  -2  -3    1.31    0.10
   3   2   3    1.33    0.10
   3   2   3    1.43    0.10
   3   2   3    1.30    0.10
   3   2   3    1.29    0.09
  -4  -2  -3    3.35    0.16
  -4  -2  -3    3.54    0.17
  -4  -2  -3    3.43    0.16
  -4  -2  -3    3.57    0.19
   4   2   3    3.23    0.16
   4   2   3    3.32    0.15
   4   2   3    3.51    0.17
   4   2   3    3.70    0.17
  -5  -2  -3    0.21    0.07
  -5  -2  -3    0.35    0.08
  -5  -2  -3    0.13    0.09
  -5  -2  -3    0.18    0.06
   5   2   3    0.35    0.09
   5   2   3    0.30    0.08
   5   2   3    0.32    0.07
   5   2   3    0.21    0.07
  -6  -2  -3    1.42    0.15
  -6  -2  -3    1.44    0.17
  -6  -2  -3    1.50    0.20
  -6  -2  -3    1.37    0.14
  -6  -2  -3    1.56    0.18
   6   2   3    1.63    0.20
   6   2   3    1.49    0.15
   6   2   3    1.19    0.17
   6   2   3    1.46    0.13
   6   2   3    1.34    0.15
  -7  -2  -3    3.23    0.20
  -7  -2  -3    3.65    0.22
   7   2   3    3.26    0.20
   7   2   3    3.43    0.27
   7   2   3    3.82    0.22
   7   2   3    3.53    0.23
  -8  -2  -3    1.26    0.23
  -8  -2  -3    0.99    0.15
  -8  -2  -3    1.36    0.18
   8   2   3    0.93    0.20
   8   2   3    1.25    0.19
   8   2   3    1.09    0.15
   8   2   3    1.43    0.22
   8  -3  -3    1.23    0.19
   8  -3  -3    1.82    0.21
   8  -3  -3    1.56    0.13
   8  -3  -3    1.28    0.15
   8  -3  -3    1.53    0.19
  -8   3   3    1.23    0.14
  -8   3   3    1.39    0.19
  -8   3   3    1.33    0.49
   7  -3  -3    7.01    0.24
   7  -3  -3    7.45    0.33
   7  -3  -3    7.53    0.30
   7  -3  -3    7.24    0.26
   7  -3  -3    7.21    0.25
   7  -3  -3    7.10    0.24
  -7   3   3    7.17    0.25
  -7   3   3    6.95    0.55
  -7   3   3    6.83    0.25
   6  -3  -3    6.36    0.22
   6  -3  -3    6.33    0.29
   6  -3  -3    6.13    0.20
   6  -3  -3    5.46    0.51
   6  -3  -3    6.32    0.20
   6  -3  -3    6.53    0.21
  -6   3   3    6.43    0.46
  -6   3   3    6.21    0.21
  -6   3   3    6.61    0.21
   5  -3  -3    2.76    0.10
   5  -3  -3    2.90    0.17
   5  -3  -3    2.82    0.11
   5  -3  -3    3.04    0.12
   5  -3  -3    3.17    0.35
  -5   3   3    2.76    0.11
   4  -3  -3   30.83    1.42
   4  -3  -3   27.87    0.70
   4  -3  -3   27.11    0.85
   4  -3  -3   27.23    0.70
  -4   3   3   27.16    0.69
  -4   3   3   28.14    0.69
   3  -3  -3    3.49    0.14
   3  -3  -3    3.39    0.10
   3  -3  -3    3.43    0.15
   3  -3  -3    3.61    0.27
   3  -3  -3    3.54    0.13
   2  -3  -3    0.16    0.04
   2  -3  -3    0.15    0.04
   2  -3  -3    0.18    0.09
   1  -3  -3   18.59    0.47
  -1   3   3   17.29    0.44
  -1   3   3   18.08    0.44
   0  -3  -3  135.98    3.31
   0  -3  -3  134.38    3.39
   0  -3  -3  141.56    3.28
   0  -3  -3  137.49    3.28
   0   3   3  134.60    3.29
   0   3   3  140.19    3.30
   0   3   3  137.91    3.30
   0   3   3  138.04    3.29
  -1  -3  -3    1.62    0.08
  -1  -3  -3    1.50    0.08
  -1  -3  -3    1.44    0.09
   1   3   3    1.57    0.09
   1   3   3    1.43    0.08
   1   3   3    1.43    0.08
  -2  -3  -3   25.48    0.73
  -2  -3  -3   24.46    0.64
  -2  -3  -3   24.25    0.65
   2   3   3   24.28    0.64
   2   3   3   25.66    0.65
  -3  -3  -3    8.10    0.26
  -3  -3  -3    8.00    0.29
  -3  -3  -3    7.73    0.26
  -3  -3  -3    7.94    0.28
   3   3   3    8.09    0.26
   3   3   3    7.95    0.26
  -4  -3  -3    0.00    0.05
  -4  -3  -3   -0.02    0.05
  -4  -3  -3    0.00    0.07
  -4  -3  -3   -0.04    0.07
   4   3   3    0.00    0.04
   4   3   3    0.05    0.07
   4   3   3   -0.05    0.06
  -5  -3  -3    0.14    0.06
  -5  -3  -3    0.19    0.09
  -5  -3  -3    0.26    0.07
  -5  -3  -3    0.17    0.10
   5   3   3    0.17    0.09
   5   3   3    0.22    0.07
   5   3   3    0.11    0.07
   5   3   3    0.22    0.08
  -6  -3  -3    5.92    0.26
  -6  -3  -3    6.02    0.25
  -6  -3  -3    5.41    0.31
  -6  -3  -3    5.65    0.28
   6   3   3    5.66    0.29
   6   3   3    5.93    0.26
   6   3   3    5.24    0.28
   6   3   3    5.52    0.27
  -7  -3  -3    0.17    0.11
  -7  -3  -3    0.08    0.09
  -7  -3  -3    0.15    0.13
   7   3   3    0.21    0.10
   7   3   3    0.26    0.09
   7   3   3    0.20    0.17
   7   3   3    0.31    0.11
   8  -4  -3    0.21    0.12
   8  -4  -3    0.02    0.08
   8  -4  -3    0.09    0.10
   8  -4  -3    0.02    0.07
  -8   4   3    0.02    0.10
  -8   4   3    0.13    0.07
   7  -4  -3   12.26    0.37
   7  -4  -3   12.76    0.49
   7  -4  -3   12.84    0.44
   7  -4  -3   12.53    0.38
   7  -4  -3   12.29    0.35
   7  -4  -3   12.78    0.35
  -7   4   3   12.70    0.37
  -7   4   3   12.75    0.37
   6  -4  -3    2.95    0.19
   6  -4  -3    2.13    0.37
   6  -4  -3    3.00    0.14
   6  -4  -3    2.84    0.12
   6  -4  -3    2.71    0.18
   6  -4  -3    2.80    0.11
   6  -4  -3    2.84    0.11
  -6   4   3    2.81    0.13
   5  -4  -3   16.81    0.54
   5  -4  -3   16.62    0.43
   5  -4  -3   16.29    0.43
   5  -4  -3   13.67    0.89
   5  -4  -3   16.69    0.49
  -5   4   3   17.02    0.42
  -5   4   3   16.60    0.42
   4  -4  -3    1.76    0.12
   4  -4  -3    1.86    0.13
   4  -4  -3    1.82    0.07
   4  -4  -3    1.87    0.10
   4  -4  -3    1.95    0.26
  -4   4   3    1.78    0.07
  -4   4   3    1.95    0.07
   3  -4  -3    7.12    0.24
   3  -4  -3    7.09    0.42
   3  -4  -3    7.12    0.25
   2  -4  -3   77.06    2.17
   2  -4  -3   77.26    1.94
   1  -4  -3   25.61    0.61
   1  -4  -3   25.35    0.63
   1  -4  -3   24.75    0.66
  -1   4   3   25.43    0.62
   0  -4  -3   20.16    0.51
   0  -4  -3   20.47    0.51
   0  -4  -3   19.73    0.52
   0  -4  -3   20.18    0.52
   0   4   3   20.21    0.51
   0   4   3   20.31    0.51
   0   4   3   20.30    0.51
  -1  -4  -3    5.26    0.17
  -1  -4  -3    4.90    0.17
  -1  -4  -3    5.22    0.17
  -1  -4  -3    5.32    0.18
   1   4   3    5.18    0.17
   1   4   3    4.87    0.17
  -2  -4  -3   65.71    1.62
  -2  -4  -3   65.94    1.84
  -2  -4  -3   63.34    1.60
   2   4   3   64.07    1.60
   2   4   3   66.12    1.61
  -3  -4  -3    1.72    0.13
  -3  -4  -3    1.47    0.11
  -3  -4  -3    1.70    0.13
   3   4   3    1.51    0.11
   3   4   3    1.61    0.14
  -4  -4  -3   10.48    0.33
  -4  -4  -3    9.91    0.35
  -4  -4  -3   10.42    0.37
  -4  -4  -3    9.88    0.34
   4   4   3   10.13    0.35
   4   4   3    9.52    0.33
   4   4   3   10.31    0.33
  -5  -4  -3    0.53    0.09
  -5  -4  -3    0.44    0.10
  -5  -4  -3    0.48    0.09
  -5  -4  -3    0.67    0.13
   5   4   3    0.48    0.12
   5   4   3    0.60    0.12
   5   4   3    0.49    0.10
  -6  -4  -3    0.98    0.16
  -6  -4  -3    0.67    0.13
  -6  -4  -3    0.89    0.16
  -6  -4  -3    0.58    0.15
   6   4   3    0.77    0.15
   6   4   3    0.71    0.12
   6   4   3    0.73    0.16
   6   4   3    0.61    0.10
  -7  -4  -3    1.06    0.17
  -7  -4  -3    1.46    0.21
  -7  -4  -3    1.42    0.21
   7   4   3    1.64    0.20
   7   4   3    1.70    0.23
   7  -5  -3    0.06    0.08
   7  -5  -3    0.00    0.07
   7  -5  -3    0.11    0.05
   7  -5  -3    0.12    0.10
  -7   5   3   -0.06    0.06
   6  -5  -3    0.27    0.24
   6  -5  -3    0.25    0.07
   6  -5  -3    0.33    0.09
   6  -5  -3    0.32    0.10
   6  -5  -3    0.32    0.05
  -6   5   3    0.44    0.09
  -6   5   3    0.43    0.08
   5  -5  -3   37.93    0.93
   5  -5  -3   37.57    1.00
   5  -5  -3   37.73    1.02
   5  -5  -3   35.98    0.93
   5  -5  -3   37.27    1.12
  -5   5   3   39.18    0.92
  -5   5   3   36.77    0.91
   4  -5  -3   14.73    0.80
   4  -5  -3   15.13    0.49
   4  -5  -3   14.88    0.45
   4  -5  -3   15.21    0.38
   4  -5  -3   14.81    0.38
   3  -5  -3   44.66    1.17
   3  -5  -3   44.39    2.17
   3  -5  -3   45.15    1.29
   2  -5  -3    0.79    0.07
   2  -5  -3    0.79    0.05
   2  -5  -3    0.89    0.08
  -2   5   3    0.81    0.05
  -2   5   3    0.85    0.05
   1  -5  -3   30.57    0.77
   1  -5  -3   30.12    0.75
   1  -5  -3   31.19    0.88
   1  -5  -3   31.19    0.80
   1  -5  -3   30.98    0.75
  -1   5   3   30.94    0.76
   0  -5  -3   28.38    0.70
   0  -5  -3   27.47    0.71
   0  -5  -3   28.12    0.71
   0   5   3   28.62    0.70
   0   5   3   28.31    0.71
   0   5   3   28.18    0.71
  -1  -5  -3    1.21    0.09
  -1  -5  -3    1.07    0.09
  -1  -5  -3    1.16    0.09
  -1  -5  -3    1.24    0.09
   1   5   3    1.07    0.09
   1   5   3    1.15    0.06
   1   5   3    1.23    0.10
  -2  -5  -3   31.84    0.84
  -2  -5  -3   33.12    0.93
  -2  -5  -3   31.38    0.83
   2   5   3   32.26    0.81
   2   5   3   32.46    0.83
   2   5   3   31.53    0.83
  -3  -5  -3    5.38    0.22
  -3  -5  -3    5.72    0.23
  -3  -5  -3    5.64    0.22
   3   5   3    5.58    0.22
   3   5   3    5.54    0.18
   3   5   3    5.88    0.24
  -4  -5  -3    0.41    0.09
  -4  -5  -3    0.32    0.07
  -4  -5  -3    0.46    0.10
   4   5   3    0.53    0.11
   4   5   3    0.44    0.08
  -5  -5  -3    4.66    0.28
  -5  -5  -3    4.32    0.23
  -5  -5  -3    4.46    0.24
  -5  -5  -3    4.20    0.23
   5   5   3    4.76    0.23
   5   5   3    4.21    0.30
   5   5   3    4.40    0.26
  -6  -5  -3    4.78    0.26
  -6  -5  -3    4.13    0.26
  -6  -5  -3    4.41    0.25
  -6  -5  -3    4.14    0.33
   6   5   3    4.12    0.24
   7  -6  -3    2.98    0.24
   7  -6  -3    2.55    0.23
   7  -6  -3    3.09    0.14
   7  -6  -3    3.19    0.17
  -7   6   3    3.19    0.14
  -7   6   3    3.34    0.16
   6  -6  -3    0.11    0.05
   6  -6  -3    0.15    0.08
   6  -6  -3   -0.03    0.06
   6  -6  -3    0.01    0.09
   6  -6  -3    0.01    0.04
   6  -6  -3    0.06    0.23
  -6   6   3    0.06    0.04
  -6   6   3    0.18    0.05
   5  -6  -3    2.30    0.17
   5  -6  -3    2.19    0.17
   5  -6  -3    2.30    0.10
   4  -6  -3    2.98    0.16
   4  -6  -3    2.84    0.10
   4  -6  -3    2.90    0.30
   4  -6  -3    3.02    0.16
   3  -6  -3   26.93    0.80
   3  -6  -3   27.52    0.74
   3  -6  -3   26.41    1.35
   2  -6  -3   25.46    0.63
   2  -6  -3   25.09    0.68
   2  -6  -3   24.91    0.74
  -2   6   3   24.72    0.62
  -2   6   3   25.30    0.62
   1  -6  -3   43.35    1.08
   1  -6  -3   44.63    1.08
   1  -6  -3   44.63    1.10
   1  -6  -3   44.54    1.14
  -1   6   3   45.00    1.09
   0  -6  -3   21.69    0.59
   0  -6  -3   22.94    0.57
   0  -6  -3   22.45    0.58
   0   6   3   22.31    0.57
   0   6   3   22.33    0.58
   0   6   3   22.46    0.58
   0   6   3   22.81    0.59
  -1  -6  -3   37.85    0.97
  -1  -6  -3   38.66    0.96
   1   6   3   38.04    0.97
   1   6   3   37.33    0.97
   1   6   3   38.34    0.97
  -2  -6  -3    6.51    0.23
  -2  -6  -3    5.98    0.23
  -2  -6  -3    6.12    0.23
  -2  -6  -3    6.16    0.23
   2   6   3    6.14    0.19
   2   6   3    6.23    0.23
   2   6   3    6.47    0.25
  -3  -6  -3    1.31    0.14
  -3  -6  -3    1.30    0.14
  -3  -6  -3    1.28    0.15
   3   6   3    1.46    0.11
   3   6   3    1.19    0.13
   3   6   3    1.28    0.18
  -4  -6  -3    8.77    0.32
  -4  -6  -3    9.04    0.33
  -4  -6  -3    8.87    0.35
   4   6   3    8.47    0.28
   4   6   3    8.64    0.32
   4   6   3    8.65    0.36
  -5  -6  -3    0.45    0.14
  -5  -6  -3    0.51    0.11
  -5  -6  -3    0.54    0.12
  -5  -6  -3    0.36    0.09
   5   6   3    0.52    0.11
   5   6   3    0.45    0.18
  -6  -6  -3    0.28    0.13
  -6  -6  -3    0.12    0.18
  -6  -6  -3    0.17    0.13
  -6  -6  -3    0.22    0.11
   6   6   3    0.54    0.11
   6  -7  -3    4.80    0.17
   6  -7  -3    5.09    0.27
   6  -7  -3    4.96    0.21
   6  -7  -3    4.39    0.25
   5  -7  -3    0.65    0.10
   5  -7  -3    0.48    0.09
   5  -7  -3    0.68    0.08
   4  -7  -3    2.54    0.10
   4  -7  -3    2.50    0.17
   4  -7  -3    2.08    0.09
   4  -7  -3    2.65    0.16
   4  -7  -3    2.49    0.29
   3  -7  -3    5.71    0.21
   3  -7  -3    5.63    0.17
   3  -7  -3    5.78    0.42
   3  -7  -3    5.59    0.22
  -3   7   3    5.57    0.16
  -3   7   3    5.76    0.16
   2  -7  -3    2.46    0.13
   2  -7  -3    2.22    0.11
  -2   7   3    2.17    0.10
  -2   7   3    2.17    0.10
   1  -7  -3    5.35    0.19
   1  -7  -3    5.72    0.17
   1  -7  -3    5.73    0.20
   1  -7  -3    5.62    0.18
  -1   7   3    5.60    0.19
  -1   7   3    6.03    0.19
   0  -7  -3   10.08    0.31
   0  -7  -3   10.01    0.29
   0  -7  -3   10.09    0.30
   0   7   3   10.32    0.31
   0   7   3   10.04    0.29
   0   7   3    9.97    0.30
   0   7   3   10.25    0.31
  -1  -7  -3   23.30    0.63
  -1  -7  -3   23.12    0.64
  -1  -7  -3   23.16    0.65
   1   7   3   24.15    0.63
   1   7   3   24.69    0.64
   1   7   3   24.37    0.64
  -2  -7  -3    8.80    0.30
  -2  -7  -3    8.89    0.30
  -2  -7  -3    8.19    0.30
   2   7   3    9.47    0.33
   2   7   3    9.08    0.27
   2   7   3    9.04    0.31
  -3  -7  -3   16.79    0.49
  -3  -7  -3   16.01    0.49
  -3  -7  -3   16.28    0.50
   3   7   3   16.22    0.52
   3   7   3   15.95    0.49
   3   7   3   15.24    0.44
  -4  -7  -3    0.16    0.10
  -4  -7  -3   -0.02    0.11
  -4  -7  -3   -0.10    0.10
   4   7   3   -0.08    0.08
   4   7   3   -0.02    0.08
   4   7   3   -0.03    0.14
  -5  -7  -3    0.50    0.14
  -5  -7  -3    0.50    0.12
  -5  -7  -3    0.68    0.17
  -5  -7  -3    1.34    0.21
   5   7   3    0.90    0.21
   5   7   3    0.53    0.11
   5   7   3    0.94    0.18
   5  -8  -3    3.84    0.22
   5  -8  -3    3.74    0.23
   5  -8  -3    3.67    0.14
   4  -8  -3    3.37    0.19
   4  -8  -3    3.24    0.12
   4  -8  -3    2.80    0.12
   4  -8  -3    3.35    0.17
   4  -8  -3    3.23    0.33
   3  -8  -3    1.15    0.14
   3  -8  -3    1.08    0.09
   3  -8  -3    1.32    0.29
  -3   8   3    1.09    0.09
  -3   8   3    0.90    0.08
   2  -8  -3    0.10    0.05
   2  -8  -3    0.23    0.07
  -2   8   3    0.20    0.05
  -2   8   3    0.04    0.05
   1  -8  -3    6.58    0.21
   1  -8  -3    6.71    0.21
   1  -8  -3    6.38    0.22
  -1   8   3    6.58    0.23
  -1   8   3    6.80    0.22
   0  -8  -3    1.85    0.14
   0  -8  -3    1.87    0.13
   0  -8  -3    1.60    0.12
   0   8   3    1.71    0.15
   0   8   3    1.89    0.15
   0   8   3    1.75    0.13
   0   8   3    1.81    0.13
  -1  -8  -3    0.40    0.08
  -1  -8  -3    0.89    0.15
   1   8   3    0.73    0.12
   1   8   3    0.48    0.10
   1   8   3    0.57    0.09
  -2  -8  -3   10.38    0.35
  -2  -8  -3   10.40    0.35
   2   8   3   10.44    0.39
   2   8   3   10.23    0.32
   2   8   3   10.40    0.35
  -3  -8  -3    4.36    0.24
  -3  -8  -3    4.99    0.25
   3   8   3    4.52    0.20
   3   8   3    4.52    0.32
   3   8   3    4.41    0.23
  -4  -8  -3   10.56    0.40
  -4  -8  -3   11.18    0.40
   4   8   3   10.75    0.39
   4   8   3    9.76    0.33
   4   8   3   10.42    0.50
   4  -9  -3    0.67    0.09
   4  -9  -3    0.93    0.17
   4  -9  -3    0.37    0.18
   3  -9  -3    4.80    0.18
   3  -9  -3    4.88    0.24
  -3   9   3    4.83    0.17
  -3   9   3    4.71    0.17
   2  -9  -3    6.90    0.24
   2  -9  -3    7.56    0.28
  -2   9   3    7.32    0.24
   1  -9  -3    0.75    0.12
   1  -9  -3    0.69    0.08
   1  -9  -3    0.74    0.13
  -1   9   3    0.65    0.10
  -1   9   3    0.87    0.11
   0  -9  -3    2.49    0.17
   0  -9  -3    2.25    0.15
   0  -9  -3    2.25    0.18
   0   9   3    2.52    0.16
   0   9   3    2.32    0.16
   0   9   3    2.59    0.20
  -1  -9  -3    6.12    0.25
   1   9   3    6.13    0.25
   1   9   3    5.93    0.29
   1   9   3    6.22    0.25
  -2  -9  -3    0.66    0.11
  -2  -9  -3    0.80    0.12
   2   9   3    1.13    0.16
   2   9   3    0.86    0.16
   2   9   3    0.73    0.16
   0  11  -4    1.63    0.22
   0  11  -4    1.72    0.18
   0 -11   4    1.55    0.22
   0 -11   4    1.78    0.18
   0 -11   4    0.12    0.67
  -1  11  -4    0.83    0.16
  -1  11  -4    1.07    0.20
   1 -11   4    0.84    0.14
   1 -11   4    0.82    0.16
   1 -11   4    0.46    0.36
  -2  11  -4    0.97    0.19
  -2  11  -4    1.28    0.17
   2 -11   4    1.35    0.17
   2 -11   4    1.34    0.39
   2 -11   4    1.38    0.21
   3  10  -4    0.04    0.10
   3  10  -4    0.09    0.08
   2  10  -4    2.82    0.35
  -2 -10   4    2.56    0.22
  -2 -10   4    2.32    0.23
   1  10  -4    1.71    0.28
   1  10  -4    1.06    0.15
  -1 -10   4    1.21    0.19
  -1 -10   4    1.41    0.18
  -1 -10   4   -0.05    0.68
   0  10  -4    0.05    0.13
   0  10  -4    0.19    0.08
   0 -10   4   -0.09    0.09
   0 -10   4    0.09    0.08
   0 -10   4    0.18    0.50
  -1  10  -4    1.14    0.14
  -1  10  -4    0.98    0.16
   1 -10   4    0.59    0.29
   1 -10   4    1.20    0.15
   1 -10   4    1.07    0.17
  -2  10  -4    0.80    0.14
  -2  10  -4    0.52    0.14
   2 -10   4    0.87    0.16
   2 -10   4    0.95    0.31
   2 -10   4    0.82    0.13
  -3  10  -4    2.11    0.20
  -3  10  -4    1.77    0.17
  -3  10  -4    2.02    0.26
   3 -10   4    2.12    0.20
   3 -10   4    2.32    0.19
   3 -10   4    1.88    0.16
  -4  10  -4    1.17    0.17
  -4  10  -4    1.56    0.24
  -4  10  -4    1.26    0.16
   4 -10   4    1.35    0.15
   4 -10   4    1.49    0.19
   4 -10   4    1.29    0.19
   4   9  -4    0.10    0.10
   4   9  -4    0.15    0.10
  -4  -9   4    0.21    0.12
  -4  -9   4    0.08    0.13
   3   9  -4    7.65    0.31
   3   9  -4    7.28    0.40
   3   9  -4    7.14    0.29
  -3  -9   4    7.45    0.32
  -3  -9   4    7.84    0.33
   2   9  -4    1.07    0.12
   2   9  -4    1.18    0.15
   2   9  -4    1.35    0.15
   2   9  -4    1.54    0.26
  -2  -9   4    1.36    0.17
  -2  -9   4    1.37    0.17
   1   9  -4    0.04    0.05
   1   9  -4    0.01    0.11
   1   9  -4   -0.07    0.10
   1   9  -4   -0.06    0.07
  -1  -9   4    0.10    0.08
  -1  -9   4    0.02    0.07
  -1  -9   4    0.07    0.49
   0   9  -4    5.78    0.24
   0   9  -4    6.00    0.27
   0   9  -4    5.16    0.26
   0  -9   4    6.22    0.25
   0  -9   4    6.15    0.25
   0  -9   4    4.57    0.65
  -1   9  -4    1.03    0.13
  -1   9  -4    1.08    0.16
  -1   9  -4    1.08    0.13
  -1   9  -4    1.06    0.18
   1  -9   4    1.00    0.25
   1  -9   4    1.18    0.13
   1  -9   4    1.26    0.15
  -2   9  -4    0.23    0.07
  -2   9  -4    0.10    0.10
  -2   9  -4    0.26    0.09
  -2   9  -4    0.15    0.10
   2  -9   4    0.21    0.08
   2  -9   4    0.31    0.14
   2  -9   4    0.35    0.07
  -3   9  -4    2.38    0.22
  -3   9  -4    2.14    0.15
  -3   9  -4    1.85    0.19
   3  -9   4    2.23    0.17
   3  -9   4    2.35    0.15
   3  -9   4    2.32    0.17
  -4   9  -4    1.67    0.22
  -4   9  -4    1.87    0.15
  -4   9  -4    1.72    0.22
   4  -9   4    1.60    0.17
   4  -9   4    1.65    0.17
   4  -9   4    1.99    0.15
  -5   9  -4    0.03    0.13
  -5   9  -4   -0.03    0.15
  -5   9  -4    0.03    0.08
   5  -9   4    0.07    0.09
   5  -9   4   -0.19    0.15
   5  -9   4   -0.07    0.07
  -6   9  -4    2.69    0.20
  -6   9  -4    3.01    0.37
  -6   9  -4    3.03    0.33
   6  -9   4    2.66    0.23
   6  -9   4    2.75    0.38
   5   8  -4    0.32    0.11
   5   8  -4    0.23    0.12
  -5  -8   4    0.10    0.12
  -5  -8   4    0.37    0.12
   4   8  -4    1.08    0.17
   4   8  -4    0.97    0.16
   4   8  -4    1.13    0.16
  -4  -8   4    0.92    0.13
  -4  -8   4    1.12    0.19
   3   8  -4    7.83    0.33
   3   8  -4    7.55    0.29
   3   8  -4    7.46    0.32
   3   8  -4    7.33    0.29
   3   8  -4    6.90    0.31
  -3  -8   4    7.72    0.31
  -3  -8   4    7.37    0.30
   2   8  -4    0.64    0.11
   2   8  -4    0.36    0.08
   2   8  -4    0.70    0.10
   2   8  -4    0.60    0.11
   2   8  -4    0.45    0.11
  -2  -8   4    0.69    0.13
  -2  -8   4    0.55    0.10
  -2  -8   4    0.21    0.45
   1   8  -4   29.62    0.78
   1   8  -4   26.96    0.82
   1   8  -4   27.99    0.77
   1   8  -4   28.56    0.79
   1   8  -4   27.80    0.77
  -1  -8   4   28.60    0.78
  -1  -8   4   28.59    0.77
   0   8  -4    1.99    0.15
   0   8  -4    2.46    0.18
   0   8  -4    2.44    0.16
   0  -8   4    2.05    0.46
   0  -8   4    2.35    0.15
   0  -8   4    2.36    0.16
  -1   8  -4   11.54    0.36
  -1   8  -4   11.60    0.37
  -1   8  -4   11.63    0.38
   1  -8   4   11.57    0.36
   1  -8   4   11.67    0.36
   1  -8   4   11.26    0.69
  -2   8  -4   15.68    0.50
  -2   8  -4   15.73    0.47
  -2   8  -4   16.11    0.48
   2  -8   4   16.29    0.47
   2  -8   4   15.79    0.50
   2  -8   4   15.98    0.47
   2  -8   4   16.51    0.83
  -3   8  -4    2.35    0.19
  -3   8  -4    1.65    0.17
  -3   8  -4    1.83    0.13
   3  -8   4    1.75    0.15
   3  -8   4    1.68    0.15
   3  -8   4    1.81    0.14
  -4   8  -4    3.03    0.23
  -4   8  -4    2.96    0.21
  -4   8  -4    3.07    0.17
   4  -8   4    3.01    0.18
   4  -8   4    3.55    0.20
   4  -8   4    2.98    0.17
   4  -8   4    2.95    0.18
  -5   8  -4    7.32    0.28
  -5   8  -4    7.51    0.36
  -5   8  -4    7.26    0.32
   5  -8   4    7.73    0.29
   5  -8   4    7.73    0.31
   5  -8   4    7.48    0.28
   5  -8   4    7.69    0.31
   5  -8   4    7.32    0.34
  -6   8  -4    1.52    0.27
  -6   8  -4    1.46    0.29
  -6   8  -4    1.28    0.15
   6  -8   4    1.50    0.16
   6  -8   4    1.91    0.28
   6  -8   4    1.91    0.22
   6  -8   4    2.03    0.18
   6   7  -4    0.27    0.12
   6   7  -4    0.14    0.11
   6   7  -4    0.29    0.20
  -6  -7   4    0.14    0.10
  -6  -7   4   -0.03    0.13
   5   7  -4    3.46    0.22
   5   7  -4    3.14    0.29
   5   7  -4    3.63    0.23
  -5  -7   4    3.67    0.23
  -5  -7   4    3.67    0.24
   4   7  -4   -0.08    0.08
   4   7  -4   -0.03    0.10
   4   7  -4   -0.08    0.09
   4   7  -4    0.01    0.07
  -4  -7   4   -0.06    0.10
  -4  -7   4   -0.02    0.07
  -4  -7   4    0.13    0.10
   3   7  -4    4.49    0.21
   3   7  -4    4.39    0.24
   3   7  -4    4.47    0.23
   3   7  -4    4.48    0.20
  -3  -7   4    4.28    0.21
  -3  -7   4    4.51    0.22
   2   7  -4    8.15    0.29
   2   7  -4    8.31    0.30
   2   7  -4    8.04    0.29
   2   7  -4    8.51    0.30
   2   7  -4    8.30    0.30
  -2  -7   4    7.93    0.29
  -2  -7   4    8.14    0.29
   1   7  -4   14.48    0.42
   1   7  -4   13.56    0.42
   1   7  -4   14.46    0.43
   1   7  -4   13.95    0.42
  -1  -7   4   13.89    0.42
  -1  -7   4   14.13    0.42
   0   7  -4   16.54    0.49
   0   7  -4   17.62    0.49
   0   7  -4   17.60    0.49
   0  -7   4   16.71    0.49
   0  -7   4   17.49    0.49
  -1   7  -4   70.46    1.76
  -1   7  -4   72.59    1.79
  -1   7  -4   70.53    1.76
   1  -7   4   69.93    1.77
   1  -7   4   69.88    3.38
   1  -7   4   72.58    1.76
  -2   7  -4    0.09    0.05
  -2   7  -4    0.22    0.07
  -2   7  -4    0.20    0.07
   2  -7   4    0.16    0.06
   2  -7   4    0.15    0.06
   2  -7   4    0.19    0.06
   2  -7   4    0.12    0.09
  -3   7  -4   18.29    0.52
  -3   7  -4   18.20    0.58
  -3   7  -4   17.92    0.51
   3  -7   4   18.24    0.51
   3  -7   4   17.67    0.54
   3  -7   4   18.24    0.52
  -4   7  -4   11.33    0.36
  -4   7  -4   11.50    0.38
  -4   7  -4   11.51    0.42
   4  -7   4   11.84    0.40
   4  -7   4   11.46    0.37
   4  -7   4   11.69    0.36
   4  -7   4   11.71    0.39
  -5   7  -4    1.67    0.19
  -5   7  -4    1.48    0.21
  -5   7  -4    1.77    0.14
   5  -7   4    1.49    0.13
   5  -7   4    1.78    0.15
   5  -7   4    1.83    0.18
   5  -7   4    1.62    0.14
   5  -7   4    1.82    0.21
  -6   7  -4    1.62    0.15
  -6   7  -4    2.09    0.24
  -6   7  -4    1.66    0.24
   6  -7   4    2.21    0.16
   6  -7   4    1.83    0.21
   6  -7   4    2.04    0.17
   6  -7   4    2.18    0.17
   6  -7   4    2.28    0.24
  -7   7  -4    2.10    0.29
  -7   7  -4    1.79    0.18
   7  -7   4    1.65    0.17
   7  -7   4    1.65    0.25
   7  -7   4    2.30    0.21
   7  -7   4    1.85    0.26
   6   6  -4    5.51    0.34
   6   6  -4    5.24    0.29
   6   6  -4    5.70    0.28
  -6  -6   4    5.51    0.27
  -6  -6   4    5.38    0.29
   5   6  -4    0.02    0.09
   5   6  -4    0.08    0.11
   5   6  -4   -0.11    0.07
  -5  -6   4    0.06    0.09
  -5  -6   4    0.03    0.11
  -5  -6   4    0.00    0.08
   4   6  -4    7.42    0.30
   4   6  -4    7.41    0.30
   4   6  -4    7.46    0.29
   4   6  -4    6.95    0.28
  -4  -6   4    7.31    0.28
  -4  -6   4    7.42    0.29
  -4  -6   4    7.39    0.29
   3   6  -4   12.17    0.38
   3   6  -4   11.98    0.41
   3   6  -4   12.59    0.39
   3   6  -4   12.50    0.38
  -3  -6   4   12.41    0.39
  -3  -6   4   12.17    0.39
  -3  -6   4   11.66    0.38
   2   6  -4    0.10    0.06
   2   6  -4    0.03    0.05
   2   6  -4    0.02    0.05
   2   6  -4    0.10    0.05
  -2  -6   4    0.04    0.05
  -2  -6   4    0.10    0.26
  -2  -6   4    0.06    0.05
   1   6  -4   18.73    0.51
   1   6  -4   19.57    0.51
   1   6  -4   18.95    0.51
  -1  -6   4   17.77    0.51
  -1  -6   4   16.79    1.01
  -1  -6   4   17.88    0.51
   0   6  -4   15.56    0.44
   0   6  -4   16.28    0.45
   0   6  -4   16.27    0.45
   0  -6   4   15.72    0.45
   0  -6   4   15.79    0.44
   0  -6   4   15.34    0.87
  -1   6  -4    0.91    0.09
  -1   6  -4    1.04    0.09
  -1   6  -4    1.12    0.11
   1  -6   4    1.07    0.10
   1  -6   4    0.97    0.19
   1  -6   4    0.99    0.09
  -2   6  -4   19.68    0.54
  -2   6  -4   20.82    0.55
   2  -6   4   19.93    0.57
   2  -6   4   20.08    0.55
   2  -6   4   19.53    0.54
  -3   6  -4   40.22    1.15
  -3   6  -4   38.22    1.00
  -3   6  -4   39.19    1.01
   3  -6   4   38.83    1.00
   3  -6   4   39.32    1.01
   3  -6   4   39.06    1.05
   3  -6   4   39.94    1.08
  -4   6  -4    4.11    0.20
  -4   6  -4    4.14    0.22
  -4   6  -4    4.12    0.18
   4  -6   4    4.46    0.21
   4  -6   4    3.84    0.18
   4  -6   4    4.36    0.19
   4  -6   4    4.38    0.20
  -5   6  -4   14.47    0.45
  -5   6  -4   14.54    0.52
  -5   6  -4   14.43    0.44
   5  -6   4   14.71    0.45
   5  -6   4   15.14    0.47
   5  -6   4   15.01    0.45
   5  -6   4   15.06    0.47
   5  -6   4   14.59    0.44
  -6   6  -4    3.92    0.27
  -6   6  -4    3.63    0.19
  -6   6  -4    3.83    0.24
   6  -6   4    3.73    0.21
   6  -6   4    3.63    0.19
   6  -6   4    3.93    0.23
   6  -6   4    3.73    0.21
   6  -6   4    4.16    0.23
  -7   6  -4    0.06    0.08
  -7   6  -4    0.01    0.14
   7  -6   4    0.12    0.09
   7  -6   4    0.14    0.14
   7  -6   4    0.15    0.11
   7  -6   4   -0.03    0.09
   7  -6   4    0.10    0.08
   7   5  -4    0.46    0.18
   7   5  -4    0.22    0.11
   7   5  -4    0.09    0.11
  -7  -5   4    0.15    0.13
  -7  -5   4    0.21    0.09
   6   5  -4    0.94    0.16
   6   5  -4    0.99    0.15
   6   5  -4    1.26    0.17
  -6  -5   4    1.15    0.18
  -6  -5   4    1.24    0.15
  -6  -5   4    0.89    0.15
   5   5  -4    4.52    0.24
   5   5  -4    4.95    0.23
   5   5  -4    4.63    0.25
  -5  -5   4    4.84    0.22
  -5  -5   4    4.62    0.23
  -5  -5   4    4.99    0.26
   4   5  -4   12.39    0.40
   4   5  -4   12.22    0.43
   4   5  -4   12.89    0.39
  -4  -5   4   12.43    0.39
  -4  -5   4   12.50    0.39
  -4  -5   4   12.48    0.39
   3   5  -4    1.26    0.11
   3   5  -4    1.30    0.11
   3   5  -4    0.96    0.12
  -3  -5   4    1.12    0.11
  -3  -5   4    0.90    0.11
  -3  -5   4    1.34    0.12
   2   5  -4    8.23    0.27
   2   5  -4    8.59    0.28
  -2  -5   4    8.38    0.28
  -2  -5   4    8.80    0.28
  -2  -5   4    8.62    0.27
   1   5  -4   19.99    0.52
   1   5  -4   19.56    0.51
   1   5  -4   18.46    0.51
  -1  -5   4   17.96    1.01
  -1  -5   4   18.69    0.52
  -1  -5   4   18.42    0.51
   0   5  -4    1.20    0.09
   0   5  -4    0.92    0.08
   0   5  -4    1.05    0.09
   0  -5   4    1.13    0.09
   0  -5   4    1.11    0.09
   0  -5   4    1.16    0.19
  -1   5  -4   38.77    1.12
  -1   5  -4   44.21    1.12
  -1   5  -4   47.14    1.12
   1  -5   4   44.54    1.16
   1  -5   4   45.54    1.12
   1  -5   4   45.13    1.13
   1  -5   4   47.73    2.15
  -2   5  -4   30.49    0.79
  -2   5  -4   30.41    1.49
  -2   5  -4   30.91    0.79
   2  -5   4   30.47    0.82
   2  -5   4   30.51    0.78
   2  -5   4   29.82    0.79
  -3   5  -4    6.05    0.21
  -3   5  -4    5.44    0.35
  -3   5  -4    5.70    0.20
  -3   5  -4    5.50    0.22
   3  -5   4    5.94    0.21
   3  -5   4    5.75    0.21
   3  -5   4    5.47    0.21
   3  -5   4    5.96    0.22
  -4   5  -4   52.67    1.34
  -4   5  -4   53.41    1.55
  -4   5  -4   53.81    1.34
   4  -5   4   53.74    1.35
   4  -5   4   51.98    1.34
   4  -5   4   53.71    1.35
   4  -5   4   53.58    1.40
   4  -5   4   54.33    1.43
  -5   5  -4   25.26    0.81
  -5   5  -4   25.10    0.69
  -5   5  -4   25.31    0.70
   5  -5   4   25.67    0.69
   5  -5   4   25.20    0.73
   5  -5   4   25.96    0.70
   5  -5   4   25.82    0.73
   5  -5   4   26.04    0.70
  -6   5  -4    2.60    0.23
  -6   5  -4    3.19    0.18
  -6   5  -4    3.33    0.23
   6  -5   4    3.57    0.21
   6  -5   4    3.30    0.19
   6  -5   4    3.37    0.18
   6  -5   4    3.24    0.19
   6  -5   4    3.31    0.19
  -7   5  -4    6.52    0.27
  -7   5  -4    6.42    0.32
   7  -5   4    6.11    0.29
   7  -5   4    6.36    0.32
   7  -5   4    6.17    0.28
   7  -5   4    5.99    0.27
   7  -5   4    6.55    0.27
  -8   5  -4    0.18    0.09
  -8   5  -4    0.43    0.19
   8  -5   4    0.11    0.11
   8  -5   4    0.03    0.10
   8  -5   4    0.28    0.18
   8  -5   4    0.19    0.11
   8  -5   4    0.18    0.09
   7   4  -4    1.67    0.20
   7   4  -4    2.04    0.20
   7   4  -4    1.92    0.27
  -7  -4   4    1.85    0.30
  -7  -4   4    1.92    0.17
  -7  -4   4    2.06    0.22
   6   4  -4    5.99    0.29
   6   4  -4    5.96    0.29
   6   4  -4    6.12    0.26
  -6  -4   4    6.22    0.30
  -6  -4   4    5.72    0.25
  -6  -4   4    6.46    0.27
   5   4  -4    0.01    0.06
   5   4  -4   -0.03    0.08
   5   4  -4    0.03    0.08
  -5  -4   4    0.01    0.05
  -5  -4   4   -0.03    0.07
   4   4  -4    0.04    0.06
   4   4  -4    0.07    0.05
   4   4  -4   -0.03    0.06
  -4  -4   4    0.00    0.06
  -4  -4   4    0.01    0.04
  -4  -4   4    0.09    0.07
   3   4  -4    8.26    0.27
   3   4  -4    8.26    0.30
   3   4  -4    8.67    0.28
  -3  -4   4    8.14    0.27
  -3  -4   4    8.19    0.27
  -3  -4   4    8.82    0.27
   2   4  -4   48.19    1.22
   2   4  -4   50.25    1.23
  -2  -4   4   46.91    1.22
  -2  -4   4   47.04    1.22
  -2  -4   4   51.62    1.22
   1   4  -4    0.33    0.05
   1   4  -4    0.26    0.19
   1   4  -4    0.37    0.05
  -1  -4   4    0.29    0.13
  -1  -4   4    0.43    0.07
  -1  -4   4    0.37    0.07
  -1  -4   4    0.35    0.07
   0   4  -4  117.57    2.83
   0   4  -4  119.46    2.81
   0   4  -4  117.39    2.81
   0  -4   4  114.01    2.83
   0  -4   4  113.77    2.81
   0  -4   4  114.96    5.47
  -1   4  -4   57.49    1.43
  -1   4  -4   63.64    2.78
  -1   4  -4   58.48    1.44
  -1   4  -4   56.88    1.43
   1  -4   4   59.64    2.76
   1  -4   4   55.10    1.43
   1  -4   4   56.28    1.48
   1  -4   4   56.93    1.44
  -2   4  -4    0.95    0.08
  -2   4  -4    0.95    0.08
  -2   4  -4    0.71    0.16
  -2   4  -4    0.91    0.08
   2  -4   4    0.89    0.08
   2  -4   4    0.74    0.08
   2  -4   4    0.88    0.09
  -3   4  -4   95.86    4.26
  -3   4  -4   91.60    2.23
  -3   4  -4   91.69    2.56
  -3   4  -4   90.76    2.21
  -3   4  -4   92.08    2.21
   3  -4   4   84.26    2.36
   3  -4   4   90.74    2.23
   3  -4   4   89.26    2.29
   3  -4   4   89.64    2.21
  -4   4  -4    3.47    0.16
  -4   4  -4    3.60    0.18
  -4   4  -4    3.19    0.15
   4  -4   4    3.34    0.16
   4  -4   4    3.32    0.16
   4  -4   4    3.60    0.17
   4  -4   4    3.45    0.16
   4  -4   4    3.36    0.15
  -5   4  -4    0.01    0.05
  -5   4  -4    0.00    0.07
  -5   4  -4    0.04    0.06
  -5   4  -4    0.01    0.08
   5  -4   4    0.02    0.06
   5  -4   4   -0.04    0.04
   5  -4   4    0.05    0.06
   5  -4   4   -0.05    0.05
   5  -4   4    0.08    0.07
  -6   4  -4   17.24    0.51
  -6   4  -4   17.86    0.53
   6  -4   4   17.62    0.53
   6  -4   4   17.28    0.52
   6  -4   4   18.43    0.54
   6  -4   4   17.29    0.54
   6  -4   4   17.80    0.52
  -7   4  -4    6.47    0.27
  -7   4  -4    6.10    0.32
  -7   4  -4    7.10    0.58
   7  -4   4    7.10    0.32
   7  -4   4    6.84    0.27
   7  -4   4    6.70    0.28
   7  -4   4    6.64    0.29
   7  -4   4    6.89    0.29
  -8   4  -4   14.09    0.91
  -8   4  -4   12.82    0.43
  -8   4  -4   12.08    0.51
   8  -4   4   12.57    0.44
   8  -4   4   11.69    0.45
   8  -4   4   12.62    0.49
   8  -4   4   13.32    0.45
   8   3  -4    3.04    0.26
   8   3  -4    3.52    0.33
  -8  -3   4    3.46    0.39
  -8  -3   4    3.24    0.25
   7   3  -4    5.99    0.27
   7   3  -4    6.26    0.31
   7   3  -4    5.64    0.30
  -7  -3   4    6.07    0.26
  -7  -3   4    5.92    0.27
  -7  -3   4    6.21    0.33
  -7  -3   4    5.78    0.23
   6   3  -4    0.28    0.08
   6   3  -4    0.40    0.08
   6   3  -4    0.52    0.11
  -6  -3   4    0.49    0.11
  -6  -3   4    0.34    0.07
   5   3  -4   13.14    0.40
   5   3  -4   13.54    0.47
   5   3  -4   13.35    0.41
  -5  -3   4   13.45    0.41
  -5  -3   4   12.97    0.40
   4   3  -4   49.70    1.42
   4   3  -4   49.65    1.23
   4   3  -4   49.28    1.22
  -4  -3   4   44.16    1.22
  -4  -3   4   48.34    1.22
  -4  -3   4   50.27    1.23
   3   3  -4    0.00    0.04
   3   3  -4    0.03    0.04
   3   3  -4    0.00    0.18
   3   3  -4    0.04    0.04
  -3  -3   4    0.01    0.03
  -3  -3   4    0.03    0.04
  -3  -3   4    0.02    0.05
   2   3  -4    0.25    0.05
   2   3  -4    0.21    0.20
   2   3  -4    0.34    0.07
  -2  -3   4    0.38    0.06
  -2  -3   4    0.25    0.05
  -2  -3   4    0.29    0.05
   1   3  -4   38.69    0.97
   1   3  -4   39.06    0.98
  -1  -3   4   39.26    0.98
  -1  -3   4   39.89    0.97
  -1  -3   4   37.47    0.97
  -1  -3   4   39.63    1.91
   0   3  -4   14.17    0.38
   0   3  -4   14.53    0.76
   0   3  -4   14.20    0.38
   0   3  -4   13.56    0.39
   0  -3   4   13.54    0.38
   0  -3   4   14.53    0.38
   0  -3   4   14.21    0.73
   0  -3   4   14.29    0.41
  -1   3  -4    5.01    0.17
  -1   3  -4    4.96    0.16
  -1   3  -4    5.06    0.33
  -1   3  -4    4.68    0.17
  -1   3  -4    5.03    0.17
   1  -3   4    4.96    0.17
   1  -3   4    4.78    0.17
   1  -3   4    5.18    0.16
   1  -3   4    5.04    0.18
  -2   3  -4   61.93    1.52
  -2   3  -4   62.62    1.53
  -2   3  -4   62.86    1.53
  -2   3  -4   63.46    1.58
   2  -3   4   63.55    1.64
   2  -3   4   61.13    1.54
   2  -3   4   61.30    1.58
   2  -3   4   60.18    1.52
  -3   3  -4    5.69    0.20
  -3   3  -4    6.12    0.20
  -3   3  -4    6.09    0.20
  -3   3  -4    5.65    0.20
   3  -3   4    5.66    0.20
   3  -3   4    5.74    0.20
   3  -3   4    5.66    0.20
   3  -3   4    5.59    0.20
   3  -3   4    5.98    0.21
  -4   3  -4   31.85    0.78
  -4   3  -4   29.94    0.80
  -4   3  -4   29.56    0.78
  -4   3  -4   29.02    0.78
   4  -3   4   30.54    0.78
   4  -3   4   29.80    0.80
   4  -3   4   29.74    0.78
   4  -3   4   28.84    0.78
   4  -3   4   29.21    0.82
  -5   3  -4   32.48    0.85
  -5   3  -4   31.50    0.84
   5  -3   4   32.95    0.87
   5  -3   4   28.33    0.88
   5  -3   4   33.01    0.86
   5  -3   4   34.53    0.86
   5  -3   4   32.51    0.85
  -6   3  -4    0.24    0.09
  -6   3  -4    0.31    0.07
   6  -3   4    0.34    0.08
   6  -3   4    0.33    0.08
   6  -3   4    0.36    0.08
   6  -3   4    0.23    0.07
   6  -3   4    0.15    0.10
  -7   3  -4    1.10    0.14
  -7   3  -4    0.93    0.16
   7  -3   4    1.28    0.21
   7  -3   4    0.86    0.15
   7  -3   4    0.80    0.15
   7  -3   4    1.19    0.16
   7  -3   4    1.06    0.14
  -8   3  -4    3.67    0.66
  -8   3  -4    3.70    0.22
  -8   3  -4    3.77    0.34
   8  -3   4    4.11    0.25
   8  -3   4    3.47    0.23
   8  -3   4    3.47    0.22
   8  -3   4    3.73    0.32
   8   2  -4    3.87    0.30
   8   2  -4    3.45    0.24
  -8  -2   4    3.78    0.28
  -8  -2   4    3.74    0.34
  -8  -2   4    3.97    0.22
   7   2  -4    1.01    0.16
   7   2  -4    1.25    0.20
   7   2  -4    1.09    0.15
  -7  -2   4    1.01    0.14
  -7  -2   4    1.00    0.14
  -7  -2   4    1.23    0.14
  -7  -2   4    0.55    0.31
   6   2  -4   11.15    0.37
   6   2  -4   11.40    0.36
   6   2  -4   11.40    0.43
  -6  -2   4   11.53    0.37
  -6  -2   4   11.41    0.33
  -6  -2   4   11.20    0.38
  -6  -2   4   10.99    0.36
   5   2  -4   20.41    0.56
   5   2  -4   20.17    0.66
   5   2  -4   19.86    0.55
  -5  -2   4   19.48    0.55
  -5  -2   4   19.83    0.56
  -5  -2   4   20.45    0.56
  -5  -2   4   20.89    0.56
   4   2  -4    9.57    0.29
   4   2  -4    9.26    0.34
   4   2  -4    9.22    0.28
  -4  -2   4    9.45    0.29
  -4  -2   4    9.06    0.28
  -4  -2   4    9.84    0.29
  -4  -2   4    9.05    0.28
   3   2  -4   13.89    0.38
   3   2  -4   13.92    0.39
   3   2  -4   13.93    0.45
   3   2  -4   12.98    0.81
  -3  -2   4   13.49    0.38
  -3  -2   4   14.04    0.40
  -3  -2   4   14.08    0.38
  -3  -2   4   14.72    0.39
   2   2  -4   22.77    0.59
  -2  -2   4   22.36    0.59
  -2  -2   4   23.58    1.19
  -2  -2   4   23.65    0.59
  -2  -2   4   22.06    0.59
  -2  -2   4   23.17    0.64
   1   2  -4   31.40    0.80
   1   2  -4   31.97    0.79
   1   2  -4   32.97    1.58
  -1  -2   4   31.22    1.56
  -1  -2   4   31.16    0.79
  -1  -2   4   32.47    0.85
  -1  -2   4   32.00    0.79
  -1  -2   4   31.48    0.80
   0   2  -4    4.55    0.14
   0   2  -4    4.33    0.15
   0   2  -4    4.51    0.15
   0   2  -4    4.15    0.29
   0  -2   4    4.53    0.15
   0  -2   4    4.42    0.15
   0  -2   4    4.10    0.14
   0  -2   4    4.45    0.29
   0  -2   4    4.57    0.16
  -1   2  -4    6.55    0.20
  -1   2  -4    6.70    0.39
  -1   2  -4    6.63    0.20
  -1   2  -4    6.51    0.22
  -1   2  -4    6.70    0.20
   1  -2   4    6.85    0.20
   1  -2   4    6.80    0.20
   1  -2   4    6.60    0.20
   1  -2   4    6.86    0.22
   1  -2   4    6.19    0.20
  -2   2  -4    6.06    0.19
  -2   2  -4    5.63    0.19
  -2   2  -4    5.98    0.19
  -2   2  -4    5.57    0.19
  -2   2  -4    5.85    0.21
   2  -2   4    5.75    0.20
   2  -2   4    5.66    0.19
   2  -2   4    6.02    0.19
   2  -2   4    5.76    0.19
   2  -2   4    6.06    0.19
   2  -2   4    5.71    0.19
  -3   2  -4   39.82    0.98
  -3   2  -4   40.53    0.99
  -3   2  -4   38.59    1.00
  -3   2  -4   38.58    1.04
  -3   2  -4   37.52    0.98
   3  -2   4   38.79    0.98
   3  -2   4   38.30    1.00
   3  -2   4   38.93    0.98
   3  -2   4   39.23    1.04
   3  -2   4   37.43    0.98
  -4   2  -4   21.58    0.59
  -4   2  -4   21.65    0.62
  -4   2  -4   22.27    0.59
  -4   2  -4   21.92    0.59
   4  -2   4   23.14    0.60
   4  -2   4   22.00    0.62
   4  -2   4   21.27    0.59
   4  -2   4   21.97    0.60
   4  -2   4   21.72    0.59
  -5   2  -4    0.63    0.10
  -5   2  -4    0.50    0.09
  -5   2  -4    0.59    0.12
   5  -2   4    0.46    0.09
   5  -2   4    0.51    0.10
   5  -2   4    0.55    0.08
   5  -2   4    0.45    0.07
   5  -2   4    0.59    0.09
  -6   2  -4    2.65    0.16
  -6   2  -4    2.77    0.20
  -6   2  -4    2.75    0.16
   6  -2   4    2.65    0.17
   6  -2   4    2.68    0.20
   6  -2   4    2.69    0.16
   6  -2   4    2.50    0.17
   6  -2   4    2.84    0.17
  -7   2  -4   10.96    0.38
  -7   2  -4   11.38    0.37
  -7   2  -4   10.91    0.41
   7  -2   4   11.35    0.39
   7  -2   4   11.62    0.41
   7  -2   4   11.04    0.38
   7  -2   4   11.24    0.39
  -8   2  -4    1.06    0.19
  -8   2  -4    1.26    0.17
  -8   2  -4    0.87    0.43
   8  -2   4    1.04    0.20
   8  -2   4    0.66    0.17
   8  -2   4    0.95    0.18
   8  -2   4    1.18    0.17
   8   1  -4    0.39    0.11
   8   1  -4    0.19    0.14
  -8  -1   4    0.27    0.15
  -8  -1   4    0.08    0.12
  -8  -1   4    0.39    0.09
   7   1  -4    9.66    0.35
   7   1  -4    8.71    0.33
   7   1  -4    9.77    0.33
   7   1  -4    9.98    0.40
  -7  -1   4    8.26    0.72
  -7  -1   4   10.17    0.36
  -7  -1   4    9.68    0.32
   6   1  -4    1.71    0.15
   6   1  -4    1.57    0.16
   6   1  -4    1.36    0.13
   6   1  -4    1.56    0.12
  -6  -1   4    1.53    0.12
  -6  -1   4    1.73    0.16
  -6  -1   4    1.12    0.33
   5   1  -4   30.48    0.93
   5   1  -4   30.35    0.79
   5   1  -4   30.22    0.78
   5   1  -4   27.62    1.58
   5   1  -4   30.48    0.79
  -5  -1   4   30.22    1.57
  -5  -1   4   30.09    0.78
  -5  -1   4   31.19    0.79
  -5  -1   4   31.57    0.80
   4   1  -4   14.67    0.41
   4   1  -4   14.52    0.48
   4   1  -4   14.23    0.85
  -4  -1   4   14.79    0.41
  -4  -1   4   15.12    0.41
  -4  -1   4   14.22    0.40
   3   1  -4    8.17    0.24
   3   1  -4    7.78    0.29
   3   1  -4    7.99    0.24
  -3  -1   4    7.80    0.24
  -3  -1   4    8.39    0.24
  -3  -1   4    8.85    0.25
   2   1  -4   19.80    0.51
   2   1  -4   19.72    0.50
   2   1  -4   20.24    1.04
   2   1  -4   19.68    0.51
  -2  -1   4   18.77    0.51
  -2  -1   4   20.26    0.51
  -2  -1   4   20.01    1.02
  -2  -1   4   20.56    0.55
   1   1  -4   40.31    0.96
   1   1  -4   35.69    1.90
   1   1  -4   39.34    0.96
   1   1  -4   39.60    0.96
   1   1  -4   38.99    1.03
  -1  -1   4   37.95    0.96
  -1  -1   4   40.63    0.96
  -1  -1   4   39.27    1.89
  -1  -1   4   39.69    1.03
   0   1  -4   11.05    0.29
   0   1  -4   11.20    0.29
   0   1  -4   10.84    0.59
   0   1  -4   11.04    0.29
   0   1  -4   10.70    0.32
   0  -1   4   11.06    0.32
   0  -1   4   10.97    0.29
   0  -1   4   10.79    0.29
   0  -1   4   10.55    0.29
  -1   1  -4    1.91    0.08
  -1   1  -4    1.80    0.10
  -1   1  -4    1.88    0.09
  -1   1  -4    1.92    0.08
   1  -1   4    1.86    0.09
   1  -1   4    1.83    0.09
   1  -1   4    1.86    0.08
   1  -1   4    1.78    0.09
  -2   1  -4    2.29    0.12
  -2   1  -4    2.32    0.10
  -2   1  -4    2.32    0.11
  -2   1  -4    2.30    0.11
   2  -1   4    2.32    0.10
   2  -1   4    2.30    0.11
   2  -1   4    2.26    0.11
   2  -1   4    2.28    0.11
   2  -1   4    2.38    0.10
   2  -1   4    2.24    0.10
  -3   1  -4   19.71    0.54
  -3   1  -4   19.70    0.54
  -3   1  -4   20.76    0.55
  -3   1  -4   20.32    0.58
  -3   1  -4   20.85    0.54
   3  -1   4   20.29    0.54
   3  -1   4   20.33    0.54
   3  -1   4   20.50    0.54
   3  -1   4   20.61    0.57
   3  -1   4   21.31    0.54
   3  -1   4   19.69    0.54
  -4   1  -4    0.98    0.10
  -4   1  -4    0.99    0.09
  -4   1  -4    1.05    0.10
  -4   1  -4    1.00    0.09
   4  -1   4    0.95    0.09
   4  -1   4    0.97    0.09
   4  -1   4    1.02    0.10
   4  -1   4    1.16    0.10
   4  -1   4    1.08    0.11
  -5   1  -4   19.68    0.56
  -5   1  -4   20.90    0.57
  -5   1  -4   19.96    0.58
  -5   1  -4   19.71    0.56
   5  -1   4   20.25    0.56
   5  -1   4   18.07    0.56
   5  -1   4   20.63    0.57
   5  -1   4   20.19    0.56
   5  -1   4   19.84    0.56
  -6   1  -4    9.20    0.32
  -6   1  -4    9.19    0.34
  -6   1  -4    9.91    0.34
  -6   1  -4    9.54    0.33
   6  -1   4    9.85    0.33
   6  -1   4    9.74    0.35
   6  -1   4    9.67    0.33
   6  -1   4    9.64    0.33
  -7   1  -4    5.46    0.25
  -7   1  -4    5.21    0.24
  -7   1  -4    5.57    0.29
  -7   1  -4    5.24    0.26
   7  -1   4    5.70    0.26
   7  -1   4    5.52    0.25
   7  -1   4    5.71    0.25
   7  -1   4    5.63    0.31
  -8   1  -4    2.57    0.21
  -8   1  -4    2.87    0.24
  -8   1  -4    2.88    0.19
   8  -1   4    2.84    0.32
   8  -1   4    2.70    0.23
   8  -1   4    3.03    0.22
   8  -1   4    2.86    0.21
   8   0  -4    0.35    0.13
   8   0  -4    0.37    0.10
  -8   0   4    0.20    0.12
  -8   0   4    0.47    0.14
  -8   0   4    0.51    0.09
  -8   0   4    0.20    0.32
   7   0  -4    1.06    0.13
   7   0  -4    1.18    0.16
   7   0  -4    0.93    0.15
   7   0  -4    1.30    0.16
  -7   0   4    1.20    0.17
  -7   0   4    1.12    0.17
  -7   0   4    1.19    0.41
  -7   0   4    0.88    0.12
   6   0  -4    1.16    0.40
   6   0  -4    1.05    0.11
   6   0  -4    0.92    0.12
   6   0  -4    0.69    0.11
   6   0  -4    1.06    0.14
  -6   0   4    0.51    0.18
  -6   0   4    1.02    0.13
  -6   0   4    0.79    0.10
  -6   0   4    0.84    0.13
   5   0  -4   56.22    1.38
   5   0  -4   56.14    1.40
   5   0  -4   57.54    1.39
   5   0  -4   56.89    1.65
   5   0  -4   54.76    2.77
  -5   0   4   56.70    1.39
  -5   0   4   53.69    2.75
  -5   0   4   57.86    1.39
  -5   0   4   55.74    1.39
   4   0  -4    2.38    0.15
   4   0  -4    2.88    0.32
   4   0  -4    2.78    0.12
   4   0  -4    2.43    0.10
   4   0  -4    2.50    0.11
  -4   0   4    2.70    0.12
  -4   0   4    2.35    0.11
  -4   0   4    2.35    0.25
  -4   0   4    2.39    0.12
  -4   0   4    2.59    0.10
   3   0  -4  101.59    2.93
   3   0  -4  103.89    2.50
   3   0  -4  107.38    4.95
   3   0  -4  103.57    2.52
   3   0  -4  104.69    2.50
   3   0  -4  105.97    2.68
  -3   0   4  105.34    2.68
  -3   0   4  104.43    4.93
  -3   0   4  105.22    2.50
  -3   0   4   99.38    2.50
  -3   0   4  104.32    2.52
   2   0  -4    5.28    0.15
   2   0  -4    5.15    0.37
   2   0  -4    5.26    0.15
   2   0  -4    5.30    0.16
  -2   0   4    5.25    0.16
  -2   0   4    5.60    0.18
  -2   0   4    5.44    0.15
  -2   0   4    4.97    0.15
  -2   0   4    5.40    0.35
   1   0  -4    3.10    0.10
   1   0  -4    3.13    0.10
   1   0  -4    3.21    0.25
   1   0  -4    3.11    0.10
   1   0  -4    3.16    0.12
  -1   0   4    3.14    0.10
  -1   0   4    3.26    0.13
  -1   0   4    3.04    0.10
  -1   0   4    3.35    0.10
   0   0  -4   14.33    0.37
   0   0  -4   14.46    0.37
   0   0  -4   14.20    0.37
   0   0   4   14.31    0.41
   0   0   4   14.53    0.37
   0   0   4   14.64    0.37
   0   0   4   13.57    0.37
  -1   0  -4    1.74    0.08
  -1   0  -4    1.77    0.10
  -1   0  -4    1.84    0.08
  -1   0  -4    1.73    0.07
  -1   0  -4    1.79    0.08
   1   0   4    1.87    0.10
   1   0   4    1.68    0.08
   1   0   4    1.73    0.08
   1   0   4    1.95    0.09
   1   0   4    1.78    0.08
  -2   0  -4   10.56    0.30
  -2   0  -4   10.60    0.29
  -2   0  -4   10.46    0.33
  -2   0  -4    9.78    0.30
  -2   0  -4   10.14    0.30
   2   0   4   11.48    0.29
   2   0   4   10.78    0.30
   2   0   4   10.22    0.30
   2   0   4   10.59    0.30
   2   0   4   10.93    0.31
   2   0   4   10.90    0.33
  -3   0  -4   71.56    1.76
  -3   0  -4   71.43    1.78
  -3   0  -4   69.93    1.89
   3   0   4   73.33    1.78
   3   0   4   70.91    1.76
   3   0   4   69.86    1.78
   3   0   4   72.55    1.89
   3   0   4   74.25    1.80
   3   0   4   73.12    1.77
  -4   0  -4    4.33    0.18
  -4   0  -4    4.43    0.18
  -4   0  -4    4.39    0.18
   4   0   4    3.91    0.18
   4   0   4    4.43    0.18
   4   0   4    4.59    0.18
   4   0   4    4.40    0.18
   4   0   4    4.40    0.16
  -5   0  -4    0.34    0.07
  -5   0  -4    0.30    0.07
  -5   0  -4    0.70    0.11
  -5   0  -4    0.38    0.08
   5   0   4    0.30    0.06
   5   0   4    0.51    0.09
   5   0   4    0.57    0.09
   5   0   4    0.45    0.08
   5   0   4    0.48    0.10
  -6   0  -4    1.38    0.15
  -6   0  -4    1.52    0.17
  -6   0  -4    1.49    0.14
  -6   0  -4    1.51    0.13
   6   0   4    1.76    0.15
   6   0   4    1.45    0.18
   6   0   4    1.49    0.13
   6   0   4    1.47    0.14
  -7   0  -4   15.57    0.54
  -7   0  -4   17.29    0.53
  -7   0  -4   17.03    0.54
  -7   0  -4   17.00    0.53
   7   0   4   17.22    0.53
   7   0   4   17.34    0.52
   7   0   4   17.34    0.56
   7   0   4   17.60    0.53
  -8   0  -4    1.19    0.21
  -8   0  -4    1.40    0.19
  -8   0  -4    0.86    0.18
   8   0   4    1.46    0.21
   8   0   4    1.54    0.20
   8   0   4    1.32    0.19
   8   0   4    1.63    0.20
   8  -1  -4    0.39    0.09
   8  -1  -4    0.46    0.12
  -8   1   4    0.30    0.31
  -8   1   4    0.47    0.13
  -8   1   4    0.43    0.09
  -8   1   4    0.33    0.10
   7  -1  -4    3.01    0.18
   7  -1  -4    3.35    0.22
   7  -1  -4    3.31    0.19
   7  -1  -4    2.89    0.18
  -7   1   4    2.90    0.17
  -7   1   4    3.29    0.19
  -7   1   4    3.13    0.16
  -7   1   4    2.53    0.44
   6  -1  -4    4.06    0.22
   6  -1  -4    3.72    0.16
   6  -1  -4    3.91    0.16
   6  -1  -4    4.20    0.48
   6  -1  -4    4.06    0.18
  -6   1   4    3.79    0.16
  -6   1   4    3.45    0.17
  -6   1   4    4.00    0.40
  -6   1   4    4.19    0.18
   5  -1  -4    0.22    0.05
   5  -1  -4    0.16    0.06
   5  -1  -4    0.26    0.05
   5  -1  -4    0.43    0.23
   5  -1  -4    0.15    0.05
  -5   1   4    0.19    0.04
  -5   1   4    0.24    0.06
  -5   1   4    0.17    0.05
  -5   1   4    0.23    0.13
   4  -1  -4    7.56    0.29
   4  -1  -4    7.48    0.22
   4  -1  -4    7.67    0.21
   4  -1  -4    7.73    0.52
   4  -1  -4    7.56    0.22
   4  -1  -4    7.83    0.22
  -4   1   4    7.58    0.22
  -4   1   4    7.07    0.22
  -4   1   4    7.46    0.47
  -4   1   4    7.79    0.22
   3  -1  -4   80.06    3.72
   3  -1  -4   77.18    1.86
   3  -1  -4   75.94    2.20
   3  -1  -4   79.14    1.88
   3  -1  -4   80.18    1.87
  -3   1   4   81.53    1.87
  -3   1   4   75.41    1.87
  -3   1   4   74.08    1.87
  -3   1   4   76.18    3.70
   2  -1  -4    0.04    0.03
   2  -1  -4    0.03    0.02
   2  -1  -4    0.04    0.02
   2  -1  -4    0.02    0.02
   2  -1  -4    0.04    0.08
  -2   1   4   -0.02    0.03
  -2   1   4    0.05    0.02
   1  -1  -4  604.52   15.28
   1  -1  -4  572.55   27.79
   1  -1  -4  625.54   14.15
   1  -1  -4  587.27   14.15
   1  -1  -4  602.68   14.26
  -1   1   4  599.89   15.22
  -1   1   4  588.47   14.23
  -1   1   4  568.27   14.15
   0  -1  -4    0.23    0.04
   0  -1  -4    0.14    0.03
   0  -1  -4    0.11    0.03
   0  -1  -4    0.15    0.04
   0   1   4    0.31    0.05
   0   1   4    0.23    0.04
   0   1   4    0.22    0.04
   0   1   4    0.27    0.05
   0   1   4    0.17    0.03
  -1  -1  -4   36.34    1.02
  -1  -1  -4   37.89    0.94
  -1  -1  -4   38.55    0.94
  -1  -1  -4   37.60    0.94
  -1  -1  -4   37.63    0.94
   1   1   4   37.47    1.02
   1   1   4   38.98    0.94
   1   1   4   39.13    0.94
   1   1   4   37.45    0.94
  -2  -1  -4   47.92    1.28
  -2  -1  -4   48.05    1.20
  -2  -1  -4   47.16    1.19
   2   1   4   48.89    1.20
   2   1   4   45.77    1.19
   2   1   4   49.58    1.20
   2   1   4   48.68    1.19
  -3  -1  -4    2.48    0.13
  -3  -1  -4    2.32    0.12
  -3  -1  -4    2.49    0.13
  -3  -1  -4    2.28    0.13
   3   1   4    2.75    0.13
   3   1   4    2.51    0.13
   3   1   4    2.34    0.12
   3   1   4    2.50    0.10
   3   1   4    2.50    0.12
  -4  -1  -4    0.09    0.05
  -4  -1  -4    0.09    0.05
  -4  -1  -4    0.10    0.05
  -4  -1  -4    0.02    0.07
   4   1   4    0.14    0.07
   4   1   4    0.16    0.04
   4   1   4    0.15    0.05
   4   1   4    0.09    0.04
   4   1   4    0.06    0.06
  -5  -1  -4   13.37    0.42
  -5  -1  -4   13.42    0.43
  -5  -1  -4   13.67    0.41
  -5  -1  -4   13.56    0.47
   5   1   4   13.31    0.39
   5   1   4   13.84    0.42
   5   1   4   13.80    0.42
   5   1   4   13.46    0.42
   5   1   4   13.21    0.41
  -6  -1  -4    3.41    0.20
  -6  -1  -4    3.07    0.21
  -6  -1  -4    3.64    0.19
  -6  -1  -4    3.68    0.20
  -6  -1  -4    3.38    0.23
   6   1   4    3.59    0.22
   6   1   4    3.70    0.24
   6   1   4    3.56    0.17
   6   1   4    3.61    0.20
   6   1   4    3.39    0.19
  -7  -1  -4    0.72    0.15
  -7  -1  -4    1.11    0.18
  -7  -1  -4    0.99    0.17
   7   1   4    0.77    0.12
   7   1   4    0.95    0.18
   7   1   4    0.96    0.15
   7   1   4    0.74    0.16
  -8  -1  -4    0.54    0.13
  -8  -1  -4    0.67    0.12
  -8  -1  -4    0.34    0.11
   8   1   4    0.63    0.21
   8   1   4    0.57    0.13
   8   1   4    0.54    0.13
   8   1   4    0.63    0.11
   8  -2  -4   10.54    0.36
   8  -2  -4   10.12    0.33
   8  -2  -4   10.25    0.43
   8  -2  -4    9.46    0.35
  -8   2   4    9.00    0.32
  -8   2   4    9.45    0.80
  -8   2   4   10.38    0.36
  -8   2   4   10.47    0.33
   7  -2  -4    0.09    0.07
   7  -2  -4    0.02    0.08
   7  -2  -4    0.05    0.08
   7  -2  -4    0.04    0.07
  -7   2   4    0.15    0.06
  -7   2   4    0.09    0.08
  -7   2   4    0.11    0.21
  -7   2   4    0.09    0.07
   6  -2  -4    0.38    0.08
   6  -2  -4    0.38    0.06
   6  -2  -4    0.12    0.26
   6  -2  -4    0.41    0.06
   6  -2  -4    0.26    0.09
  -6   2   4    0.57    0.10
  -6   2   4    0.60    0.19
  -6   2   4    0.46    0.08
  -6   2   4    0.43    0.08
   5  -2  -4   26.60    0.83
   5  -2  -4   26.80    0.66
   5  -2  -4   29.19    1.42
   5  -2  -4   26.80    0.68
   5  -2  -4   26.90    0.67
  -5   2   4   26.56    1.37
  -5   2   4   26.98    0.68
  -5   2   4   27.39    0.68
  -5   2   4   23.26    0.66
   4  -2  -4    1.49    0.12
   4  -2  -4    1.54    0.06
   4  -2  -4    1.86    0.30
   4  -2  -4    1.54    0.06
   4  -2  -4    1.62    0.09
  -4   2   4    1.20    0.24
  -4   2   4    1.51    0.07
   3  -2  -4   16.56    0.52
   3  -2  -4   17.04    0.88
   3  -2  -4   16.11    0.42
   3  -2  -4   16.83    0.46
  -3   2   4   16.58    0.41
  -3   2   4   16.38    0.41
   2  -2  -4   63.89    3.05
   2  -2  -4   63.55    1.67
   1  -2  -4   35.60    0.97
   1  -2  -4   35.96    0.87
   1  -2  -4   37.36    0.87
   1  -2  -4   37.12    0.88
  -1   2   4   35.15    0.88
   0  -2  -4    9.48    0.25
   0  -2  -4    9.47    0.25
   0  -2  -4    9.44    0.30
   0  -2  -4    9.35    0.26
   0  -2  -4    9.88    0.26
   0   2   4    9.25    0.25
   0   2   4    9.44    0.25
   0   2   4    9.33    0.25
  -1  -2  -4  210.63    4.93
  -1  -2  -4  206.42    4.92
  -1  -2  -4  201.97    5.30
   1   2   4  207.45    4.93
   1   2   4  202.70    4.93
   1   2   4  207.21    4.96
  -2  -2  -4    0.15    0.05
  -2  -2  -4    0.13    0.04
  -2  -2  -4    0.02    0.05
   2   2   4    0.14    0.04
   2   2   4    0.11    0.04
   2   2   4    0.13    0.04
  -3  -2  -4   33.98    0.94
  -3  -2  -4   33.44    0.87
  -3  -2  -4   32.70    1.00
   3   2   4   32.93    0.87
   3   2   4   35.50    0.86
   3   2   4   34.60    0.88
   3   2   4   34.93    0.88
  -4  -2  -4    5.47    0.23
  -4  -2  -4    4.90    0.20
  -4  -2  -4    5.18    0.22
   4   2   4    4.71    0.20
   4   2   4    5.47    0.21
   4   2   4    5.20    0.21
   4   2   4    5.45    0.22
   4   2   4    5.08    0.17
  -5  -2  -4    0.79    0.12
  -5  -2  -4    0.93    0.14
  -5  -2  -4    0.88    0.19
   5   2   4    0.91    0.12
   5   2   4    0.80    0.10
   5   2   4    1.03    0.15
   5   2   4    0.72    0.13
   5   2   4    0.92    0.12
  -6  -2  -4    0.97    0.15
  -6  -2  -4    0.81    0.15
  -6  -2  -4    0.91    0.15
  -6  -2  -4    1.41    0.22
   6   2   4    0.71    0.11
   6   2   4    0.89    0.14
   6   2   4    0.99    0.19
   6   2   4    0.96    0.14
   6   2   4    1.04    0.16
  -7  -2  -4    5.21    0.29
  -7  -2  -4    5.28    0.27
  -7  -2  -4    5.27    0.26
   7   2   4    4.95    0.32
   7   2   4    5.38    0.28
   7   2   4    5.13    0.27
   7   2   4    5.42    0.24
   8  -3  -4    2.29    0.23
   8  -3  -4    1.82    0.14
   8  -3  -4    1.77    0.15
   8  -3  -4    1.36    0.18
  -8   3   4    2.04    0.19
  -8   3   4    1.98    0.57
  -8   3   4    1.86    0.15
   7  -3  -4   -0.02    0.09
   7  -3  -4    0.01    0.06
   7  -3  -4    0.07    0.06
   7  -3  -4    0.06    0.05
  -7   3   4    0.08    0.08
  -7   3   4    0.05    0.06
  -7   3   4    0.04    0.21
   6  -3  -4   32.97    1.98
   6  -3  -4   38.94    0.96
   6  -3  -4   41.10    1.21
   6  -3  -4   40.11    0.96
   6  -3  -4   39.50    0.99
   6  -3  -4   40.36    0.99
  -6   3   4   40.77    0.99
  -6   3   4   40.54    0.98
   5  -3  -4    1.38    0.08
   5  -3  -4    1.32    0.35
   5  -3  -4    1.19    0.13
   5  -3  -4    1.45    0.09
  -5   3   4    1.40    0.08
  -5   3   4    1.45    0.08
   4  -3  -4    5.63    0.24
   4  -3  -4    5.64    0.19
   4  -3  -4    5.48    0.16
   4  -3  -4    6.13    0.44
  -4   3   4    5.61    0.15
   3  -3  -4    8.63    0.51
   3  -3  -4    8.69    0.30
   3  -3  -4    8.52    0.27
   2  -3  -4    2.03    0.10
   2  -3  -4    2.03    0.22
   2  -3  -4    2.04    0.11
   1  -3  -4   33.19    0.92
   1  -3  -4   33.85    0.86
  -1   3   4   33.31    0.82
  -1   3   4   34.28    0.82
   0  -3  -4   19.38    0.50
   0  -3  -4   19.49    0.49
   0  -3  -4   18.76    0.56
   0  -3  -4   19.61    0.49
   0   3   4   19.44    0.50
   0   3   4   18.96    0.49
   0   3   4   20.51    0.49
   0   3   4   19.90    0.49
  -1  -3  -4    1.61    0.09
  -1  -3  -4    1.60    0.11
  -1  -3  -4    1.40    0.08
  -1  -3  -4    1.59    0.10
   1   3   4    1.64    0.09
   1   3   4    1.62    0.08
   1   3   4    1.56    0.09
  -2  -3  -4   11.50    0.33
  -2  -3  -4   11.58    0.37
  -2  -3  -4   11.23    0.36
  -2  -3  -4   11.38    0.32
   2   3   4   11.02    0.33
   2   3   4   10.14    0.32
   2   3   4   11.71    0.33
  -3  -3  -4   70.21    1.73
  -3  -3  -4   67.71    1.71
  -3  -3  -4   66.04    1.97
  -3  -3  -4   68.66    1.84
   3   3   4   70.91    1.72
   3   3   4   67.72    1.71
   3   3   4   72.40    1.72
  -4  -3  -4    1.03    0.14
  -4  -3  -4    1.22    0.13
  -4  -3  -4    1.14    0.14
  -4  -3  -4    0.99    0.12
   4   3   4    1.26    0.11
   4   3   4    1.06    0.13
   4   3   4    1.30    0.15
   4   3   4    1.09    0.08
   4   3   4    1.10    0.12
  -5  -3  -4    6.95    0.28
  -5  -3  -4    6.89    0.28
  -5  -3  -4    6.96    0.32
  -5  -3  -4    6.52    0.27
   5   3   4    6.73    0.27
   5   3   4    6.56    0.22
   5   3   4    6.80    0.28
   5   3   4    7.21    0.30
   5   3   4    6.57    0.26
  -6  -3  -4    5.88    0.34
  -6  -3  -4    6.58    0.28
  -6  -3  -4    6.31    0.28
   6   3   4    6.54    0.28
   6   3   4    5.93    0.32
   6   3   4    6.29    0.28
   6   3   4    6.53    0.24
   6   3   4    5.65    0.32
  -7  -3  -4   -0.04    0.11
  -7  -3  -4   -0.01    0.09
  -7  -3  -4    0.03    0.11
   7   3   4   -0.03    0.10
   7   3   4    0.02    0.11
   7   3   4   -0.06    0.08
   8  -4  -4    3.36    0.28
   8  -4  -4    3.65    0.24
   8  -4  -4    3.37    0.17
   8  -4  -4    3.43    0.16
   8  -4  -4    2.80    0.16
   8  -4  -4    3.62    0.20
  -8   4   4    3.55    0.21
  -8   4   4    3.50    0.18
   7  -4  -4    0.49    0.09
   7  -4  -4    0.32    0.11
   7  -4  -4    0.49    0.08
   7  -4  -4    0.69    0.11
   7  -4  -4    0.47    0.35
  -7   4   4    0.50    0.10
   6  -4  -4    3.57    0.14
   6  -4  -4    3.47    0.14
   6  -4  -4    3.53    0.20
   6  -4  -4    3.61    0.22
   6  -4  -4    2.56    0.44
  -6   4   4    3.65    0.13
  -6   4   4    3.68    0.14
   5  -4  -4    0.43    0.06
   5  -4  -4    0.26    0.07
   5  -4  -4    0.31    0.05
   5  -4  -4    0.28    0.08
   5  -4  -4    0.24    0.04
   5  -4  -4    0.22    0.24
  -5   4   4    0.29    0.06
  -5   4   4    0.22    0.03
   4  -4  -4   55.16    1.44
   4  -4  -4   55.35    1.60
   4  -4  -4   54.90    1.46
   4  -4  -4   55.60    2.68
   3  -4  -4    1.09    0.19
   3  -4  -4    1.20    0.10
   3  -4  -4    1.00    0.10
   3  -4  -4    1.10    0.09
   2  -4  -4   48.83    1.32
   2  -4  -4   49.54    1.41
   2  -4  -4   50.18    1.26
   1  -4  -4   20.90    0.53
  -1   4   4   21.39    0.53
  -1   4   4   21.58    0.53
   0  -4  -4    0.74    0.06
   0  -4  -4    0.72    0.06
   0  -4  -4    0.68    0.07
   0   4   4    0.80    0.05
   0   4   4    0.73    0.06
   0   4   4    0.71    0.07
   0   4   4    0.72    0.05
  -1  -4  -4   23.69    0.61
  -1  -4  -4   23.57    0.62
  -1  -4  -4   23.61    0.61
   1   4   4   24.19    0.62
   1   4   4   24.39    0.61
   1   4   4   23.82    0.62
  -2  -4  -4   39.55    1.14
  -2  -4  -4   38.10    1.09
  -2  -4  -4   39.17    1.01
  -2  -4  -4   39.83    1.00
   2   4   4   39.50    1.00
   2   4   4   40.33    1.00
  -3  -4  -4    0.72    0.13
  -3  -4  -4    0.76    0.11
  -3  -4  -4    0.63    0.10
  -3  -4  -4    0.60    0.11
   3   4   4    0.73    0.10
   3   4   4    0.81    0.11
   3   4   4    0.60    0.10
  -4  -4  -4    4.92    0.23
  -4  -4  -4    5.30    0.25
  -4  -4  -4    4.89    0.22
  -4  -4  -4    5.07    0.23
   4   4   4    4.93    0.25
   4   4   4    5.11    0.22
  -5  -4  -4   17.81    0.55
  -5  -4  -4   17.69    0.53
  -5  -4  -4   17.40    0.60
  -5  -4  -4   17.52    0.53
   5   4   4   16.75    0.52
   5   4   4   16.90    0.47
   5   4   4   16.94    0.55
   5   4   4   17.22    0.52
   5   4   4   16.13    0.53
  -6  -4  -4    0.71    0.11
  -6  -4  -4    0.52    0.15
  -6  -4  -4    0.68    0.18
  -6  -4  -4    0.67    0.12
   6   4   4    0.96    0.18
   6   4   4    0.82    0.16
   6   4   4    0.84    0.13
   6   4   4    0.77    0.18
  -7  -4  -4    3.76    0.27
  -7  -4  -4    3.79    0.28
   7   4   4    4.23    0.26
   7   4   4    4.21    0.22
   7   4   4    3.92    0.28
   7  -5  -4    2.34    0.14
   7  -5  -4    2.69    0.23
   7  -5  -4    2.41    0.12
   7  -5  -4    2.52    0.21
  -7   5   4    2.43    0.12
  -7   5   4    2.64    0.14
   6  -5  -4   14.53    0.47
   6  -5  -4   14.31    0.41
   6  -5  -4   13.99    0.51
   6  -5  -4   14.32    0.38
   6  -5  -4   14.05    0.38
  -6   5   4   14.03    0.36
   5  -5  -4    0.28    0.05
   5  -5  -4    0.25    0.08
   5  -5  -4    0.31    0.09
   5  -5  -4    0.19    0.21
   4  -5  -4    0.20    0.05
   4  -5  -4    0.13    0.14
   4  -5  -4    0.10    0.06
   4  -5  -4    0.18    0.06
   3  -5  -4    0.35    0.12
   3  -5  -4    0.51    0.09
   3  -5  -4    0.42    0.07
   2  -5  -4  107.59    3.02
   2  -5  -4  108.35    2.70
   1  -5  -4    2.10    0.10
   1  -5  -4    2.20    0.10
  -1   5   4    2.32    0.09
   0  -5  -4   62.97    1.57
   0  -5  -4   63.30    1.55
   0   5   4   64.42    1.56
   0   5   4   64.02    1.56
   0   5   4   64.62    1.56
   0   5   4   64.85    1.56
  -1  -5  -4   11.36    0.34
  -1  -5  -4   11.69    0.33
  -1  -5  -4   11.35    0.37
  -1  -5  -4   11.53    0.33
   1   5   4   11.69    0.33
   1   5   4   11.91    0.34
   1   5   4   11.44    0.34
  -2  -5  -4    7.49    0.25
  -2  -5  -4    7.33    0.27
  -2  -5  -4    7.35    0.25
  -2  -5  -4    7.20    0.25
   2   5   4    7.31    0.25
   2   5   4    7.38    0.26
   2   5   4    7.22    0.25
  -3  -5  -4   17.33    0.50
  -3  -5  -4   16.80    0.54
  -3  -5  -4   16.52    0.49
  -3  -5  -4   17.07    0.55
   3   5   4   17.20    0.50
   3   5   4   17.44    0.51
   3   5   4   17.36    0.50
  -4  -5  -4    0.22    0.11
  -4  -5  -4    0.21    0.07
  -4  -5  -4    0.08    0.07
  -4  -5  -4    0.08    0.09
   4   5   4    0.21    0.11
   4   5   4    0.13    0.06
   4   5   4    0.14    0.09
  -5  -5  -4    0.38    0.15
  -5  -5  -4    0.28    0.11
  -5  -5  -4    0.41    0.10
  -5  -5  -4    0.31    0.09
   5   5   4    0.26    0.08
   5   5   4    0.40    0.10
   5   5   4    0.18    0.15
  -6  -5  -4    1.67    0.33
  -6  -5  -4    1.97    0.22
  -6  -5  -4    1.74    0.23
  -6  -5  -4    1.45    0.22
   6   5   4    2.10    0.23
   6   5   4    1.72    0.15
   6   5   4    1.98    0.19
   7  -6  -4    8.23    0.25
   7  -6  -4    8.69    0.36
   7  -6  -4    7.20    0.24
   7  -6  -4    8.79    0.38
   6  -6  -4    0.31    0.11
   6  -6  -4    0.28    0.06
   6  -6  -4    0.34    0.10
   6  -6  -4    0.02    0.30
   5  -6  -4    7.95    0.27
   5  -6  -4    6.13    0.55
   5  -6  -4    7.74    0.30
   5  -6  -4    7.72    0.31
   4  -6  -4   10.62    0.35
   4  -6  -4   10.61    0.35
   4  -6  -4   10.25    0.37
   4  -6  -4   10.71    0.64
   3  -6  -4    0.29    0.06
   3  -6  -4    0.21    0.06
   3  -6  -4    0.22    0.13
   2  -6  -4    1.84    0.11
   2  -6  -4    1.73    0.08
   2  -6  -4    1.73    0.11
  -2   6   4    1.63    0.07
   1  -6  -4    0.74    0.08
  -1   6   4    0.56    0.07
   0  -6  -4   14.52    0.40
   0  -6  -4   14.28    0.38
   0  -6  -4   14.20    0.39
   0   6   4   14.50    0.40
   0   6   4   14.25    0.38
   0   6   4   14.74    0.40
   0   6   4   14.22    0.38
  -1  -6  -4    5.93    0.21
  -1  -6  -4    5.58    0.21
  -1  -6  -4    5.70    0.21
  -1  -6  -4    5.87    0.21
   1   6   4    5.92    0.21
   1   6   4    5.81    0.22
   1   6   4    5.61    0.20
  -2  -6  -4   34.45    0.91
  -2  -6  -4   36.59    1.03
  -2  -6  -4   36.09    0.93
  -2  -6  -4   34.21    0.91
   2   6   4   34.90    0.92
   2   6   4   34.86    0.92
   2   6   4   36.06    0.92
  -3  -6  -4    0.04    0.09
  -3  -6  -4    0.10    0.08
  -3  -6  -4   -0.12    0.07
  -3  -6  -4    0.06    0.08
   3   6   4   -0.06    0.10
   3   6   4    0.06    0.07
   3   6   4    0.06    0.08
  -4  -6  -4    4.34    0.26
  -4  -6  -4    3.52    0.23
  -4  -6  -4    3.81    0.22
  -4  -6  -4    4.14    0.22
   4   6   4    3.92    0.23
   4   6   4    3.63    0.21
   4   6   4    3.37    0.28
  -5  -6  -4    4.17    0.26
  -5  -6  -4    4.51    0.27
  -5  -6  -4    4.31    0.32
  -5  -6  -4    4.14    0.25
   5   6   4    4.03    0.24
   5   6   4    4.21    0.26
   5   6   4    3.75    0.18
   5   6   4    3.84    0.36
   6  -7  -4    9.21    0.38
   6  -7  -4    8.85    0.36
   6  -7  -4    8.69    0.31
   5  -7  -4    5.45    0.26
   5  -7  -4    5.28    0.24
   5  -7  -4    5.73    0.26
   4  -7  -4    3.76    0.19
   4  -7  -4    3.40    0.19
   4  -7  -4    3.68    0.37
   3  -7  -4    7.78    0.28
   3  -7  -4    8.06    0.29
   3  -7  -4    8.17    0.54
   2  -7  -4    4.25    0.16
   2  -7  -4    3.87    0.14
   2  -7  -4    4.19    0.17
  -2   7   4    4.05    0.13
  -2   7   4    4.08    0.13
   1  -7  -4    3.86    0.12
   1  -7  -4    3.78    0.15
   1  -7  -4    3.91    0.15
  -1   7   4    3.95    0.15
   0  -7  -4    0.46    0.07
   0  -7  -4    0.49    0.10
   0  -7  -4    0.42    0.07
   0   7   4    0.42    0.06
   0   7   4    0.33    0.06
   0   7   4    0.31    0.07
   0   7   4    0.32    0.06
  -1  -7  -4    1.11    0.13
  -1  -7  -4    1.11    0.13
  -1  -7  -4    1.07    0.12
   1   7   4    1.15    0.15
   1   7   4    1.17    0.12
   1   7   4    1.11    0.12
  -2  -7  -4    7.79    0.27
  -2  -7  -4    6.97    0.28
  -2  -7  -4    7.58    0.28
   2   7   4    7.49    0.28
   2   7   4    7.41    0.31
   2   7   4    7.67    0.28
  -3  -7  -4    2.87    0.19
  -3  -7  -4    2.94    0.20
  -3  -7  -4    2.83    0.19
   3   7   4    3.06    0.27
   3   7   4    2.62    0.18
  -4  -7  -4    7.36    0.34
  -4  -7  -4    7.28    0.31
  -4  -7  -4    7.35    0.31
  -4  -7  -4    7.21    0.34
   4   7   4    7.13    0.33
   4   7   4    7.47    0.30
   4   7   4    6.92    0.40
   5  -8  -4    1.06    0.18
   5  -8  -4    1.21    0.17
   5  -8  -4    1.36    0.18
   4  -8  -4    3.61    0.20
   4  -8  -4    3.79    0.21
   4  -8  -4    3.29    0.39
   3  -8  -4    6.70    0.26
   3  -8  -4    6.52    0.52
   3  -8  -4    6.81    0.24
   2  -8  -4    1.25    0.10
   2  -8  -4    1.52    0.13
  -2   8   4    1.31    0.09
  -2   8   4    1.27    0.10
   1  -8  -4    4.36    0.18
   1  -8  -4    4.59    0.15
   1  -8  -4    4.54    0.15
  -1   8   4    4.61    0.18
   0  -8  -4    1.00    0.12
   0  -8  -4    1.01    0.13
   0  -8  -4    0.76    0.11
   0   8   4    0.76    0.14
   0   8   4    0.83    0.10
   0   8   4    0.81    0.12
   0   8   4    0.66    0.11
  -1  -8  -4    1.15    0.13
  -1  -8  -4    1.12    0.16
  -1  -8  -4    0.91    0.17
   1   8   4    1.25    0.15
   1   8   4    1.19    0.18
   1   8   4    1.12    0.14
  -2  -8  -4    1.11    0.16
  -2  -8  -4    1.06    0.14
   2   8   4    0.76    0.15
   2   8   4    1.01    0.15
   2   8   4    0.92    0.17
  -3  -8  -4    0.07    0.10
  -3  -8  -4    0.02    0.10
   3   8   4   -0.02    0.12
   3   8   4    0.00    0.09
   3   8   4    0.09    0.16
   3  -9  -4    2.06    0.18
   3  -9  -4    2.29    0.40
   2  -9  -4    2.58    0.17
   2  -9  -4    1.96    0.13
  -2   9   4    2.16    0.13
  -2   9   4    2.36    0.14
  -1   9   4    0.01    0.09
  -1   9   4    0.09    0.07
   0  -9  -4    1.89    0.16
   0  -9  -4    1.94    0.16
   0  -9  -4    1.84    0.18
   0   9   4    1.78    0.14
   0   9   4    1.81    0.16
   0   9   4    1.95    0.19
  -1  -9  -4    3.52    0.23
  -1  -9  -4    3.51    0.20
   1   9   4    3.55    0.25
   1   9   4    3.37    0.21
   1   9   4    3.62    0.22
   0 -11   5    0.86    0.42
  -1  11  -5    3.66    0.37
   1 -11   5    2.72    0.63
   1 -11   5    3.66    0.23
   2  10  -5    0.79    0.11
   2  10  -5    1.03    0.17
  -2 -10   5    0.73    0.14
  -2 -10   5    1.08    0.20
   1  10  -5    4.99    0.25
   1  10  -5    5.20    0.35
   1  10  -5    5.27    0.22
  -1 -10   5    5.21    0.27
  -1 -10   5    5.20    0.26
   0  10  -5    2.34    0.28
   0  10  -5    1.45    0.17
   0 -10   5    1.95    0.19
   0 -10   5    1.18    0.36
   0 -10   5    2.06    0.18
  -1  10  -5    0.22    0.14
  -1  10  -5    0.14    0.10
  -1  10  -5    0.06    0.08
   1 -10   5    0.09    0.26
   1 -10   5    0.21    0.09
   1 -10   5    0.27    0.09
  -2  10  -5    1.54    0.21
  -2  10  -5    1.53    0.16
  -2  10  -5    1.35    0.27
   2 -10   5    1.99    0.17
   2 -10   5    1.59    0.33
   2 -10   5    2.11    0.19
  -3  10  -5    4.33    0.23
  -3  10  -5    4.19    0.27
  -3  10  -5    4.48    0.32
   3 -10   5    5.16    0.25
   3 -10   5    4.03    0.22
   3 -10   5    4.57    0.25
  -4  10  -5    0.08    0.15
  -4  10  -5    0.10    0.08
  -4  10  -5   -0.15    0.16
   4 -10   5   -0.01    0.09
   4 -10   5    0.18    0.11
   4   9  -5    3.37    0.25
   4   9  -5    3.54    0.23
  -4  -9   5    3.17    0.26
  -4  -9   5    3.67    0.27
   3   9  -5    0.27    0.10
   3   9  -5    0.18    0.09
  -3  -9   5    0.28    0.11
  -3  -9   5    0.28    0.11
   2   9  -5   23.74    0.69
   2   9  -5   23.73    0.73
   2   9  -5   25.11    0.75
   2   9  -5   23.21    0.71
  -2  -9   5   24.32    0.70
  -2  -9   5   24.13    0.70
   1   9  -5    4.85    0.21
   1   9  -5    5.27    0.23
   1   9  -5    4.60    0.28
   1   9  -5    4.50    0.26
  -1  -9   5    4.70    0.24
  -1  -9   5    4.87    0.24
   0   9  -5    3.73    0.23
   0   9  -5    3.66    0.25
   0   9  -5    4.11    0.20
   0  -9   5    3.95    0.21
   0  -9   5    4.03    0.21
   0  -9   5    3.49    0.51
  -1   9  -5    8.51    0.34
  -1   9  -5    8.42    0.32
  -1   9  -5    8.53    0.31
   1  -9   5    8.63    0.31
   1  -9   5    8.19    0.61
   1  -9   5    8.93    0.32
  -2   9  -5    1.58    0.14
  -2   9  -5    1.50    0.18
  -2   9  -5    1.48    0.21
   2  -9   5    1.50    0.14
   2  -9   5    1.52    0.27
   2  -9   5    1.71    0.16
  -3   9  -5    0.13    0.07
  -3   9  -5   -0.06    0.11
  -3   9  -5    0.09    0.11
   3  -9   5    0.04    0.08
   3  -9   5    0.17    0.08
   3  -9   5    0.18    0.07
  -4   9  -5    0.79    0.16
  -4   9  -5    0.81    0.15
  -4   9  -5    1.01    0.14
   4  -9   5    0.85    0.12
   4  -9   5    0.95    0.14
  -5   9  -5    0.63    0.18
  -5   9  -5    0.67    0.17
  -5   9  -5    0.98    0.16
   5  -9   5    0.71    0.13
   5  -9   5    0.96    0.16
   5  -9   5    0.71    0.11
   5   8  -5   -0.11    0.11
   5   8  -5    0.08    0.10
  -5  -8   5   -0.03    0.10
  -5  -8   5   -0.21    0.13
   4   8  -5    1.19    0.18
   4   8  -5    0.70    0.14
   4   8  -5    0.83    0.17
  -4  -8   5    1.28    0.21
  -4  -8   5    0.99    0.18
   3   8  -5    0.05    0.10
   3   8  -5    0.01    0.13
   3   8  -5    0.06    0.07
   3   8  -5    0.12    0.08
   3   8  -5    0.16    0.11
  -3  -8   5    0.07    0.09
  -3  -8   5   -0.50    0.54
  -3  -8   5    0.23    0.08
   2   8  -5    7.50    0.29
   2   8  -5    7.80    0.32
   2   8  -5    7.79    0.29
   2   8  -5    7.89    0.30
   2   8  -5    7.92    0.33
  -2  -8   5    8.20    0.31
  -2  -8   5    8.12    0.31
   1   8  -5    0.30    0.09
   1   8  -5    0.11    0.07
   1   8  -5    0.23    0.09
  -1  -8   5    0.25    0.08
  -1  -8   5    0.24    0.08
  -1  -8   5    0.06    0.37
   0   8  -5   57.05    1.44
   0   8  -5   55.62    1.44
   0   8  -5   55.41    1.43
   0  -8   5   56.63    2.77
   0  -8   5   56.55    1.45
   0  -8   5   56.86    1.43
  -1   8  -5    0.34    0.07
  -1   8  -5    0.39    0.09
  -1   8  -5    0.29    0.08
   1  -8   5    0.37    0.08
   1  -8   5    0.73    0.12
   1  -8   5    0.24    0.16
  -2   8  -5   12.72    0.44
  -2   8  -5   12.23    0.39
  -2   8  -5   13.05    0.41
   2  -8   5   12.60    0.40
   2  -8   5   12.70    0.40
   2  -8   5   12.86    0.69
  -3   8  -5   13.36    0.42
  -3   8  -5   14.37    0.45
  -3   8  -5   13.85    0.48
   3  -8   5   14.07    0.43
   3  -8   5   13.61    0.45
   3  -8   5   13.84    0.43
  -4   8  -5    0.12    0.10
  -4   8  -5    0.32    0.12
  -4   8  -5    0.27    0.08
   4  -8   5    0.16    0.11
   4  -8   5    0.27    0.08
   4  -8   5    0.15    0.08
   4  -8   5    0.34    0.08
  -5   8  -5    3.52    0.27
  -5   8  -5    3.39    0.28
  -5   8  -5    3.81    0.20
   5  -8   5    3.95    0.21
   5  -8   5    3.84    0.25
   5  -8   5    3.62    0.21
   5  -8   5    4.49    0.30
   5  -8   5    3.56    0.22
  -6   8  -5    0.51    0.17
  -6   8  -5    0.44    0.10
  -6   8  -5    0.69    0.20
   6  -8   5    0.53    0.10
   6  -8   5    0.65    0.16
   6  -8   5    0.60    0.12
   6  -8   5    0.62    0.15
   6   7  -5    0.04    0.11
   6   7  -5    0.04    0.19
   6   7  -5    0.06    0.11
  -6  -7   5    0.12    0.11
  -6  -7   5    0.10    0.13
   5   7  -5    2.84    0.22
   5   7  -5    2.36    0.21
   5   7  -5    2.62    0.28
  -5  -7   5    2.44    0.20
  -5  -7   5    2.36    0.23
   4   7  -5    0.64    0.15
   4   7  -5    1.09    0.15
   4   7  -5    1.35    0.16
  -4  -7   5    1.05    0.21
  -4  -7   5    0.91    0.16
  -4  -7   5    1.19    0.18
   3   7  -5    2.40    0.20
   3   7  -5    2.22    0.16
   3   7  -5    2.31    0.19
   3   7  -5    2.27    0.16
  -3  -7   5    2.09    0.17
  -3  -7   5    2.02    0.16
  -3  -7   5    2.37    0.19
   2   7  -5    4.60    0.22
   2   7  -5    4.48    0.22
   2   7  -5    4.36    0.20
  -2  -7   5    4.31    0.20
  -2  -7   5    3.89    0.56
  -2  -7   5    4.46    0.21
   1   7  -5    0.70    0.14
   1   7  -5    0.48    0.08
   1   7  -5    0.43    0.08
  -1  -7   5    0.33    0.29
  -1  -7   5    0.42    0.08
  -1  -7   5    0.54    0.11
   0   7  -5    0.16    0.06
   0   7  -5   -0.04    0.06
   0   7  -5    0.02    0.07
   0  -7   5    0.11    0.06
   0  -7   5    0.02    0.15
   0  -7   5    0.13    0.06
  -1   7  -5    3.11    0.17
  -1   7  -5    2.89    0.15
  -1   7  -5    2.73    0.16
   1  -7   5    2.85    0.29
   1  -7   5    2.68    0.16
   1  -7   5    2.85    0.15
  -2   7  -5   73.16    1.86
  -2   7  -5   75.80    1.87
  -2   7  -5   74.77    1.87
   2  -7   5   76.28    1.87
   2  -7   5   75.06    1.88
   2  -7   5   75.10    1.94
  -3   7  -5    2.46    0.18
  -3   7  -5    2.31    0.14
  -3   7  -5    2.35    0.17
   3  -7   5    2.36    0.18
   3  -7   5    2.44    0.16
   3  -7   5    2.33    0.15
   3  -7   5    2.22    0.16
  -4   7  -5   22.05    0.63
  -4   7  -5   21.34    0.62
  -4   7  -5   22.21    0.72
   4  -7   5   22.62    0.66
   4  -7   5   22.13    0.67
   4  -7   5   21.86    0.62
   4  -7   5   22.05    0.63
  -5   7  -5    0.52    0.13
  -5   7  -5    0.60    0.12
  -5   7  -5    0.73    0.12
   5  -7   5    0.89    0.18
   5  -7   5    0.53    0.12
   5  -7   5    0.63    0.12
   5  -7   5    0.72    0.14
   5  -7   5    0.66    0.13
  -6   7  -5    0.00    0.14
  -6   7  -5   -0.08    0.14
  -6   7  -5    0.09    0.08
   6  -7   5    0.18    0.09
   6  -7   5    0.27    0.09
   6  -7   5    0.09    0.12
   6  -7   5    0.04    0.12
   6  -7   5    0.05    0.08
  -7   7  -5    1.07    0.20
  -7   7  -5    1.41    0.17
   7  -7   5    1.38    0.29
   7  -7   5    0.92    0.17
   7  -7   5    1.73    0.21
   7  -7   5    0.86    0.17
   6   6  -5    0.26    0.11
   6   6  -5    0.24    0.12
   6   6  -5    0.22    0.16
  -6  -6   5    0.28    0.10
  -6  -6   5    0.51    0.13
   5   6  -5    2.73    0.24
   5   6  -5    3.01    0.20
   5   6  -5    2.43    0.20
  -5  -6   5    2.87    0.25
  -5  -6   5    2.86    0.19
  -5  -6   5    2.58    0.21
   4   6  -5    6.15    0.28
   4   6  -5    6.04    0.25
   4   6  -5    5.83    0.27
  -4  -6   5    6.12    0.28
  -4  -6   5    5.99    0.26
  -4  -6   5    6.14    0.25
   3   6  -5    6.44    0.27
   3   6  -5    6.90    0.27
   3   6  -5    6.45    0.25
  -3  -6   5    6.85    0.27
  -3  -6   5    6.54    0.25
  -3  -6   5    6.54    0.26
   2   6  -5    0.63    0.12
   2   6  -5    0.34    0.06
   2   6  -5    0.37    0.07
  -2  -6   5    0.37    0.08
  -2  -6   5    0.38    0.06
  -2  -6   5    0.37    0.07
  -2  -6   5    0.28    0.25
   1   6  -5   14.74    0.42
   1   6  -5   14.96    0.42
   1   6  -5   14.78    0.42
  -1  -6   5   14.45    0.42
  -1  -6   5   13.13    0.82
  -1  -6   5   13.60    0.42
   0   6  -5    8.93    0.29
   0   6  -5    9.34    0.29
   0   6  -5    9.19    0.29
   0  -6   5    7.96    0.55
   0  -6   5    8.97    0.29
   0  -6   5    8.56    0.28
  -1   6  -5    4.12    0.17
  -1   6  -5    4.14    0.18
  -1   6  -5    3.95    0.17
   1  -6   5    4.09    0.30
   1  -6   5    3.86    0.17
   1  -6   5    4.03    0.17
  -2   6  -5    0.08    0.06
  -2   6  -5    0.09    0.05
  -2   6  -5    0.19    0.17
  -2   6  -5    0.06    0.05
   2  -6   5    0.06    0.05
   2  -6   5    0.13    0.05
   2  -6   5    0.06    0.05
  -3   6  -5    0.15    0.06
  -3   6  -5    0.16    0.05
  -3   6  -5    0.25    0.08
  -3   6  -5    0.16    0.07
   3  -6   5    0.25    0.07
   3  -6   5    0.22    0.06
   3  -6   5    0.17    0.06
   3  -6   5    0.27    0.07
  -4   6  -5   32.41    0.85
  -4   6  -5   32.32    0.97
  -4   6  -5   31.40    0.84
  -4   6  -5   30.27    0.86
   4  -6   5   31.55    0.88
   4  -6   5   30.94    0.84
   4  -6   5   32.80    0.91
   4  -6   5   31.84    0.85
  -5   6  -5    6.48    0.25
  -5   6  -5    6.56    0.28
  -5   6  -5    6.79    0.33
   5  -6   5    6.62    0.29
   5  -6   5    6.76    0.26
   5  -6   5    6.66    0.28
   5  -6   5    6.62    0.28
   5  -6   5    6.76    0.26
  -6   6  -5   14.25    0.45
  -6   6  -5   13.65    0.54
  -6   6  -5   14.33    0.49
   6  -6   5   14.85    0.48
   6  -6   5   14.28    0.48
   6  -6   5   14.66    0.49
   6  -6   5   14.58    0.46
   6  -6   5   14.85    0.46
  -7   6  -5    0.09    0.15
  -7   6  -5    0.07    0.08
   7  -6   5    0.22    0.09
   7  -6   5    0.03    0.10
   7  -6   5   -0.04    0.12
   7  -6   5    0.26    0.15
   7  -6   5   -0.02    0.09
   7   5  -5    2.24    0.33
   7   5  -5    2.55    0.24
   7   5  -5    2.21    0.22
  -7  -5   5    2.29    0.25
   6   5  -5    0.17    0.09
   6   5  -5    0.19    0.09
   6   5  -5    0.25    0.14
  -6  -5   5    0.12    0.07
  -6  -5   5    0.30    0.15
  -6  -5   5    0.26    0.11
   5   5  -5    4.86    0.26
   5   5  -5    4.65    0.26
   5   5  -5    5.54    0.24
  -5  -5   5    5.03    0.26
  -5  -5   5    5.31    0.23
  -5  -5   5    5.15    0.24
   4   5  -5    0.22    0.08
   4   5  -5    0.09    0.08
   4   5  -5    0.25    0.07
  -4  -5   5    0.17    0.06
  -4  -5   5    0.21    0.09
  -4  -5   5    0.15    0.08
   3   5  -5    1.28    0.13
   3   5  -5    1.13    0.11
   3   5  -5    1.26    0.12
  -3  -5   5    1.24    0.11
  -3  -5   5    1.71    0.14
  -3  -5   5    1.25    0.13
   2   5  -5    2.01    0.13
   2   5  -5    1.78    0.12
  -2  -5   5    2.05    0.31
  -2  -5   5    2.00    0.12
  -2  -5   5    1.94    0.12
  -2  -5   5    2.00    0.13
   1   5  -5    1.26    0.11
   1   5  -5    1.27    0.10
  -1  -5   5    1.39    0.22
  -1  -5   5    1.12    0.10
  -1  -5   5    1.37    0.10
  -1  -5   5    1.32    0.10
   0   5  -5    1.68    0.11
   0   5  -5    1.54    0.11
   0   5  -5    1.59    0.11
   0  -5   5    1.61    0.11
   0  -5   5    1.60    0.20
   0  -5   5    1.62    0.11
  -1   5  -5   16.03    0.45
  -1   5  -5   15.81    0.45
  -1   5  -5   15.64    0.45
   1  -5   5   16.24    0.45
   1  -5   5   16.12    0.45
   1  -5   5   16.99    0.84
  -2   5  -5   15.50    0.45
  -2   5  -5   16.21    0.45
  -2   5  -5   15.86    0.45
  -2   5  -5   16.56    0.85
   2  -5   5   15.72    0.45
   2  -5   5   16.31    0.45
   2  -5   5   15.40    0.46
  -3   5  -5    3.85    0.17
  -3   5  -5    3.65    0.17
  -3   5  -5    3.96    0.17
   3  -5   5    3.60    0.16
   3  -5   5    3.75    0.17
   3  -5   5    3.95    0.18
   3  -5   5    3.64    0.17
  -4   5  -5   17.79    0.51
  -4   5  -5   18.07    0.51
  -4   5  -5   18.27    0.59
  -4   5  -5   17.90    0.51
   4  -5   5   17.84    0.52
   4  -5   5   18.50    0.55
   4  -5   5   18.37    0.52
   4  -5   5   17.78    0.53
   4  -5   5   17.40    0.51
  -5   5  -5    0.20    0.08
  -5   5  -5    0.22    0.07
  -5   5  -5    0.21    0.09
  -5   5  -5    0.14    0.08
  -5   5  -5    0.29    0.07
   5  -5   5    0.10    0.08
   5  -5   5    0.15    0.07
   5  -5   5    0.25    0.08
   5  -5   5    0.30    0.08
   5  -5   5    0.27    0.07
  -6   5  -5   19.26    0.71
  -6   5  -5   21.55    0.63
  -6   5  -5   20.87    0.61
   6  -5   5   21.47    0.62
   6  -5   5   20.59    0.63
   6  -5   5   22.39    0.63
   6  -5   5   22.05    0.64
   6  -5   5   21.56    0.62
  -7   5  -5    4.48    0.32
  -7   5  -5    5.25    0.24
  -7   5  -5    5.10    0.51
   7  -5   5    5.47    0.28
   7  -5   5    5.01    0.32
   7  -5   5    4.99    0.26
   7  -5   5    4.58    0.24
   7  -5   5    5.05    0.26
  -8   5  -5    8.64    0.48
   8  -5   5    9.36    0.38
   8  -5   5    9.50    0.37
   8  -5   5    9.31    0.38
   8  -5   5    8.58    0.38
   7   4  -5   -0.04    0.11
   7   4  -5   -0.12    0.15
   7   4  -5   -0.10    0.10
  -7  -4   5   -0.11    0.09
  -7  -4   5   -0.02    0.10
  -7  -4   5    0.03    0.12
  -7  -4   5   -0.02    0.16
   6   4  -5    5.01    0.28
   6   4  -5    5.70    0.29
   6   4  -5    5.53    0.25
  -6  -4   5    4.99    0.24
  -6  -4   5    5.51    0.23
  -6  -4   5    5.64    0.26
  -6  -4   5    5.37    0.29
   5   4  -5    2.16    0.17
   5   4  -5    2.32    0.18
   5   4  -5    2.13    0.16
  -5  -4   5    1.93    0.16
  -5  -4   5    2.04    0.18
  -5  -4   5    1.83    0.14
   4   4  -5    6.51    0.24
   4   4  -5    6.73    0.25
   4   4  -5    6.18    0.27
   4   4  -5    5.31    0.57
  -4  -4   5    6.69    0.24
  -4  -4   5    6.49    0.24
  -4  -4   5    6.77    0.25
   3   4  -5    6.91    0.24
   3   4  -5    7.24    0.25
  -3  -4   5    6.55    0.24
  -3  -4   5    7.08    0.24
  -3  -4   5    7.38    0.25
   2   4  -5    2.06    0.12
   2   4  -5    2.10    0.12
  -2  -4   5    1.99    0.12
  -2  -4   5    2.27    0.12
  -2  -4   5    2.15    0.12
   1   4  -5    0.26    0.05
   1   4  -5   -0.02    0.16
   1   4  -5    0.36    0.06
  -1  -4   5    0.30    0.05
  -1  -4   5    0.38    0.07
  -1  -4   5    0.38    0.07
   0   4  -5   30.67    0.78
   0   4  -5   29.69    0.77
   0  -4   5   30.23    0.77
   0  -4   5   30.13    1.49
   0  -4   5   29.33    0.78
   0  -4   5   30.19    0.77
  -1   4  -5    5.92    0.20
  -1   4  -5    5.95    0.39
  -1   4  -5    5.74    0.20
  -1   4  -5    4.86    0.19
   1  -4   5    5.83    0.20
   1  -4   5    5.69    0.20
  -2   4  -5    0.98    0.09
  -2   4  -5    0.82    0.09
  -2   4  -5    0.75    0.16
  -2   4  -5    0.82    0.09
  -2   4  -5    0.86    0.08
   2  -4   5    0.89    0.09
   2  -4   5    0.84    0.09
   2  -4   5    0.73    0.08
  -3   4  -5   40.65    1.02
  -3   4  -5   39.01    1.92
  -3   4  -5   39.49    1.02
  -3   4  -5   40.06    1.05
  -3   4  -5   39.67    1.02
   3  -4   5   41.61    1.02
   3  -4   5   39.35    1.05
   3  -4   5   40.31    1.09
   3  -4   5   38.68    1.02
   3  -4   5   39.58    1.03
  -4   4  -5   14.22    0.41
  -4   4  -5   13.90    0.47
  -4   4  -5   13.52    0.42
  -4   4  -5   14.14    0.41
  -4   4  -5   13.28    0.40
   4  -4   5   14.04    0.42
   4  -4   5   14.00    0.41
   4  -4   5   13.99    0.43
   4  -4   5   13.24    0.41
   4  -4   5   12.92    0.41
  -5   4  -5    3.47    0.19
  -5   4  -5    3.37    0.17
  -5   4  -5    3.52    0.20
  -5   4  -5    3.19    0.22
  -5   4  -5    3.47    0.18
   5  -4   5    3.42    0.18
   5  -4   5    3.72    0.18
   5  -4   5    3.58    0.20
   5  -4   5    3.56    0.20
   5  -4   5    3.64    0.18
  -6   4  -5   14.36    0.47
  -6   4  -5   14.24    0.45
   6  -4   5   14.83    0.47
   6  -4   5   14.88    0.47
   6  -4   5   15.16    0.46
   6  -4   5   14.17    0.47
   6  -4   5   14.86    0.46
  -7   4  -5    0.12    0.08
  -7   4  -5    0.01    0.14
   7  -4   5    0.13    0.15
   7  -4   5    0.15    0.08
   7  -4   5    0.03    0.08
   7  -4   5   -0.02    0.09
   7  -4   5    0.11    0.10
  -8   4  -5    0.48    0.39
  -8   4  -5    0.76    0.20
   8  -4   5    0.68    0.15
   8  -4   5    0.43    0.11
   8  -4   5    0.55    0.13
   8  -4   5    0.49    0.11
   8  -4   5    0.74    0.22
   7   3  -5    3.29    0.22
   7   3  -5    3.15    0.23
   7   3  -5    3.33    0.27
  -7  -3   5    3.18    0.25
  -7  -3   5    3.02    0.19
  -7  -3   5    3.23    0.19
   6   3  -5    3.04    0.21
   6   3  -5    2.66    0.18
   6   3  -5    2.81    0.20
  -6  -3   5    2.96    0.21
  -6  -3   5    3.12    0.22
  -6  -3   5    2.75    0.17
  -6  -3   5    2.85    0.17
   5   3  -5    5.85    0.27
   5   3  -5    5.47    0.22
   5   3  -5    5.28    0.23
  -5  -3   5    5.47    0.24
  -5  -3   5    5.43    0.23
  -5  -3   5    5.40    0.22
  -5  -3   5    5.27    0.21
   4   3  -5   54.05    1.35
   4   3  -5   54.31    1.58
   4   3  -5   52.10    2.70
   4   3  -5   55.33    1.37
  -4  -3   5   51.83    1.36
  -4  -3   5   54.64    1.36
  -4  -3   5   54.23    1.43
  -4  -3   5   55.83    1.36
   3   3  -5    3.88    0.16
   3   3  -5    3.93    0.16
  -3  -3   5    4.05    0.17
  -3  -3   5    4.26    0.17
  -3  -3   5    3.65    0.15
  -3  -3   5    3.91    0.16
   2   3  -5   36.07    0.92
   2   3  -5   38.20    0.93
  -2  -3   5   37.11    0.93
  -2  -3   5   33.84    0.92
  -2  -3   5   37.25    0.92
  -2  -3   5   35.86    0.98
   1   3  -5   47.07    1.18
   1   3  -5   49.15    1.19
  -1  -3   5   47.65    1.19
  -1  -3   5   47.98    1.27
  -1  -3   5   46.39    1.18
  -1  -3   5   48.26    1.19
   0   3  -5   26.48    0.68
   0   3  -5   25.84    0.68
   0   3  -5   26.87    1.34
   0  -3   5   25.82    0.68
   0  -3   5   27.14    1.32
   0  -3   5   26.35    0.68
   0  -3   5   26.05    0.68
  -1   3  -5    1.35    0.18
  -1   3  -5    1.28    0.09
  -1   3  -5    1.42    0.09
  -1   3  -5    1.24    0.09
   1  -3   5    1.29    0.08
   1  -3   5    1.37    0.09
   1  -3   5    1.28    0.09
  -2   3  -5   22.62    1.13
  -2   3  -5   22.21    0.60
  -2   3  -5   22.92    0.61
   2  -3   5   22.68    0.60
   2  -3   5   22.69    0.60
   2  -3   5   22.27    0.61
  -3   3  -5    0.70    0.08
  -3   3  -5    0.53    0.08
  -3   3  -5    0.61    0.09
  -3   3  -5    0.60    0.08
  -3   3  -5    0.51    0.08
   3  -3   5    0.68    0.09
   3  -3   5    0.70    0.08
   3  -3   5    0.79    0.09
   3  -3   5    0.64    0.08
   3  -3   5    0.81    0.09
  -4   3  -5   33.00    0.87
  -4   3  -5   33.65    0.88
  -4   3  -5   35.08    0.88
  -4   3  -5   32.77    0.93
  -4   3  -5   33.64    0.89
   4  -3   5   33.11    0.90
   4  -3   5   33.26    0.88
   4  -3   5   33.68    0.88
   4  -3   5   33.48    0.93
   4  -3   5   34.28    0.88
  -5   3  -5   13.28    0.40
  -5   3  -5   12.92    0.41
  -5   3  -5   12.96    0.40
   5  -3   5   13.08    0.41
   5  -3   5   12.46    0.41
   5  -3   5   13.24    0.40
   5  -3   5   12.77    0.40
   5  -3   5   13.01    0.40
  -6   3  -5    0.82    0.13
  -6   3  -5    0.92    0.18
   6  -3   5    0.67    0.10
   6  -3   5    0.78    0.13
   6  -3   5    0.75    0.13
   6  -3   5    0.79    0.13
   6  -3   5    0.81    0.14
  -7   3  -5    6.51    0.34
  -7   3  -5    6.75    0.28
   7  -3   5    7.36    0.30
   7  -3   5    7.07    0.29
   7  -3   5    6.59    0.29
   7  -3   5    7.29    0.34
   7  -3   5    6.68    0.29
  -8   3  -5    5.75    0.27
   8  -3   5    5.45    0.28
   8  -3   5    5.33    0.28
   8  -3   5    5.45    0.30
   8  -3   5    5.74    0.39
   8   2  -5    2.71    0.24
   8   2  -5    3.16    0.30
  -8  -2   5    2.89    0.28
  -8  -2   5    2.82    0.20
  -8  -2   5    2.86    0.34
   7   2  -5    2.27    0.22
   7   2  -5    2.29    0.20
   7   2  -5    2.17    0.18
  -7  -2   5    2.20    0.20
  -7  -2   5    2.35    0.16
  -7  -2   5    2.57    0.25
   6   2  -5   12.41    0.47
   6   2  -5   12.23    0.40
   6   2  -5   12.62    0.39
  -6  -2   5   12.18    0.38
  -6  -2   5   12.47    0.36
  -6  -2   5   12.33    0.39
   5   2  -5   22.95    1.30
   5   2  -5   23.92    0.64
   5   2  -5   22.97    0.74
   5   2  -5   22.75    0.62
  -5  -2   5   23.32    0.63
  -5  -2   5   23.31    0.64
  -5  -2   5   22.12    0.62
  -5  -2   5   24.15    0.64
   4   2  -5    0.17    0.05
   4   2  -5    0.14    0.24
   4   2  -5    0.17    0.06
   4   2  -5    0.22    0.06
  -4  -2   5    0.19    0.05
  -4  -2   5    0.26    0.06
  -4  -2   5    0.20    0.05
  -4  -2   5    0.16    0.06
   3   2  -5   13.13    0.37
   3   2  -5   12.77    0.37
  -3  -2   5   12.70    0.36
  -3  -2   5   13.69    0.37
  -3  -2   5   13.20    0.38
  -3  -2   5   13.19    0.37
   2   2  -5   74.31    2.02
   2   2  -5   85.34    2.04
   2   2  -5   90.35    4.01
  -2  -2   5   80.78    2.02
  -2  -2   5   83.64    2.17
  -2  -2   5   84.59    2.02
  -2  -2   5   84.10    2.03
   1   2  -5    2.18    0.37
   1   2  -5    2.11    0.10
   1   2  -5    2.16    0.11
  -1  -2   5    2.25    0.10
  -1  -2   5    2.24    0.10
  -1  -2   5    2.17    0.10
  -1  -2   5    2.48    0.13
   0   2  -5  108.06    5.15
   0   2  -5  110.46    2.63
   0   2  -5  111.92    2.65
   0   2  -5  109.68    2.72
   0  -2   5  108.43    2.63
   0  -2   5  105.36    2.63
   0  -2   5  109.36    2.65
  -1   2  -5    8.26    0.25
  -1   2  -5    8.17    0.49
  -1   2  -5    8.42    0.25
  -1   2  -5    8.37    0.25
  -1   2  -5    7.66    0.28
   1  -2   5    8.16    0.25
   1  -2   5    8.36    0.25
  -2   2  -5   58.60    1.47
  -2   2  -5   58.51    1.57
  -2   2  -5   59.79    1.50
  -2   2  -5   59.49    1.46
   2  -2   5   59.43    1.47
   2  -2   5   60.05    1.46
   2  -2   5   58.99    1.50
   2  -2   5   59.57    1.47
   2  -2   5   59.52    1.47
  -3   2  -5    5.30    0.20
  -3   2  -5    5.61    0.20
  -3   2  -5    5.08    0.19
  -3   2  -5    5.46    0.19
   3  -2   5    5.18    0.19
   3  -2   5    5.10    0.18
   3  -2   5    5.18    0.19
   3  -2   5    5.24    0.19
   3  -2   5    5.40    0.19
   3  -2   5    5.39    0.20
  -4   2  -5    3.20    0.17
  -4   2  -5    3.21    0.16
  -4   2  -5    3.41    0.16
  -4   2  -5    3.18    0.15
  -4   2  -5    3.11    0.15
   4  -2   5    3.52    0.17
   4  -2   5    3.17    0.15
   4  -2   5    3.14    0.16
   4  -2   5    3.15    0.15
  -5   2  -5    2.49    0.15
  -5   2  -5    2.26    0.15
  -5   2  -5    2.57    0.16
   5  -2   5    2.22    0.17
   5  -2   5    2.00    0.15
   5  -2   5    2.41    0.14
   5  -2   5    2.43    0.15
   5  -2   5    2.35    0.15
  -6   2  -5    9.29    0.34
  -6   2  -5    9.77    0.36
  -6   2  -5   10.02    0.35
   6  -2   5    9.72    0.34
   6  -2   5    9.67    0.34
   6  -2   5    9.70    0.34
   6  -2   5   10.02    0.35
   6  -2   5   10.24    0.37
  -7   2  -5    6.33    0.28
  -7   2  -5    6.74    0.27
  -7   2  -5    6.43    0.33
   7  -2   5    6.81    0.29
   7  -2   5    6.61    0.28
   7  -2   5    6.73    0.29
   7  -2   5    6.41    0.34
  -8   2  -5   -0.10    0.10
   8  -2   5    0.19    0.09
   8  -2   5    0.08    0.11
   8  -2   5   -0.02    0.19
   8  -2   5    0.08    0.10
   8   1  -5    1.97    0.19
   8   1  -5    1.79    0.25
  -8  -1   5    1.69    0.29
  -8  -1   5    1.76    0.17
  -8  -1   5    1.45    0.24
   7   1  -5    0.07    0.07
   7   1  -5   -0.01    0.07
   7   1  -5    0.08    0.10
  -7  -1   5    0.25    0.10
  -7  -1   5    0.04    0.12
  -7  -1   5   -0.27    0.23
  -7  -1   5    0.02    0.07
   6   1  -5    2.99    0.16
   6   1  -5    2.70    0.16
   6   1  -5    2.96    0.18
   6   1  -5    1.90    0.45
   6   1  -5    2.82    0.19
  -6  -1   5    2.62    0.15
  -6  -1   5    2.94    0.17
  -6  -1   5    2.97    0.19
  -6  -1   5    2.57    0.41
   5   1  -5    0.06    0.05
   5   1  -5    0.01    0.06
   5   1  -5    0.02    0.06
   5   1  -5    0.14    0.25
   5   1  -5    0.04    0.05
  -5  -1   5    0.03    0.06
  -5  -1   5    0.12    0.07
  -5  -1   5    0.07    0.05
  -5  -1   5    0.05    0.04
  -5  -1   5   -0.01    0.11
   4   1  -5   47.63    1.15
   4   1  -5   44.95    1.35
   4   1  -5   46.27    1.15
   4   1  -5   47.01    1.16
   4   1  -5   42.76    2.31
  -4  -1   5   47.12    1.15
  -4  -1   5   47.28    1.15
  -4  -1   5   47.79    1.21
  -4  -1   5   43.80    1.15
   3   1  -5   20.84    0.54
   3   1  -5   20.53    0.54
   3   1  -5   22.18    1.14
   3   1  -5   20.58    0.55
  -3  -1   5   21.23    0.54
  -3  -1   5   20.13    0.54
  -3  -1   5   20.68    0.58
  -3  -1   5   20.95    0.54
   2   1  -5   19.05    0.48
   2   1  -5   19.24    0.49
   2   1  -5   18.09    1.00
   2   1  -5   18.98    0.48
   2   1  -5   18.75    0.53
  -2  -1   5   18.15    0.48
  -2  -1   5   18.85    0.49
  -2  -1   5   18.40    0.49
  -2  -1   5   19.42    0.53
   1   1  -5   71.49    3.40
   1   1  -5   70.61    1.72
   1   1  -5   71.58    1.72
   1   1  -5   71.67    1.86
   1   1  -5   72.06    1.73
  -1  -1   5   69.03    1.72
  -1  -1   5   69.98    1.72
  -1  -1   5   71.26    1.86
   0   1  -5   28.96    0.72
   0   1  -5   28.01    0.78
   0   1  -5   28.35    0.72
   0   1  -5   27.75    1.42
   0   1  -5   28.94    0.72
   0  -1   5   28.65    0.72
   0  -1   5   28.60    0.72
   0  -1   5   28.80    0.72
  -1   1  -5    3.33    0.13
  -1   1  -5    3.33    0.13
  -1   1  -5    3.52    0.13
   1  -1   5    3.27    0.13
   1  -1   5    3.32    0.13
   1  -1   5    3.46    0.13
  -2   1  -5   24.50    0.70
  -2   1  -5   24.16    0.65
  -2   1  -5   25.65    0.66
  -2   1  -5   25.43    0.66
   2  -1   5   24.74    0.65
   2  -1   5   25.67    0.66
   2  -1   5   26.17    0.65
   2  -1   5   25.41    0.66
   2  -1   5   25.06    0.66
  -3   1  -5   20.33    0.59
  -3   1  -5   21.05    0.55
  -3   1  -5   21.27    0.55
  -3   1  -5   19.86    0.55
   3  -1   5   18.13    0.54
   3  -1   5   20.52    0.55
   3  -1   5   20.29    0.54
   3  -1   5   20.72    0.55
   3  -1   5   21.06    0.59
   3  -1   5   20.23    0.55
  -4   1  -5   11.30    0.35
  -4   1  -5   11.45    0.37
  -4   1  -5   11.10    0.35
   4  -1   5   11.20    0.35
   4  -1   5   11.20    0.34
   4  -1   5   11.51    0.36
   4  -1   5   11.38    0.35
   4  -1   5   11.46    0.35
   4  -1   5   11.56    0.35
  -5   1  -5    1.01    0.12
  -5   1  -5    1.10    0.12
  -5   1  -5    1.01    0.12
  -5   1  -5    0.93    0.13
   5  -1   5    1.16    0.13
   5  -1   5    1.12    0.15
   5  -1   5    1.09    0.12
   5  -1   5    0.83    0.12
   5  -1   5    0.93    0.10
   5  -1   5    1.03    0.12
  -6   1  -5    0.75    0.13
  -6   1  -5    0.99    0.18
  -6   1  -5    1.11    0.15
  -6   1  -5    1.09    0.15
   6  -1   5    1.03    0.19
   6  -1   5    0.87    0.14
   6  -1   5    0.79    0.12
   6  -1   5    0.77    0.13
  -7   1  -5    0.23    0.12
  -7   1  -5    0.12    0.08
  -7   1  -5    0.38    0.11
  -7   1  -5    0.16    0.08
   7  -1   5    0.09    0.09
   7  -1   5    0.25    0.15
   7  -1   5    0.15    0.08
   7  -1   5    0.09    0.10
  -8   1  -5    3.59    0.28
  -8   1  -5    3.46    0.23
  -8   1  -5    3.86    0.25
   8  -1   5    3.82    0.26
   8  -1   5    3.65    0.26
   8  -1   5    3.82    0.24
   8  -1   5    3.57    0.37
   8   0  -5    0.32    0.13
   8   0  -5    0.55    0.10
  -8   0   5    0.51    0.09
  -8   0   5    0.48    0.15
  -8   0   5    0.34    0.12
   7   0  -5    0.66    0.11
   7   0  -5    0.45    0.10
   7   0  -5    0.53    0.11
   7   0  -5    0.88    0.13
  -7   0   5    0.91    0.12
  -7   0   5    0.62    0.12
  -7   0   5    0.54    0.26
  -7   0   5    0.54    0.11
   6   0  -5    5.26    0.21
   6   0  -5    5.78    0.55
   6   0  -5    5.32    0.22
   6   0  -5    5.15    0.20
   6   0  -5    5.10    0.26
  -6   0   5    5.27    0.22
  -6   0   5    5.04    0.21
  -6   0   5    5.21    0.49
  -6   0   5    5.32    0.20
   5   0  -5    8.02    0.26
   5   0  -5    8.19    0.33
   5   0  -5    8.28    0.26
   5   0  -5    8.36    0.25
   5   0  -5    8.65    0.62
  -5   0   5    8.70    0.56
  -5   0   5    8.11    0.26
  -5   0   5    7.97    0.25
   4   0  -5    2.92    0.13
   4   0  -5    2.92    0.12
   4   0  -5    2.58    0.36
   4   0  -5    2.98    0.12
   4   0  -5    2.70    0.16
  -4   0   5    3.04    0.13
  -4   0   5    2.97    0.12
  -4   0   5    3.04    0.13
  -4   0   5    3.09    0.13
  -4   0   5    2.96    0.30
  -4   0   5    2.82    0.12
   3   0  -5    1.52    0.08
   3   0  -5    1.49    0.08
   3   0  -5    1.52    0.08
   3   0  -5    1.61    0.28
   3   0  -5    1.48    0.08
  -3   0   5    1.48    0.08
  -3   0   5    1.68    0.09
  -3   0   5    1.36    0.08
  -3   0   5    1.49    0.08
   2   0  -5  144.06    3.33
   2   0  -5  139.76    3.33
   2   0  -5  140.99    3.58
   2   0  -5  140.74    3.35
   2   0  -5  133.37    6.56
  -2   0   5  139.82    3.33
  -2   0   5  138.67    3.58
  -2   0   5  134.81    3.33
  -2   0   5  139.52    3.35
   1   0  -5   58.17    1.59
   1   0  -5   59.85    1.47
   1   0  -5   62.15    1.47
   1   0  -5   59.75    2.92
   1   0  -5   60.69    1.48
  -1   0   5   63.71    1.47
  -1   0   5   60.55    1.47
  -1   0   5   59.91    1.47
  -1   0   5   60.50    1.59
   0   0  -5   12.04    0.32
   0   0  -5   11.93    0.32
   0   0  -5   11.93    0.37
   0   0  -5   11.98    0.32
   0   0   5   12.05    0.32
   0   0   5   11.89    0.32
  -1   0  -5   31.18    0.79
  -1   0  -5   29.95    0.79
  -1   0  -5   30.81    0.86
  -1   0  -5   31.72    0.79
   1   0   5   31.34    0.79
   1   0   5   31.47    0.79
   1   0   5   32.12    0.79
  -2   0  -5   13.62    0.39
  -2   0  -5   14.07    0.39
  -2   0  -5   14.31    0.37
  -2   0  -5   13.19    0.38
  -2   0  -5   13.36    0.42
   2   0   5   14.35    0.39
   2   0   5   14.29    0.39
   2   0   5   13.88    0.39
   2   0   5   14.40    0.37
  -3   0  -5    7.42    0.26
  -3   0  -5    7.32    0.24
  -3   0  -5    7.26    0.24
   3   0   5    7.29    0.24
   3   0   5    7.24    0.24
   3   0   5    7.36    0.24
   3   0   5    7.67    0.26
   3   0   5    7.28    0.22
  -4   0  -5    5.99    0.23
  -4   0  -5    6.12    0.24
  -4   0  -5    6.09    0.23
   4   0   5    6.48    0.23
   4   0   5    6.27    0.23
   4   0   5    6.27    0.23
   4   0   5    5.99    0.20
   4   0   5    6.21    0.23
   4   0   5    6.26    0.24
  -5   0  -5    2.48    0.16
  -5   0  -5    2.50    0.16
  -5   0  -5    2.50    0.16
   5   0   5    2.63    0.14
   5   0   5    2.34    0.19
   5   0   5    2.58    0.16
   5   0   5    2.29    0.15
   5   0   5    2.62    0.17
  -6   0  -5    7.31    0.29
  -6   0  -5    6.93    0.30
  -6   0  -5    7.38    0.29
  -6   0  -5    7.31    0.30
   6   0   5    7.61    0.27
   6   0   5    7.57    0.29
   6   0   5    7.14    0.30
   6   0   5    6.87    0.31
   6   0   5    7.32    0.29
  -7   0  -5    5.19    0.27
  -7   0  -5    4.92    0.25
  -7   0  -5    5.17    0.26
   7   0   5    4.83    0.31
   7   0   5    5.64    0.27
   7   0   5    5.26    0.26
   7   0   5    4.97    0.24
  -8   0  -5   -0.06    0.10
  -8   0  -5   -0.17    0.09
  -8   0  -5   -0.03    0.13
   8   0   5    0.12    0.10
   8   0   5    0.04    0.12
   8   0   5    0.14    0.11
   8   0   5    0.30    0.20
   8  -1  -5    0.07    0.10
   8  -1  -5    0.06    0.11
  -8   1   5    0.07    0.13
  -8   1   5    0.11    0.08
  -8   1   5   -0.02    0.10
   7  -1  -5    2.04    0.16
   7  -1  -5    1.62    0.50
   7  -1  -5    1.97    0.17
   7  -1  -5    1.96    0.19
   7  -1  -5    2.11    0.17
  -7   1   5    2.04    0.15
  -7   1   5    1.91    0.13
  -7   1   5    1.96    0.18
  -7   1   5    2.01    0.46
   6  -1  -5    2.70    0.14
   6  -1  -5    2.42    0.48
   6  -1  -5    2.90    0.15
   6  -1  -5    2.73    0.20
   6  -1  -5    2.77    0.14
  -6   1   5    2.24    0.14
  -6   1   5    2.79    0.14
  -6   1   5    2.80    0.16
  -6   1   5    2.86    0.40
   5  -1  -5    2.46    0.17
   5  -1  -5    2.74    0.39
   5  -1  -5    2.51    0.12
   5  -1  -5    2.64    0.13
   5  -1  -5    2.69    0.12
  -5   1   5    2.79    0.34
  -5   1   5    2.49    0.12
   4  -1  -5    4.11    0.20
   4  -1  -5    4.06    0.14
   4  -1  -5    4.27    0.41
   4  -1  -5    4.14    0.15
   4  -1  -5    4.12    0.13
   4  -1  -5    4.07    0.13
  -4   1   5    4.10    0.13
  -4   1   5    4.19    0.35
  -4   1   5    3.89    0.14
  -4   1   5    4.06    0.14
   3  -1  -5   28.18    0.75
   3  -1  -5   28.12    0.68
   3  -1  -5   28.16    0.70
   3  -1  -5   28.57    0.68
   3  -1  -5   28.24    1.43
  -3   1   5   27.47    0.69
  -3   1   5   26.34    0.68
   2  -1  -5    1.68    0.10
   2  -1  -5    1.56    0.07
   2  -1  -5    1.66    0.06
   2  -1  -5    1.42    0.20
   2  -1  -5    1.59    0.06
  -2   1   5    1.71    0.06
  -2   1   5    1.86    0.06
  -2   1   5    1.62    0.07
  -2   1   5    1.75    0.10
   1  -1  -5   40.28    1.99
   1  -1  -5   41.43    0.99
   1  -1  -5   39.67    1.08
   1  -1  -5   40.91    0.98
   1  -1  -5   41.03    0.98
  -1   1   5   38.68    0.98
  -1   1   5   40.67    0.98
  -1   1   5   39.97    0.98
  -1   1   5   41.24    0.98
  -1   1   5   40.00    1.08
   0  -1  -5  112.82    2.68
   0  -1  -5  112.67    2.69
   0  -1  -5  108.09    2.89
   0  -1  -5  114.19    2.67
   0   1   5  110.32    2.68
   0   1   5  112.22    2.69
   0   1   5  109.59    2.68
  -1  -1  -5    2.14    0.10
  -1  -1  -5    2.05    0.10
  -1  -1  -5    2.05    0.10
   1   1   5    1.99    0.10
   1   1   5    1.96    0.10
  -2  -1  -5   47.13    1.19
  -2  -1  -5   46.93    1.20
  -2  -1  -5   46.87    1.29
   2   1   5   49.72    1.20
   2   1   5   49.72    1.20
   2   1   5   48.17    1.20
  -3  -1  -5   21.85    0.62
  -3  -1  -5   23.22    0.63
  -3  -1  -5   23.37    0.72
  -3  -1  -5   24.06    0.68
   3   1   5   24.31    0.63
   3   1   5   22.62    0.63
   3   1   5   24.43    0.63
   3   1   5   23.86    0.60
  -4  -1  -5    0.10    0.06
  -4  -1  -5    0.03    0.06
  -4  -1  -5    0.00    0.05
  -4  -1  -5    0.01    0.05
   4   1   5    0.00    0.04
   4   1   5    0.02    0.05
   4   1   5   -0.18    0.06
   4   1   5    0.03    0.07
   4   1   5    0.00    0.05
  -5  -1  -5    3.86    0.20
  -5  -1  -5    3.65    0.23
  -5  -1  -5    3.92    0.21
  -5  -1  -5    3.67    0.19
   5   1   5    3.71    0.22
   5   1   5    3.61    0.19
   5   1   5    4.18    0.17
   5   1   5    3.72    0.21
   5   1   5    3.86    0.19
  -6  -1  -5    3.16    0.20
  -6  -1  -5    3.15    0.25
  -6  -1  -5    3.45    0.20
  -6  -1  -5    3.14    0.20
   6   1   5    3.33    0.21
   6   1   5    3.34    0.17
   6   1   5    3.23    0.24
   6   1   5    2.84    0.22
   6   1   5    3.03    0.19
  -7  -1  -5    0.31    0.10
  -7  -1  -5    0.00    0.10
  -7  -1  -5    0.36    0.11
   7   1   5    0.12    0.10
   7   1   5    0.11    0.10
   7   1   5    0.13    0.17
   7   1   5    0.30    0.09
   8  -2  -5    0.14    0.09
   8  -2  -5    0.03    0.11
   8  -2  -5    0.11    0.11
  -8   2   5    0.00    0.12
  -8   2   5    0.02    0.33
  -8   2   5   -0.09    0.07
   7  -2  -5    3.16    0.54
   7  -2  -5    4.10    0.26
   7  -2  -5    3.84    0.17
   7  -2  -5    4.10    0.17
  -7   2   5    4.20    0.17
  -7   2   5    3.69    0.20
  -7   2   5    3.62    0.53
   6  -2  -5    0.99    0.09
   6  -2  -5    0.86    0.09
   6  -2  -5    0.69    0.14
   6  -2  -5    0.66    0.30
  -6   2   5    0.86    0.11
  -6   2   5    0.48    0.21
  -6   2   5    0.77    0.09
   5  -2  -5   15.91    0.41
   5  -2  -5   16.87    0.98
   5  -2  -5   16.57    0.43
   5  -2  -5   16.63    0.41
   5  -2  -5   17.07    0.45
   5  -2  -5   16.73    0.55
  -5   2   5   16.26    0.43
  -5   2   5   13.35    0.92
   4  -2  -5    0.18    0.19
   4  -2  -5    0.05    0.04
   4  -2  -5    0.09    0.03
   4  -2  -5    0.09    0.06
  -4   2   5    0.16    0.03
  -4   2   5    0.10    0.03
   3  -2  -5    3.31    0.11
   3  -2  -5    3.58    0.32
   3  -2  -5    3.51    0.14
  -3   2   5    3.52    0.10
  -3   2   5    3.39    0.10
   2  -2  -5   27.21    1.40
   2  -2  -5   27.68    0.68
   2  -2  -5   27.31    0.76
  -2   2   5   27.19    0.67
  -2   2   5   28.51    0.67
   1  -2  -5   23.99    0.60
   1  -2  -5   24.05    0.58
   1  -2  -5   24.62    0.59
   1  -2  -5   23.51    0.67
  -1   2   5   23.83    0.59
   0  -2  -5    4.56    0.14
   0  -2  -5    4.23    0.14
   0  -2  -5    4.49    0.14
   0  -2  -5    4.42    0.14
   0  -2  -5    4.35    0.18
   0   2   5    4.37    0.13
   0   2   5    4.43    0.14
   0   2   5    4.28    0.14
  -1  -2  -5   22.04    0.56
  -1  -2  -5   21.30    0.63
  -1  -2  -5   20.95    0.56
  -1  -2  -5   22.17    0.56
   1   2   5   21.07    0.56
   1   2   5   22.52    0.56
   1   2   5   21.72    0.56
  -2  -2  -5   50.30    1.35
  -2  -2  -5   49.49    1.24
  -2  -2  -5   48.90    1.25
   2   2   5   48.78    1.24
   2   2   5   50.74    1.25
   2   2   5   50.68    1.24
  -3  -2  -5    5.10    0.20
  -3  -2  -5    4.94    0.19
  -3  -2  -5    5.43    0.22
  -3  -2  -5    4.74    0.21
   3   2   5    5.20    0.21
   3   2   5    5.24    0.20
   3   2   5    4.93    0.20
  -4  -2  -5    6.70    0.29
  -4  -2  -5    6.77    0.25
  -4  -2  -5    6.68    0.27
  -4  -2  -5    6.53    0.25
   4   2   5    7.08    0.26
   4   2   5    6.51    0.26
   4   2   5    6.65    0.25
   4   2   5    6.58    0.25
  -5  -2  -5    0.04    0.07
  -5  -2  -5    0.03    0.07
  -5  -2  -5    0.07    0.06
  -5  -2  -5    0.00    0.10
   5   2   5   -0.02    0.09
   5   2   5    0.09    0.10
   5   2   5    0.15    0.05
   5   2   5    0.10    0.07
   5   2   5    0.07    0.07
  -6  -2  -5    0.48    0.15
  -6  -2  -5    0.30    0.09
  -6  -2  -5    0.22    0.10
  -6  -2  -5    0.52    0.10
   6   2   5    0.60    0.15
   6   2   5    0.41    0.09
   6   2   5    0.42    0.10
   6   2   5    0.36    0.15
   6   2   5    0.38    0.08
  -7  -2  -5    1.20    0.19
  -7  -2  -5    1.13    0.20
  -7  -2  -5    1.46    0.21
   7   2   5    1.37    0.21
   7   2   5    0.99    0.15
   7   2   5    1.08    0.18
   8  -3  -5    0.27    0.12
   8  -3  -5    0.14    0.09
   8  -3  -5    0.08    0.08
   8  -3  -5    0.21    0.07
   7  -3  -5    9.07    0.28
   7  -3  -5    8.99    0.40
   7  -3  -5    8.73    0.29
  -7   3   5    9.01    0.28
   6  -3  -5    0.92    0.09
   6  -3  -5    0.23    0.31
   6  -3  -5    0.78    0.15
  -6   3   5    0.93    0.08
   5  -3  -5    0.44    0.09
   5  -3  -5    0.35    0.05
   5  -3  -5    0.37    0.06
   5  -3  -5    0.35    0.26
  -5   3   5    0.37    0.04
  -5   3   5    0.33    0.06
   4  -3  -5    3.29    0.36
   4  -3  -5    3.03    0.14
   4  -3  -5    3.05    0.17
   3  -3  -5    7.11    0.24
   3  -3  -5    6.56    0.46
   3  -3  -5    6.78    0.26
   2  -3  -5    0.14    0.05
   2  -3  -5    0.26    0.11
   1  -3  -5   19.91    0.59
   1  -3  -5   21.57    0.52
  -1   3   5   20.67    0.51
  -1   3   5   20.45    0.51
   0  -3  -5    2.75    0.10
   0  -3  -5    2.94    0.10
   0  -3  -5    3.02    0.11
   0   3   5    2.90    0.10
   0   3   5    2.66    0.11
   0   3   5    2.92    0.11
  -1  -3  -5    0.22    0.04
  -1  -3  -5    0.18    0.05
  -1  -3  -5    0.09    0.05
  -1  -3  -5    0.20    0.05
   1   3   5    0.14    0.04
   1   3   5    0.25    0.05
   1   3   5    0.18    0.04
  -2  -3  -5   11.37    0.34
  -2  -3  -5   11.97    0.39
   2   3   5   11.34    0.34
   2   3   5   12.09    0.35
  -3  -3  -5    4.91    0.22
  -3  -3  -5    4.95    0.19
  -3  -3  -5    5.04    0.23
   3   3   5    4.62    0.20
   3   3   5    4.73    0.19
   3   3   5    4.83    0.21
  -4  -3  -5    4.24    0.25
  -4  -3  -5    4.44    0.20
  -4  -3  -5    4.52    0.22
   4   3   5    4.44    0.22
   4   3   5    4.34    0.20
  -5  -3  -5    1.48    0.15
  -5  -3  -5    1.43    0.22
  -5  -3  -5    1.45    0.16
  -5  -3  -5    0.93    0.15
   5   3   5    1.50    0.16
   5   3   5    1.27    0.21
   5   3   5    1.36    0.14
   5   3   5    1.40    0.11
   5   3   5    1.13    0.19
  -6  -3  -5    9.27    0.36
  -6  -3  -5    8.02    0.44
  -6  -3  -5    9.53    0.36
  -6  -3  -5    9.58    0.36
   6   3   5    8.65    0.40
   6   3   5    9.30    0.36
   6   3   5    9.56    0.35
   6   3   5    8.91    0.29
  -7  -3  -5    0.01    0.11
  -7  -3  -5    0.00    0.12
  -7  -3  -5   -0.09    0.10
   7   3   5   -0.02    0.09
   7   3   5    0.01    0.12
   7   3   5    0.07    0.11
   7  -4  -5    2.06    0.56
   7  -4  -5    3.19    0.16
   7  -4  -5    3.31    0.25
   7  -4  -5    3.57    0.14
   7  -4  -5    3.68    0.23
  -7   4   5    3.33    0.14
   6  -4  -5    0.07    0.08
   6  -4  -5    0.00    0.04
   6  -4  -5   -0.02    0.05
   6  -4  -5   -0.13    0.08
   6  -4  -5    0.09    0.32
  -6   4   5   -0.02    0.04
  -6   4   5   -0.04    0.04
   5  -4  -5   10.96    0.38
   5  -4  -5   11.23    0.42
   5  -4  -5   11.49    0.75
   5  -4  -5   11.23    0.34
   4  -4  -5    0.47    0.09
   4  -4  -5    0.51    0.11
   4  -4  -5    0.52    0.10
   4  -4  -5    0.70    0.27
   3  -4  -5    0.05    0.05
   3  -4  -5    0.03    0.10
   3  -4  -5   -0.01    0.05
   3  -4  -5   -0.06    0.04
   2  -4  -5   10.62    0.35
   2  -4  -5   10.76    0.31
   1  -4  -5    2.33    0.09
   1  -4  -5    2.09    0.14
  -1   4   5    2.03    0.08
  -1   4   5    2.18    0.09
   0  -4  -5    1.66    0.08
   0  -4  -5    1.55    0.13
   0  -4  -5    1.63    0.08
   0   4   5    1.76    0.07
   0   4   5    1.76    0.09
   0   4   5    1.65    0.08
   0   4   5    1.61    0.09
  -1  -4  -5   22.31    0.66
  -1  -4  -5   21.96    0.58
  -1  -4  -5   21.82    0.59
  -1  -4  -5   22.71    0.58
   1   4   5   22.78    0.59
   1   4   5   21.75    0.58
   1   4   5   22.65    0.58
  -2  -4  -5   23.66    0.71
  -2  -4  -5   22.74    0.61
  -2  -4  -5   23.65    0.63
  -2  -4  -5   22.66    0.62
  -2  -4  -5   23.10    0.69
   2   4   5   24.08    0.63
   2   4   5   23.01    0.62
   2   4   5   23.24    0.62
  -3  -4  -5    0.22    0.07
  -3  -4  -5    0.23    0.08
  -3  -4  -5    0.28    0.09
  -3  -4  -5    0.20    0.07
   3   4   5    0.16    0.08
   3   4   5    0.16    0.07
   3   4   5    0.18    0.06
  -4  -4  -5   12.69    0.46
  -4  -4  -5   12.27    0.41
  -4  -4  -5   13.08    0.44
  -4  -4  -5   12.36    0.40
   4   4   5   12.65    0.42
   4   4   5   12.86    0.41
   4   4   5   12.45    0.40
  -5  -4  -5    2.51    0.20
  -5  -4  -5    2.64    0.20
  -5  -4  -5    2.71    0.21
  -5  -4  -5    2.50    0.27
   5   4   5    2.51    0.28
   5   4   5    2.56    0.18
   5   4   5    2.73    0.20
  -6  -4  -5    0.07    0.10
  -6  -4  -5    0.27    0.12
  -6  -4  -5    0.15    0.12
  -6  -4  -5    0.31    0.19
   6   4   5    0.51    0.11
   6   4   5    0.39    0.12
   6   4   5    0.29    0.08
   7  -5  -5    0.31    0.07
   7  -5  -5    0.06    0.11
   7  -5  -5    0.16    0.38
   7  -5  -5    0.40    0.13
   7  -5  -5    0.36    0.06
   6  -5  -5   11.32    0.41
   6  -5  -5   11.64    0.44
   6  -5  -5   11.47    0.35
   5  -5  -5    0.77    0.14
   5  -5  -5    0.59    0.26
   5  -5  -5    0.42    0.09
   5  -5  -5    0.46    0.07
   4  -5  -5    1.80    0.31
   4  -5  -5    1.84    0.15
   4  -5  -5    1.89    0.14
   4  -5  -5    1.79    0.13
   3  -5  -5   15.06    0.46
   3  -5  -5   14.50    0.43
   3  -5  -5   14.72    0.84
   3  -5  -5   14.83    0.48
   2  -5  -5    2.24    0.15
   2  -5  -5    2.32    0.13
   2  -5  -5    1.91    0.11
   1  -5  -5    0.95    0.12
   1  -5  -5    1.00    0.07
   1  -5  -5    0.89    0.08
  -1   5   5    1.01    0.07
  -1   5   5    0.95    0.07
   0  -5  -5   20.09    0.50
   0  -5  -5   19.88    0.52
   0  -5  -5   19.20    0.60
   0  -5  -5   19.69    0.50
   0   5   5   19.58    0.50
   0   5   5   19.86    0.52
   0   5   5   19.59    0.52
   0   5   5   19.97    0.50
  -1  -5  -5    5.15    0.19
  -1  -5  -5    5.06    0.19
  -1  -5  -5    5.15    0.23
  -1  -5  -5    4.98    0.18
   1   5   5    5.21    0.19
   1   5   5    5.03    0.18
   1   5   5    5.20    0.20
  -2  -5  -5    7.18    0.30
  -2  -5  -5    7.27    0.26
  -2  -5  -5    7.54    0.28
  -2  -5  -5    7.49    0.25
  -2  -5  -5    7.25    0.25
   2   5   5    7.76    0.26
   2   5   5    7.60    0.28
   2   5   5    7.38    0.25
  -3  -5  -5   18.92    0.61
  -3  -5  -5   19.36    0.61
  -3  -5  -5   18.44    0.55
  -3  -5  -5   18.98    0.54
   3   5   5   19.55    0.57
   3   5   5   18.91    0.54
  -4  -5  -5    0.53    0.09
  -4  -5  -5    0.53    0.14
  -4  -5  -5    0.74    0.12
  -4  -5  -5    0.64    0.10
   4   5   5    0.66    0.15
   4   5   5    0.70    0.12
   4   5   5    0.84    0.14
  -5  -5  -5    1.48    0.21
  -5  -5  -5    1.78    0.21
  -5  -5  -5    1.62    0.29
  -5  -5  -5    1.36    0.20
   5   5   5    1.76    0.18
   5   5   5    2.31    0.21
   5   5   5    1.52    0.21
   6  -6  -5    1.01    0.14
   6  -6  -5    1.18    0.18
   6  -6  -5    1.29    0.19
   5  -6  -5    4.64    0.51
   5  -6  -5    4.81    0.24
   5  -6  -5    4.96    0.22
   5  -6  -5    5.28    0.26
   4  -6  -5   19.99    0.64
   4  -6  -5   20.72    1.10
   4  -6  -5   19.78    0.60
   4  -6  -5   19.91    0.59
   3  -6  -5    0.43    0.08
   3  -6  -5    0.40    0.16
   3  -6  -5    0.42    0.08
   3  -6  -5    0.37    0.07
   2  -6  -5    9.53    0.27
   2  -6  -5   10.32    0.36
   2  -6  -5   10.26    0.31
   2  -6  -5   10.28    0.34
   1  -6  -5    8.29    0.31
   1  -6  -5    7.99    0.24
   1  -6  -5    7.74    0.24
  -1   6   5    7.84    0.23
  -1   6   5    8.09    0.23
   0  -6  -5    3.33    0.19
   0  -6  -5    2.84    0.14
   0  -6  -5    3.18    0.13
   0  -6  -5    3.24    0.13
   0   6   5    3.14    0.14
   0   6   5    3.21    0.11
   0   6   5    3.28    0.15
   0   6   5    2.90    0.11
  -1  -6  -5    3.93    0.18
  -1  -6  -5    4.08    0.19
  -1  -6  -5    3.80    0.21
  -1  -6  -5    4.12    0.18
  -1  -6  -5    3.91    0.17
   1   6   5    3.97    0.17
   1   6   5    3.64    0.16
   1   6   5    4.11    0.17
   1   6   5    4.37    0.20
  -2  -6  -5   14.05    0.48
  -2  -6  -5   14.10    0.43
  -2  -6  -5   13.79    0.42
  -2  -6  -5   14.85    0.47
  -2  -6  -5   13.86    0.42
   2   6   5   14.38    0.43
   2   6   5   14.26    0.44
   2   6   5   14.03    0.42
  -3  -6  -5    0.09    0.11
  -3  -6  -5    0.09    0.08
  -3  -6  -5    0.07    0.08
  -3  -6  -5    0.10    0.07
   3   6   5    0.12    0.08
   3   6   5    0.11    0.13
  -4  -6  -5    8.52    0.33
  -4  -6  -5    8.80    0.33
  -4  -6  -5    8.75    0.39
  -4  -6  -5    8.16    0.36
   4   6   5    7.64    0.32
   4   6   5    8.22    0.40
   4   6   5    8.48    0.34
  -5  -6  -5    8.64    0.45
  -5  -6  -5    8.59    0.36
  -5  -6  -5    8.28    0.38
  -5  -6  -5    8.06    0.36
   5   6   5    8.14    0.49
   5   6   5    8.19    0.36
   5  -7  -5    9.86    0.35
   5  -7  -5    9.65    0.38
   5  -7  -5    9.66    0.36
   5  -7  -5    8.68    0.69
   4  -7  -5    1.55    0.16
   4  -7  -5    1.33    0.33
   4  -7  -5    1.51    0.16
   4  -7  -5    1.54    0.15
   3  -7  -5    7.93    0.32
   3  -7  -5    8.11    0.57
   3  -7  -5    8.33    0.30
   3  -7  -5    8.23    0.29
   2  -7  -5   10.73    0.39
   2  -7  -5   10.68    0.33
   2  -7  -5   10.77    0.35
   1  -7  -5    1.60    0.11
   1  -7  -5    1.75    0.11
   1  -7  -5    1.65    0.11
  -1   7   5    1.82    0.11
  -1   7   5    1.78    0.10
   0  -7  -5    7.47    0.23
   0  -7  -5    7.54    0.25
   0  -7  -5    7.56    0.26
   0  -7  -5    7.47    0.23
   0   7   5    7.48    0.26
   0   7   5    7.87    0.25
  -1  -7  -5    7.10    0.25
  -1  -7  -5    7.00    0.25
  -1  -7  -5    6.79    0.31
  -1  -7  -5    6.88    0.25
   1   7   5    7.34    0.25
   1   7   5    6.93    0.24
   1   7   5    7.11    0.27
  -2  -7  -5    1.98    0.16
  -2  -7  -5    2.21    0.20
  -2  -7  -5    2.00    0.16
  -2  -7  -5    2.11    0.18
   2   7   5    1.71    0.18
   2   7   5    1.91    0.22
   2   7   5    2.01    0.16
  -3  -7  -5    2.73    0.19
  -3  -7  -5    3.30    0.24
  -3  -7  -5    3.14    0.21
   3   7   5    2.93    0.22
   3   7   5    3.33    0.31
   3   7   5    2.75    0.20
  -4  -7  -5    2.09    0.21
  -4  -7  -5    2.13    0.22
  -4  -7  -5    1.81    0.28
   4   7   5    1.79    0.25
   4   7   5    2.29    0.38
   4   7   5    2.32    0.19
   4  -8  -5    5.12    0.24
   4  -8  -5    5.31    0.25
   4  -8  -5    5.24    0.27
   4  -8  -5    4.84    0.48
   3  -8  -5   14.65    0.88
   3  -8  -5   14.54    0.50
   3  -8  -5   14.45    0.45
   3  -8  -5   14.48    0.46
   2  -8  -5    2.36    0.12
   2  -8  -5    2.40    0.16
   1  -8  -5    6.71    0.23
  -1   8   5    6.96    0.22
  -1   8   5    6.42    0.23
   0  -8  -5    3.61    0.18
   0  -8  -5    3.52    0.16
   0  -8  -5    3.62    0.17
   0   8   5    3.32    0.17
   0   8   5    3.54    0.19
  -1  -8  -5   -0.06    0.10
  -1  -8  -5   -0.04    0.09
  -1  -8  -5   -0.04    0.08
   1   8   5   -0.01    0.07
   1   8   5    0.08    0.11
   1   8   5   -0.04    0.08
  -2  -8  -5    2.98    0.19
  -2  -8  -5    3.29    0.21
   2   8   5    3.10    0.23
   2   8   5    3.39    0.21
   2   8   5    3.14    0.29
   2  10  -6   -0.03    0.09
   2  10  -6   -0.02    0.10
  -2 -10   6    0.07    0.11
  -2 -10   6    0.02    0.12
   1  10  -6    9.14    0.35
   1  10  -6    9.75    0.34
  -1 -10   6    9.41    0.37
  -1 -10   6    9.54    0.38
   0  10  -6    0.08    0.17
   0  10  -6    0.34    0.09
   0 -10   6    0.37    0.11
   0 -10   6    0.00    0.30
   0 -10   6    0.28    0.10
  -1  10  -6    1.02    0.14
  -1  10  -6    1.18    0.19
  -1  10  -6    1.00    0.16
   1 -10   6    1.23    0.42
   1 -10   6    1.62    0.20
   1 -10   6    1.21    0.17
  -2  10  -6    8.88    0.34
  -2  10  -6    8.87    0.42
  -2  10  -6    9.22    0.38
   2 -10   6    9.55    0.36
   2 -10   6    9.33    0.35
  -3  10  -6    1.58    0.17
  -3  10  -6    1.28    0.26
  -3  10  -6    1.23    0.20
   3 -10   6    1.76    0.19
   3 -10   6    1.41    0.21
  -4  10  -6    0.40    0.19
  -4  10  -6    0.48    0.10
  -4  10  -6    0.33    0.20
   4 -10   6    0.51    0.11
   4 -10   6    0.70    0.13
   3   9  -6    2.73    0.21
   3   9  -6    2.53    0.20
  -3  -9   6    2.86    0.24
  -3  -9   6    2.64    0.23
   2   9  -6    0.15    0.15
   2   9  -6    0.12    0.09
   2   9  -6    0.20    0.08
  -2  -9   6    0.30    0.11
  -2  -9   6   -0.28    0.53
  -2  -9   6    0.11    0.10
   1   9  -6    2.95    0.27
   1   9  -6    2.98    0.25
   1   9  -6    3.58    0.21
  -1  -9   6    2.86    0.56
  -1  -9   6    3.17    0.21
  -1  -9   6    3.24    0.21
   0   9  -6    1.20    0.23
   0   9  -6    1.25    0.15
   0   9  -6    1.11    0.21
   0  -9   6    1.17    0.16
   0  -9   6    1.43    0.17
   0  -9   6    1.28    0.46
  -1   9  -6   19.54    0.62
  -1   9  -6   19.72    0.59
  -1   9  -6   19.88    0.61
   1  -9   6   20.59    0.60
   1  -9   6   20.43    0.60
   1  -9   6   20.87    1.11
  -2   9  -6    0.23    0.08
  -2   9  -6    0.59    0.14
  -2   9  -6    0.17    0.11
   2  -9   6    0.33    0.09
   2  -9   6    0.35    0.09
  -3   9  -6    1.05    0.14
  -3   9  -6    0.97    0.22
  -3   9  -6    1.17    0.17
   3  -9   6    0.96    0.15
   3  -9   6    0.87    0.12
   3  -9   6    0.97    0.15
  -4   9  -6    8.13    0.38
  -4   9  -6    7.80    0.31
  -4   9  -6    8.64    0.42
   4  -9   6    8.20    0.33
   4  -9   6    8.79    0.34
  -5   9  -6    0.49    0.20
  -5   9  -6    0.32    0.18
  -5   9  -6    0.33    0.10
   5  -9   6    0.32    0.16
   5  -9   6    0.40    0.12
   5  -9   6    0.17    0.10
   5   8  -6    0.12    0.11
   5   8  -6   -0.22    0.11
   4   8  -6    1.96    0.27
   4   8  -6    1.68    0.20
   4   8  -6    1.89    0.19
  -4  -8   6    1.70    0.20
  -4  -8   6    1.19    0.21
   3   8  -6    4.69    0.24
   3   8  -6    4.45    0.24
   3   8  -6    4.16    0.29
  -3  -8   6    4.17    0.25
  -3  -8   6    4.20    0.23
   2   8  -6    0.43    0.12
   2   8  -6    0.37    0.11
   2   8  -6    0.52    0.10
  -2  -8   6    0.32    0.09
  -2  -8   6    0.33    0.08
  -2  -8   6   -0.18    0.40
   1   8  -6    4.58    0.25
   1   8  -6    4.57    0.22
   1   8  -6    4.26    0.24
  -1  -8   6    4.24    0.50
  -1  -8   6    4.62    0.22
  -1  -8   6    4.69    0.22
   0   8  -6   -0.04    0.09
   0   8  -6   -0.01    0.10
   0   8  -6    0.08    0.07
   0  -8   6    0.12    0.07
   0  -8   6    0.17    0.08
   0  -8   6    0.07    0.18
  -1   8  -6    3.30    0.21
  -1   8  -6    3.40    0.19
  -1   8  -6    3.95    0.23
   1  -8   6    3.43    0.19
   1  -8   6    3.75    0.36
   1  -8   6    3.32    0.20
  -2   8  -6    1.99    0.17
  -2   8  -6    1.82    0.19
  -2   8  -6    1.65    0.14
   2  -8   6    1.53    0.15
   2  -8   6    1.51    0.16
  -3   8  -6   36.83    1.04
  -3   8  -6   40.07    1.18
  -3   8  -6   40.03    1.04
  -3   8  -6   39.28    1.04
   3  -8   6   37.49    1.12
   3  -8   6   38.99    1.08
   3  -8   6   40.41    1.04
   3  -8   6   40.64    1.05
  -4   8  -6    1.55    0.22
  -4   8  -6    1.09    0.14
  -4   8  -6    0.90    0.21
   4  -8   6    1.09    0.15
   4  -8   6    1.18    0.16
   4  -8   6    1.17    0.15
   4  -8   6    1.49    0.25
  -5   8  -6    6.49    0.28
  -5   8  -6    6.57    0.39
  -5   8  -6    6.82    0.36
   5  -8   6    7.20    0.34
   5  -8   6    7.11    0.39
   5  -8   6    7.52    0.30
   5  -8   6    6.98    0.30
   5  -8   6    7.53    0.33
  -6   8  -6    5.26    0.26
  -6   8  -6    5.28    0.39
   6  -8   6    5.51    0.38
   6  -8   6    5.52    0.28
   6  -8   6    5.62    0.28
   6  -8   6    5.15    0.35
   5   7  -6    3.88    0.25
   5   7  -6    3.49    0.25
   5   7  -6    3.11    0.31
  -5  -7   6    3.19    0.23
  -5  -7   6    3.11    0.25
   4   7  -6    5.84    0.28
   4   7  -6    5.85    0.31
   4   7  -6    6.05    0.27
  -4  -7   6    5.94    0.28
  -4  -7   6    5.63    0.26
  -4  -7   6    5.25    0.31
   3   7  -6    0.67    0.11
   3   7  -6    1.06    0.14
   3   7  -6    0.74    0.11
  -3  -7   6    1.05    0.14
  -3  -7   6    0.80    0.39
  -3  -7   6    0.71    0.11
  -3  -7   6    0.70    0.12
   2   7  -6    4.85    0.23
   2   7  -6    4.99    0.22
   2   7  -6    5.01    0.25
  -2  -7   6    4.29    0.52
  -2  -7   6    4.44    0.22
  -2  -7   6    5.21    0.23
  -2  -7   6    4.91    0.22
   1   7  -6    8.62    0.32
   1   7  -6    8.58    0.31
  -1  -7   6    9.05    0.63
  -1  -7   6    8.48    0.31
  -1  -7   6    9.21    0.31
   0   7  -6    7.32    0.28
   0   7  -6    7.64    0.28
   0   7  -6    7.08    0.27
   0  -7   6    7.04    0.27
   0  -7   6    7.59    0.27
   0  -7   6    7.98    0.54
  -1   7  -6   22.66    0.63
  -1   7  -6   23.59    0.64
  -1   7  -6   22.68    0.63
   1  -7   6   23.33    0.63
   1  -7   6   22.87    0.64
   1  -7   6   21.25    1.17
  -2   7  -6    0.07    0.07
  -2   7  -6    0.18    0.06
  -2   7  -6    0.11    0.08
  -2   7  -6    0.09    0.26
   2  -7   6    0.07    0.07
   2  -7   6    0.20    0.07
  -3   7  -6    0.05    0.06
  -3   7  -6    0.09    0.08
  -3   7  -6    0.27    0.23
  -3   7  -6    0.13    0.09
  -3   7  -6   -0.16    0.09
   3  -7   6    0.13    0.08
   3  -7   6    0.09    0.06
   3  -7   6   -0.07    0.07
   3  -7   6   -0.01    0.06
  -4   7  -6    4.52    0.22
  -4   7  -6    5.14    0.28
  -4   7  -6    4.97    0.25
  -4   7  -6    4.29    0.21
   4  -7   6    4.49    0.22
   4  -7   6    4.61    0.23
   4  -7   6    4.82    0.23
   4  -7   6    4.81    0.28
  -5   7  -6   18.43    0.58
  -5   7  -6   17.74    0.64
  -5   7  -6   18.01    0.55
   5  -7   6   19.68    0.58
   5  -7   6   18.61    0.58
   5  -7   6   18.18    0.56
   5  -7   6   18.28    0.60
   5  -7   6   18.19    0.55
  -6   7  -6    0.72    0.19
  -6   7  -6    0.65    0.10
   6  -7   6    0.93    0.18
   6  -7   6    0.50    0.11
   6  -7   6    0.64    0.11
   6  -7   6    0.48    0.14
   6  -7   6    0.65    0.16
   6   6  -6    6.20    0.31
   6   6  -6    5.78    0.32
   6   6  -6    6.24    0.39
  -6  -6   6    6.93    0.32
  -6  -6   6    6.63    0.30
   5   6  -6    1.89    0.24
   5   6  -6    1.74    0.19
   5   6  -6    1.90    0.19
  -5  -6   6    1.70    0.17
  -5  -6   6    2.23    0.27
  -5  -6   6    1.48    0.20
   4   6  -6    2.77    0.18
   4   6  -6    2.78    0.21
   4   6  -6    2.66    0.19
  -4  -6   6    2.74    0.23
  -4  -6   6    2.67    0.17
  -4  -6   6    2.71    0.20
   3   6  -6   14.91    0.46
   3   6  -6   14.59    0.45
   3   6  -6   14.75    0.50
  -3  -6   6   14.69    0.45
  -3  -6   6   15.53    0.47
  -3  -6   6   14.61    0.46
   2   6  -6    8.94    0.31
   2   6  -6    9.72    0.33
  -2  -6   6    8.83    0.31
  -2  -6   6    8.79    0.63
  -2  -6   6    9.11    0.31
   1   6  -6   12.63    0.39
   1   6  -6   12.35    0.38
   1   6  -6   12.55    0.38
  -1  -6   6   12.57    0.76
  -1  -6   6   12.34    0.38
  -1  -6   6   12.29    0.38
  -1  -6   6   12.40    0.38
   0   6  -6   12.61    0.38
   0   6  -6   11.90    0.37
   0   6  -6   12.06    0.38
   0  -6   6   12.27    0.38
   0  -6   6   12.15    0.38
   0  -6   6   12.72    0.72
  -1   6  -6    1.47    0.13
  -1   6  -6    1.57    0.12
  -1   6  -6    1.63    0.13
   1  -6   6    1.60    0.24
   1  -6   6    1.82    0.13
   1  -6   6    1.51    0.12
  -2   6  -6    1.64    0.12
  -2   6  -6    1.87    0.14
  -2   6  -6    1.93    0.14
  -2   6  -6    1.27    0.31
   2  -6   6    1.53    0.13
   2  -6   6    1.94    0.14
   2  -6   6    1.36    0.13
  -3   6  -6   19.78    0.57
  -3   6  -6   20.22    0.57
  -3   6  -6   20.09    0.57
  -3   6  -6   20.67    1.07
   3  -6   6   19.71    0.59
   3  -6   6   19.98    0.57
   3  -6   6   20.60    0.62
   3  -6   6   20.36    0.58
  -4   6  -6    1.57    0.19
  -4   6  -6    2.51    0.30
  -4   6  -6    1.83    0.14
  -4   6  -6    1.66    0.17
  -4   6  -6    1.91    0.16
   4  -6   6    1.75    0.15
   4  -6   6    1.98    0.15
   4  -6   6    1.95    0.19
   4  -6   6    1.75    0.17
   4  -6   6    1.74    0.15
  -5   6  -6    0.88    0.13
  -5   6  -6    0.81    0.12
  -5   6  -6    0.86    0.16
  -5   6  -6    1.00    0.22
  -5   6  -6    1.01    0.19
   5  -6   6    1.13    0.19
   5  -6   6    0.93    0.14
   5  -6   6    0.70    0.12
   5  -6   6    0.90    0.14
   5  -6   6    1.04    0.15
  -6   6  -6    0.41    0.15
  -6   6  -6    0.54    0.09
   6  -6   6    0.78    0.15
   6  -6   6    0.62    0.11
   6  -6   6    0.81    0.15
   6  -6   6    0.61    0.13
   6  -6   6    0.78    0.15
  -7   6  -6    3.60    0.22
  -7   6  -6    3.52    0.36
   7  -6   6    3.71    0.24
   7  -6   6    3.23    0.24
   7  -6   6    3.57    0.26
   7  -6   6    3.69    0.31
   7  -6   6    3.77    0.33
   6   5  -6    0.45    0.12
   6   5  -6    0.33    0.15
   6   5  -6    0.36    0.11
  -6  -5   6    0.42    0.09
  -6  -5   6    0.31    0.13
  -6  -5   6    0.46    0.12
  -6  -5   6    0.50    0.16
   5   5  -6    8.72    0.32
   5   5  -6    9.02    0.37
   5   5  -6    8.79    0.35
  -5  -5   6    8.47    0.34
  -5  -5   6    8.49    0.32
  -5  -5   6    8.97    0.36
  -5  -5   6    8.43    0.33
   4   5  -6   16.87    0.50
   4   5  -6   16.06    0.55
   4   5  -6   16.38    0.48
  -4  -5   6   15.80    0.49
  -4  -5   6   15.76    0.48
  -4  -5   6   15.85    0.51
  -4  -5   6   16.83    0.50
   3   5  -6    0.35    0.08
   3   5  -6    0.10    0.27
   3   5  -6    0.20    0.06
  -3  -5   6    0.22    0.06
  -3  -5   6    0.15    0.07
  -3  -5   6    0.31    0.08
   2   5  -6    1.04    0.12
   2   5  -6    0.45    0.27
   2   5  -6    0.89    0.10
  -2  -5   6    0.94    0.11
  -2  -5   6    1.16    0.12
  -2  -5   6    0.70    0.25
  -2  -5   6    1.07    0.10
  -2  -5   6    1.00    0.11
   1   5  -6   12.17    0.36
   1   5  -6   11.29    0.35
  -1  -5   6   11.65    0.36
  -1  -5   6   11.71    0.36
  -1  -5   6   12.13    0.70
  -1  -5   6   12.04    0.36
   0   5  -6    4.42    0.18
   0   5  -6    4.76    0.19
   0  -5   6    4.72    0.18
   0  -5   6    4.97    0.36
   0  -5   6    4.60    0.19
   0  -5   6    4.50    0.18
  -1   5  -6    6.43    0.49
  -1   5  -6    6.27    0.23
  -1   5  -6    6.92    0.24
  -1   5  -6    6.56    0.23
   1  -5   6    6.34    0.23
   1  -5   6    6.77    0.23
  -2   5  -6   10.50    0.61
  -2   5  -6   10.51    0.32
  -2   5  -6    9.82    0.32
  -2   5  -6   10.75    0.33
   2  -5   6   10.41    0.32
   2  -5   6    9.81    0.33
   2  -5   6   10.04    0.32
  -3   5  -6    0.13    0.07
  -3   5  -6    0.14    0.06
  -3   5  -6    0.13    0.06
  -3   5  -6    0.11    0.06
  -3   5  -6    0.13    0.11
   3  -5   6    0.16    0.06
   3  -5   6    0.26    0.07
   3  -5   6    0.10    0.06
   3  -5   6    0.18    0.06
  -4   5  -6    7.09    0.27
  -4   5  -6    7.00    0.26
  -4   5  -6    6.79    0.30
  -4   5  -6    7.57    0.45
  -4   5  -6    7.16    0.27
  -4   5  -6    7.09    0.27
   4  -5   6    7.12    0.30
   4  -5   6    7.21    0.27
   4  -5   6    6.71    0.27
   4  -5   6    7.02    0.27
   4  -5   6    7.31    0.28
  -5   5  -6   12.63    0.42
  -5   5  -6   12.68    0.68
  -5   5  -6   12.16    0.40
  -5   5  -6   11.90    0.49
  -5   5  -6   11.94    0.40
  -5   5  -6   12.69    0.42
   5  -5   6   12.79    0.42
   5  -5   6   12.40    0.41
   5  -5   6   13.02    0.41
   5  -5   6   12.57    0.41
   5  -5   6   12.71    0.43
  -6   5  -6   -0.27    0.12
  -6   5  -6    0.05    0.12
  -6   5  -6    0.08    0.08
  -6   5  -6    0.12    0.11
   6  -5   6    0.01    0.11
   6  -5   6    0.04    0.07
   6  -5   6   -0.03    0.10
   6  -5   6   -0.05    0.07
   6  -5   6    0.03    0.08
  -7   5  -6    3.99    0.22
  -7   5  -6    3.30    0.34
   7  -5   6    3.84    0.33
   7  -5   6    3.55    0.24
   7  -5   6    3.79    0.23
   7  -5   6    3.56    0.29
   7  -5   6    3.92    0.24
   7   4  -6    0.20    0.10
   7   4  -6    0.30    0.16
   7   4  -6    0.07    0.11
  -7  -4   6   -0.16    0.08
  -7  -4   6    0.02    0.18
  -7  -4   6    0.30    0.11
  -7  -4   6   -0.02    0.13
   6   4  -6    2.58    0.23
   6   4  -6    2.73    0.20
   6   4  -6    2.23    0.21
  -6  -4   6    2.33    0.17
  -6  -4   6    2.37    0.20
  -6  -4   6    2.55    0.20
  -6  -4   6    2.92    0.26
   5   4  -6    7.57    0.28
   5   4  -6    7.33    0.32
   5   4  -6    7.44    0.30
  -5  -4   6    7.10    0.27
  -5  -4   6    7.07    0.28
  -5  -4   6    7.47    0.30
   4   4  -6    0.02    0.07
   4   4  -6    0.01    0.06
   4   4  -6    0.02    0.07
   4   4  -6    0.15    0.28
  -4  -4   6    0.15    0.08
  -4  -4   6   -0.02    0.05
  -4  -4   6    0.04    0.08
   3   4  -6   12.01    0.36
   3   4  -6   12.15    0.37
  -3  -4   6   11.56    0.36
  -3  -4   6   12.34    0.37
  -3  -4   6   12.03    0.39
   2   4  -6   28.61    0.74
   2   4  -6   29.64    0.75
  -2  -4   6   26.17    0.75
  -2  -4   6   28.14    0.74
  -2  -4   6   29.29    0.75
  -2  -4   6   28.81    0.80
   1   4  -6    5.36    0.20
   1   4  -6    5.15    0.19
   1   4  -6    4.61    0.43
  -1  -4   6    5.65    0.20
  -1  -4   6    5.60    0.20
  -1  -4   6    5.42    0.38
  -1  -4   6    5.43    0.20
   0   4  -6    8.79    0.27
   0   4  -6    8.68    0.27
   0   4  -6    9.08    0.56
   0  -4   6    7.98    0.51
   0  -4   6    8.76    0.27
   0  -4   6    8.35    0.27
   0  -4   6    8.34    0.27
  -1   4  -6    8.01    0.26
  -1   4  -6    8.18    0.51
  -1   4  -6    8.11    0.26
  -1   4  -6    7.84    0.26
   1  -4   6    7.99    0.26
   1  -4   6    7.68    0.26
  -2   4  -6    7.58    0.26
  -2   4  -6    7.80    0.26
  -2   4  -6    7.97    0.48
  -2   4  -6    7.53    0.25
  -2   4  -6    7.91    0.26
   2  -4   6    7.43    0.25
   2  -4   6    7.23    0.25
   2  -4   6    7.51    0.26
  -3   4  -6   18.53    0.53
  -3   4  -6   18.15    0.53
  -3   4  -6   19.12    0.53
  -3   4  -6   19.24    0.98
  -3   4  -6   19.28    0.53
   3  -4   6   19.20    0.56
   3  -4   6   18.61    0.54
   3  -4   6   18.95    0.53
   3  -4   6   19.27    0.53
   3  -4   6   18.39    0.53
  -4   4  -6   18.33    0.52
  -4   4  -6   17.31    0.51
  -4   4  -6   18.03    0.94
  -4   4  -6   17.65    0.52
  -4   4  -6   16.72    0.51
   4  -4   6   17.74    0.52
   4  -4   6   18.26    0.55
   4  -4   6   18.47    0.52
   4  -4   6   17.31    0.52
   4  -4   6   17.84    0.51
  -5   4  -6    0.18    0.08
  -5   4  -6    0.16    0.06
  -5   4  -6    0.27    0.10
  -5   4  -6    0.16    0.08
   5  -4   6    0.10    0.08
   5  -4   6    0.20    0.08
   5  -4   6    0.25    0.08
   5  -4   6    0.19    0.08
   5  -4   6    0.24    0.09
  -6   4  -6    6.92    0.33
  -6   4  -6    7.80    0.30
   6  -4   6    7.32    0.30
   6  -4   6    7.68    0.30
   6  -4   6    7.62    0.31
   6  -4   6    8.04    0.32
   6  -4   6    8.27    0.35
  -7   4  -6    3.98    0.23
  -7   4  -6    4.27    0.33
   7  -4   6    4.50    0.28
   7  -4   6    4.07    0.33
   7  -4   6    4.39    0.24
   7  -4   6    4.69    0.26
   7  -4   6    4.17    0.24
   7   3  -6    0.31    0.11
   7   3  -6    0.42    0.15
  -7  -3   6    0.40    0.15
  -7  -3   6    0.45    0.09
  -7  -3   6    0.41    0.10
  -7  -3   6    0.45    0.14
   6   3  -6    4.07    0.21
   6   3  -6    3.88    0.24
   6   3  -6    4.25    0.24
  -6  -3   6    4.09    0.23
  -6  -3   6    3.81    0.20
  -6  -3   6    3.94    0.25
  -6  -3   6    3.77    0.20
   5   3  -6    5.36    0.24
   5   3  -6    5.24    0.26
   5   3  -6    5.21    0.22
  -5  -3   6    4.57    0.22
  -5  -3   6    5.44    0.23
  -5  -3   6    5.04    0.21
  -5  -3   6    5.30    0.24
   4   3  -6   21.11    0.57
   4   3  -6   21.05    0.67
   4   3  -6   21.39    0.58
  -4  -3   6   19.02    0.57
  -4  -3   6   21.10    0.57
  -4  -3   6   20.68    0.60
  -4  -3   6   21.57    0.58
   3   3  -6   16.44    0.47
   3   3  -6   17.16    1.00
   3   3  -6   16.46    0.46
  -3  -3   6   16.39    0.46
  -3  -3   6   16.67    0.49
  -3  -3   6   17.18    0.47
  -3  -3   6   17.02    0.47
   2   3  -6   10.15    0.31
  -2  -3   6   10.08    0.33
  -2  -3   6   10.20    0.31
  -2  -3   6   10.66    0.31
  -2  -3   6   10.32    0.31
   1   3  -6   69.58    1.72
   1   3  -6   68.87    3.38
   1   3  -6   69.19    1.73
  -1  -3   6   69.51    1.73
  -1  -3   6   69.11    1.72
  -1  -3   6   70.82    1.72
  -1  -3   6   72.38    1.87
   0   3  -6   32.54    0.81
   0   3  -6   32.10    1.57
   0   3  -6   31.20    0.80
   0   3  -6   26.26    0.81
   0  -3   6   32.70    0.80
   0  -3   6   31.56    0.80
   0  -3   6   31.98    0.80
  -1   3  -6    9.44    0.57
  -1   3  -6    9.79    0.30
  -1   3  -6    9.91    0.30
  -1   3  -6    9.70    0.29
   1  -3   6    9.52    0.30
   1  -3   6   10.56    0.30
   1  -3   6    9.71    0.30
  -2   3  -6   22.34    1.13
  -2   3  -6   21.48    0.64
  -2   3  -6   22.06    0.59
  -2   3  -6   22.05    0.59
  -2   3  -6   21.94    0.60
   2  -3   6   22.72    0.59
   2  -3   6   21.71    0.60
   2  -3   6   22.18    0.59
   2  -3   6   21.68    0.59
  -3   3  -6    0.50    0.10
  -3   3  -6    0.32    0.06
  -3   3  -6    0.44    0.09
  -3   3  -6    0.35    0.06
   3  -3   6    0.46    0.07
   3  -3   6    0.41    0.07
   3  -3   6    0.55    0.09
   3  -3   6    0.50    0.09
   3  -3   6    0.46    0.07
   3  -3   6    0.42    0.07
  -4   3  -6    4.29    0.19
  -4   3  -6    4.35    0.21
  -4   3  -6    4.41    0.20
  -4   3  -6    4.24    0.20
  -4   3  -6    4.44    0.19
   4  -3   6    4.38    0.20
   4  -3   6    4.55    0.19
   4  -3   6    3.97    0.19
   4  -3   6    4.29    0.20
   4  -3   6    4.16    0.19
  -5   3  -6    5.08    0.24
  -5   3  -6    4.82    0.23
  -5   3  -6    5.02    0.23
  -5   3  -6    4.56    0.21
   5  -3   6    4.99    0.23
   5  -3   6    4.52    0.22
   5  -3   6    4.64    0.21
   5  -3   6    4.96    0.24
   5  -3   6    4.82    0.22
  -6   3  -6    3.38    0.24
  -6   3  -6    3.43    0.19
  -6   3  -6    3.13    0.20
   6  -3   6    3.41    0.21
   6  -3   6    2.89    0.19
   6  -3   6    3.56    0.21
   6  -3   6    3.43    0.20
   6  -3   6    3.28    0.25
  -7   3  -6    4.40    0.24
  -7   3  -6    4.11    0.32
   7  -3   6    4.35    0.31
   7  -3   6    4.26    0.27
   7  -3   6    4.75    0.26
   7  -3   6    4.63    0.25
   7  -3   6    4.55    0.24
   7   2  -6    0.01    0.09
   7   2  -6    0.19    0.12
  -7  -2   6   -0.06    0.07
  -7  -2   6    0.19    0.13
   6   2  -6    3.03    0.20
   6   2  -6    3.22    0.18
   6   2  -6    3.02    0.21
   6   2  -6    2.63    0.18
  -6  -2   6    2.94    0.21
  -6  -2   6    3.27    0.17
  -6  -2   6    3.10    0.17
   5   2  -6    5.26    0.21
   5   2  -6    5.51    0.22
   5   2  -6    5.69    0.27
   5   2  -6    5.69    0.23
   5   2  -6    5.83    0.59
  -5  -2   6    5.60    0.21
  -5  -2   6    5.76    0.21
  -5  -2   6    5.48    0.23
   4   2  -6    2.60    0.13
   4   2  -6    2.37    0.16
   4   2  -6    2.54    0.14
   4   2  -6    2.43    0.42
  -4  -2   6    2.60    0.15
  -4  -2   6    2.34    0.13
  -4  -2   6    2.67    0.15
   3   2  -6   16.37    0.46
   3   2  -6   16.43    0.45
  -3  -2   6   16.57    0.49
  -3  -2   6   16.28    0.45
  -3  -2   6   17.29    0.46
   2   2  -6   55.48    2.62
   2   2  -6   52.22    1.32
  -2  -2   6   52.26    1.31
  -2  -2   6   54.16    1.31
  -2  -2   6   51.79    1.41
  -2  -2   6   52.71    1.32
   1   2  -6    1.15    0.10
   1   2  -6    1.27    0.23
   1   2  -6    1.07    0.08
   1   2  -6    1.16    0.09
  -1  -2   6    0.93    0.09
  -1  -2   6    1.06    0.08
  -1  -2   6    1.21    0.09
  -1  -2   6    1.25    0.08
   0   2  -6   76.49    1.84
   0   2  -6   74.66    1.83
   0   2  -6   75.56    1.89
   0   2  -6   74.21    3.59
   0  -2   6   74.69    1.84
   0  -2   6   76.18    1.83
   0  -2   6   72.96    1.83
  -1   2  -6   15.29    0.42
  -1   2  -6   15.37    0.42
  -1   2  -6   15.12    0.81
  -1   2  -6   14.76    0.46
  -1   2  -6   14.86    0.41
   1  -2   6   15.07    0.42
   1  -2   6   15.08    0.42
   1  -2   6   14.80    0.41
  -2   2  -6    0.01    0.04
  -2   2  -6   -0.02    0.04
  -2   2  -6    0.09    0.04
  -2   2  -6    0.04    0.04
   2  -2   6    0.04    0.04
   2  -2   6    0.11    0.04
   2  -2   6    0.11    0.04
   2  -2   6    0.06    0.04
   2  -2   6    0.01    0.04
  -3   2  -6   32.71    0.85
  -3   2  -6   32.21    0.85
  -3   2  -6   32.33    0.90
  -3   2  -6   32.32    0.84
   3  -2   6   31.12    0.84
   3  -2   6   31.98    0.85
   3  -2   6   31.40    0.85
   3  -2   6   33.08    0.84
   3  -2   6   33.02    0.90
   3  -2   6   32.89    0.85
  -4   2  -6    7.40    0.26
  -4   2  -6    6.82    0.27
  -4   2  -6    7.40    0.25
   4  -2   6    7.60    0.27
   4  -2   6    7.08    0.26
   4  -2   6    7.14    0.25
   4  -2   6    7.42    0.27
   4  -2   6    7.27    0.26
   4  -2   6    6.96    0.26
  -5   2  -6    0.58    0.09
  -5   2  -6    0.39    0.07
  -5   2  -6    0.26    0.08
   5  -2   6    0.80    0.11
   5  -2   6    0.45    0.09
   5  -2   6    0.41    0.08
   5  -2   6    0.37    0.08
   5  -2   6    0.39    0.11
   5  -2   6    0.49    0.10
  -6   2  -6    5.36    0.28
  -6   2  -6    5.71    0.26
  -6   2  -6    5.76    0.25
   6  -2   6    6.07    0.26
   6  -2   6    5.85    0.26
   6  -2   6    5.73    0.24
   6  -2   6    5.68    0.29
   6  -2   6    5.26    0.27
  -7   2  -6    4.16    0.23
  -7   2  -6    5.07    0.25
   7  -2   6    5.07    0.26
   7  -2   6    4.42    0.33
   7  -2   6    4.26    0.23
   7  -2   6    4.66    0.25
   8   1  -6    0.24    0.10
  -8  -1   6    0.15    0.09
  -8  -1   6   -0.23    0.16
   7   1  -6    2.72    0.19
   7   1  -6    3.09    0.23
  -7  -1   6    2.95    0.25
  -7  -1   6    2.84    0.17
  -7  -1   6    2.94    0.22
   6   1  -6    2.08    0.14
   6   1  -6    2.19    0.17
   6   1  -6    2.11    0.17
   6   1  -6    2.16    0.46
   6   1  -6    2.26    0.16
  -6  -1   6    2.04    0.14
  -6  -1   6    1.88    0.17
  -6  -1   6    2.06    0.12
  -6  -1   6    2.06    0.42
  -6  -1   6    1.83    0.16
   5   1  -6    4.07    0.17
   5   1  -6    4.07    0.51
   5   1  -6    4.11    0.18
   5   1  -6    4.32    0.22
  -5  -1   6    4.15    0.18
  -5  -1   6    4.21    0.19
  -5  -1   6    4.29    0.17
  -5  -1   6    4.08    0.17
   4   1  -6   14.27    0.39
   4   1  -6   13.92    0.40
   4   1  -6   13.91    0.39
   4   1  -6   13.51    0.48
  -4  -1   6   13.41    0.39
  -4  -1   6   14.81    0.40
  -4  -1   6   14.31    0.39
  -4  -1   6   14.80    0.42
   3   1  -6   -0.01    0.18
   3   1  -6    0.09    0.04
   3   1  -6   -0.01    0.04
   3   1  -6    0.03    0.04
  -3  -1   6    0.06    0.05
  -3  -1   6    0.13    0.05
  -3  -1   6    0.08    0.04
  -3  -1   6    0.10    0.04
   2   1  -6    8.47    0.25
   2   1  -6    8.70    0.25
   2   1  -6    8.60    0.55
   2   1  -6    8.69    0.28
  -2  -1   6    8.74    0.25
  -2  -1   6    8.26    0.25
  -2  -1   6    8.57    0.28
  -2  -1   6    8.04    0.25
   1   1  -6   76.46    1.83
   1   1  -6   76.16    1.99
   1   1  -6   72.41    3.63
   1   1  -6   76.13    1.85
  -1  -1   6   75.68    1.84
  -1  -1   6   77.04    1.99
  -1  -1   6   75.20    1.84
   0   1  -6    8.69    0.53
   0   1  -6    8.81    0.29
   0   1  -6    8.89    0.26
   0  -1   6    8.42    0.26
   0  -1   6    8.85    0.26
   0  -1   6    8.52    0.25
  -1   1  -6    1.04    0.10
  -1   1  -6    1.00    0.07
  -1   1  -6    1.09    0.08
  -1   1  -6    1.13    0.09
   1  -1   6    1.00    0.09
   1  -1   6    1.07    0.08
   1  -1   6    1.05    0.09
  -2   1  -6   66.48    1.80
  -2   1  -6   69.81    1.71
  -2   1  -6   65.85    1.67
  -2   1  -6   65.14    1.68
   2  -1   6   69.12    1.68
   2  -1   6   69.37    1.67
   2  -1   6   68.67    1.67
  -3   1  -6   16.19    0.44
  -3   1  -6   15.62    0.45
  -3   1  -6   15.61    0.49
  -3   1  -6   16.59    0.46
   3  -1   6   16.11    0.45
   3  -1   6   16.12    0.45
   3  -1   6   16.25    0.46
   3  -1   6   15.60    0.44
   3  -1   6   15.13    0.45
  -4   1  -6    0.07    0.05
  -4   1  -6    0.11    0.07
  -4   1  -6    0.04    0.05
   4  -1   6    0.10    0.06
   4  -1   6    0.06    0.08
   4  -1   6    0.06    0.06
   4  -1   6    0.07    0.06
   4  -1   6    0.05    0.05
   4  -1   6    0.18    0.06
  -5   1  -6    6.38    0.25
  -5   1  -6    6.48    0.27
   5  -1   6    6.11    0.26
   5  -1   6    6.44    0.27
   5  -1   6    6.20    0.23
   5  -1   6    6.20    0.26
   5  -1   6    6.40    0.25
   5  -1   6    6.14    0.25
  -6   1  -6    4.07    0.25
  -6   1  -6    4.42    0.23
  -6   1  -6    4.39    0.23
   6  -1   6    4.50    0.27
   6  -1   6    4.37    0.25
   6  -1   6    4.51    0.23
   6  -1   6    4.23    0.21
   6  -1   6    4.12    0.23
  -7   1  -6   -0.06    0.08
  -7   1  -6   -0.16    0.09
   7  -1   6   -0.02    0.09
   7  -1   6   -0.04    0.09
   7  -1   6    0.10    0.16
   7  -1   6   -0.06    0.09
   8   0  -6    3.34    0.26
   8   0  -6    2.94    0.20
  -8   0   6    2.48    0.25
  -8   0   6    2.89    0.29
  -8   0   6    3.24    0.20
   7   0  -6    0.27    0.10
   7   0  -6    0.17    0.10
   7   0  -6    0.26    0.09
   7   0  -6   -0.03    0.36
  -7   0   6   -0.03    0.28
  -7   0   6    0.27    0.07
  -7   0   6    0.19    0.11
  -7   0   6    0.09    0.11
   6   0  -6    1.38    0.45
   6   0  -6    1.75    0.14
   6   0  -6    1.75    0.16
   6   0  -6    1.39    0.15
   6   0  -6    1.81    0.14
  -6   0   6    1.53    0.12
  -6   0   6    1.83    0.15
  -6   0   6    1.50    0.15
  -6   0   6    1.10    0.40
   5   0  -6   10.01    0.31
   5   0  -6   10.74    0.40
   5   0  -6   10.53    0.30
   5   0  -6   10.63    0.30
  -5   0   6   10.42    0.31
  -5   0   6   10.34    0.68
  -5   0   6    9.77    0.30
  -5   0   6    9.82    0.30
  -5   0   6   10.75    0.32
   4   0  -6    0.21    0.23
   4   0  -6    0.13    0.04
   4   0  -6    0.14    0.05
   4   0  -6    0.11    0.04
   4   0  -6    0.09    0.06
  -4   0   6    0.12    0.05
  -4   0   6    0.13    0.05
  -4   0   6    0.08    0.04
  -4   0   6    0.12    0.12
  -4   0   6    0.10    0.04
   3   0  -6    2.32    0.11
   3   0  -6    2.54    0.33
   3   0  -6    2.20    0.10
   3   0  -6    2.17    0.10
   3   0  -6    2.28    0.12
  -3   0   6    2.36    0.11
  -3   0   6    2.23    0.10
  -3   0   6    2.33    0.13
  -3   0   6    2.28    0.10
   2   0  -6   67.68    1.77
   2   0  -6   65.04    3.25
   2   0  -6   65.54    1.64
   2   0  -6   68.47    1.63
  -2   0   6   67.89    1.63
  -2   0   6   68.07    1.63
  -2   0   6   69.28    1.77
  -2   0   6   65.48    1.63
   1   0  -6    2.92    0.28
   1   0  -6    3.10    0.12
   1   0  -6    2.96    0.14
   1   0  -6    3.27    0.11
   1   0  -6    3.01    0.11
  -1   0   6    3.14    0.14
  -1   0   6    3.19    0.12
  -1   0   6    3.08    0.12
  -1   0   6    3.14    0.11
   0   0  -6   11.84    0.35
   0   0  -6   13.10    0.36
   0   0  -6   13.24    0.35
   0   0  -6   12.84    0.40
   0   0  -6   12.94    0.74
   0   0   6   13.71    0.36
   0   0   6   13.07    0.35
   0   0   6   13.42    0.35
  -1   0  -6   65.82    1.78
  -1   0  -6   69.91    1.68
  -1   0  -6   63.78    1.65
  -1   0  -6   68.24    1.66
   1   0   6   66.02    1.65
   1   0   6   69.18    1.66
   1   0   6   67.71    1.65
  -2   0  -6    4.31    0.16
  -2   0  -6    4.42    0.14
  -2   0  -6    4.14    0.19
  -2   0  -6    4.31    0.17
   2   0   6    4.43    0.17
   2   0   6    4.38    0.17
   2   0   6    4.36    0.17
  -3   0  -6    3.36    0.15
  -3   0  -6    3.27    0.15
  -3   0  -6    2.87    0.17
  -3   0  -6    3.30    0.16
   3   0   6    3.20    0.12
   3   0   6    3.10    0.15
   3   0   6    3.25    0.16
  -4   0  -6   16.18    0.47
  -4   0  -6   15.69    0.46
  -4   0  -6   15.99    0.50
   4   0   6   15.60    0.44
   4   0   6   15.19    0.46
   4   0   6   15.71    0.47
   4   0   6   16.34    0.47
   4   0   6   15.62    0.46
   4   0   6   15.86    0.49
  -5   0  -6    6.04    0.25
  -5   0  -6    5.79    0.25
  -5   0  -6    5.79    0.26
   5   0   6    5.70    0.27
   5   0   6    5.96    0.25
   5   0   6    6.10    0.25
   5   0   6    6.16    0.26
   5   0   6    5.70    0.21
  -6   0  -6    1.52    0.17
  -6   0  -6    1.21    0.17
  -6   0  -6    1.49    0.18
   6   0   6    1.36    0.14
   6   0   6    1.46    0.16
   6   0   6    1.30    0.17
   6   0   6    1.18    0.23
   6   0   6    1.42    0.21
  -7   0  -6    9.76    0.39
  -7   0  -6   10.03    0.38
  -7   0  -6    9.57    0.37
   7   0   6    9.60    0.35
   7   0   6    9.64    0.38
   7   0   6    9.58    0.37
   7   0   6    9.12    0.44
   7  -1  -6    1.06    0.16
   7  -1  -6    1.49    0.15
   7  -1  -6    1.08    0.17
   7  -1  -6    0.90    0.41
   7  -1  -6    1.00    0.18
  -7   1   6    1.46    0.55
  -7   1   6    1.27    0.13
  -7   1   6    1.13    0.14
  -7   1   6    1.25    0.18
   6  -1  -6   11.15    0.32
   6  -1  -6   11.40    0.43
   6  -1  -6   11.03    0.34
   6  -1  -6    9.97    0.79
   6  -1  -6   11.32    0.32
  -6   1   6   11.40    0.34
  -6   1   6   10.86    0.78
  -6   1   6   11.44    0.33
   5  -1  -6    1.22    0.14
   5  -1  -6    1.22    0.09
   5  -1  -6    1.29    0.09
   5  -1  -6    0.68    0.31
   5  -1  -6    1.28    0.11
  -5   1   6    1.15    0.09
  -5   1   6    1.49    0.32
  -5   1   6    1.24    0.11
   4  -1  -6    0.56    0.06
   4  -1  -6    0.47    0.08
   4  -1  -6    0.35    0.22
   4  -1  -6    0.59    0.07
   4  -1  -6    0.69    0.11
   4  -1  -6    0.61    0.06
  -4   1   6    0.60    0.07
  -4   1   6    0.59    0.06
  -4   1   6    0.53    0.06
   3  -1  -6   31.09    1.59
   3  -1  -6   30.89    0.75
   3  -1  -6   30.48    0.77
   3  -1  -6   30.72    0.75
   3  -1  -6   31.11    0.84
  -3   1   6   30.93    0.84
  -3   1   6   30.31    0.76
   2  -1  -6    0.51    0.05
   2  -1  -6    0.33    0.12
   2  -1  -6    0.42    0.08
   2  -1  -6    0.43    0.05
   2  -1  -6    0.37    0.06
  -2   1   6    0.41    0.05
  -2   1   6    0.44    0.04
  -2   1   6    0.29    0.05
  -2   1   6    0.41    0.08
  -2   1   6    0.40    0.05
   1  -1  -6   30.19    0.73
   1  -1  -6   30.71    0.74
   1  -1  -6   29.14    0.82
   1  -1  -6   30.26    1.51
   1  -1  -6   29.91    0.74
  -1   1   6   29.78    0.82
  -1   1   6   30.19    0.74
  -1   1   6   29.30    0.74
  -1   1   6   27.72    0.74
  -1   1   6   29.62    0.73
   0  -1  -6   56.19    1.52
   0  -1  -6   53.78    1.39
   0  -1  -6   57.87    1.39
   0  -1  -6   57.58    1.40
   0   1   6   58.56    1.39
   0   1   6   56.66    1.39
   0   1   6   57.62    1.39
  -1  -1  -6    0.06    0.03
  -1  -1  -6    0.06    0.04
  -1  -1  -6    0.07    0.04
  -1  -1  -6    0.08    0.04
  -1  -1  -6    0.07    0.03
   1   1   6    0.07    0.04
   1   1   6    0.08    0.03
  -2  -1  -6   54.04    1.33
  -2  -1  -6   50.71    1.31
  -2  -1  -6   52.24    1.43
  -2  -1  -6   53.95    1.33
   2   1   6   53.69    1.32
   2   1   6   53.15    1.32
   2   1   6   52.66    1.32
  -3  -1  -6   63.91    1.71
  -3  -1  -6   63.62    1.59
  -3  -1  -6   63.49    1.58
   3   1   6   65.09    1.59
   3   1   6   59.95    1.58
   3   1   6   64.29    1.58
   3   1   6   63.91    1.58
  -4  -1  -6    0.36    0.07
  -4  -1  -6    0.29    0.07
  -4  -1  -6    0.36    0.08
  -4  -1  -6    0.32    0.09
   4   1   6    0.36    0.07
   4   1   6    0.53    0.11
   4   1   6    0.33    0.08
   4   1   6    0.27    0.08
   4   1   6    0.41    0.08
  -5  -1  -6    8.01    0.30
  -5  -1  -6    7.45    0.30
  -5  -1  -6    7.16    0.33
  -5  -1  -6    7.76    0.29
   5   1   6    7.63    0.25
   5   1   6    7.26    0.29
   5   1   6    7.36    0.31
   5   1   6    7.21    0.31
   5   1   6    7.51    0.29
  -6  -1  -6    7.02    0.30
  -6  -1  -6    7.17    0.30
  -6  -1  -6    7.08    0.31
   6   1   6    7.22    0.30
   6   1   6    6.92    0.34
   6   1   6    7.24    0.26
   6   1   6    6.66    0.34
   6   1   6    7.13    0.30
  -7  -1  -6    0.09    0.11
  -7  -1  -6    0.17    0.10
  -7  -1  -6    0.07    0.12
   7   1   6    0.25    0.12
   7   1   6   -0.01    0.09
   7   1   6    0.17    0.09
   7  -2  -6   13.40    0.36
   7  -2  -6   13.13    0.51
   7  -2  -6   12.88    0.39
   7  -2  -6   12.69    0.36
  -7   2   6   12.64    0.39
  -7   2   6   13.47    0.38
   6  -2  -6    0.00    0.35
   6  -2  -6    0.32    0.05
   6  -2  -6    0.35    0.05
   6  -2  -6    0.34    0.07
   6  -2  -6    0.24    0.09
  -6   2   6    0.33    0.06
   5  -2  -6   15.74    0.99
   5  -2  -6   15.46    0.42
   5  -2  -6   16.07    0.55
   5  -2  -6   16.05    0.45
  -5   2   6   15.74    0.41
   4  -2  -6    7.08    0.21
   4  -2  -6    7.52    0.25
   4  -2  -6    7.85    0.57
   4  -2  -6    7.29    0.30
  -4   2   6    7.51    0.21
  -4   2   6    7.03    0.20
   3  -2  -6    1.01    0.06
   3  -2  -6    0.84    0.23
   3  -2  -6    1.07    0.10
  -3   2   6    1.00    0.06
  -3   2   6    1.16    0.06
   2  -2  -6   14.20    0.43
   2  -2  -6   13.75    0.79
   2  -2  -6   13.77    0.36
  -2   2   6   14.45    0.36
  -2   2   6   14.00    0.36
   1  -2  -6   40.67    1.14
   1  -2  -6   42.04    1.03
   1  -2  -6   42.78    1.01
   1  -2  -6   42.41    1.01
  -1   2   6   40.87    1.02
   0  -2  -6    2.23    0.10
   0  -2  -6    2.25    0.10
   0  -2  -6    2.27    0.13
   0  -2  -6    2.19    0.10
   0   2   6    2.17    0.10
   0   2   6    2.25    0.09
   0   2   6    2.37    0.11
  -1  -2  -6   50.38    1.40
  -1  -2  -6   50.28    1.29
  -1  -2  -6   51.70    1.27
  -1  -2  -6   52.62    1.28
   1   2   6   52.23    1.28
   1   2   6   51.46    1.28
   1   2   6   52.70    1.28
  -2  -2  -6   47.48    1.22
  -2  -2  -6   47.11    1.20
  -2  -2  -6   48.18    1.32
   2   2   6   48.95    1.21
   2   2   6   49.19    1.21
  -3  -2  -6    7.21    0.25
  -3  -2  -6    7.36    0.30
  -3  -2  -6    7.32    0.26
  -3  -2  -6    7.39    0.29
   3   2   6    7.26    0.25
   3   2   6    6.57    0.26
   3   2   6    7.66    0.26
  -4  -2  -6    9.15    0.35
  -4  -2  -6    9.19    0.37
  -4  -2  -6    9.44    0.32
  -4  -2  -6    9.75    0.32
   4   2   6    9.05    0.32
   4   2   6    9.50    0.32
   4   2   6    9.60    0.34
  -5  -2  -6    5.82    0.25
  -5  -2  -6    6.16    0.33
  -5  -2  -6    5.99    0.26
  -5  -2  -6    5.75    0.27
   5   2   6    5.81    0.25
   5   2   6    5.91    0.29
   5   2   6    6.11    0.20
   5   2   6    5.76    0.25
   5   2   6    5.22    0.28
  -6  -2  -6    0.33    0.09
  -6  -2  -6    0.40    0.11
  -6  -2  -6    0.47    0.11
   6   2   6    0.70    0.17
   6   2   6    0.61    0.11
   6   2   6    0.39    0.10
   6   2   6    0.43    0.08
  -7  -2  -6    1.88    0.22
  -7  -2  -6    1.99    0.24
  -7  -2  -6    1.98    0.23
   7   2   6    2.10    0.23
   7   2   6    1.80    0.18
   7   2   6    1.94    0.21
   7  -3  -6    2.14    0.14
   7  -3  -6    1.83    0.22
  -7   3   6    2.06    0.12
  -7   3   6    2.14    0.14
   6  -3  -6   12.83    0.48
   6  -3  -6   12.55    0.35
  -6   3   6   12.24    0.34
  -6   3   6   12.69    0.34
   5  -3  -6   12.47    0.34
   5  -3  -6   12.99    0.47
   5  -3  -6   13.06    0.38
   5  -3  -6   13.36    0.86
  -5   3   6   12.64    0.33
   4  -3  -6    2.76    0.37
   4  -3  -6    2.75    0.18
   4  -3  -6    2.90    0.15
   3  -3  -6   34.31    1.75
   3  -3  -6   34.66    0.95
   2  -3  -6   12.07    0.39
   2  -3  -6   12.08    0.31
   2  -3  -6   12.11    0.71
   1  -3  -6    9.27    0.32
  -1   3   6    9.19    0.25
   0  -3  -6    0.81    0.07
   0  -3  -6    0.96    0.07
   0  -3  -6    0.74    0.07
   0  -3  -6    0.74    0.11
   0   3   6    0.92    0.07
   0   3   6    0.89    0.08
   0   3   6    1.04    0.07
   0   3   6    0.75    0.07
  -1  -3  -6    8.91    0.27
  -1  -3  -6    8.99    0.26
  -1  -3  -6    8.64    0.32
  -1  -3  -6    8.79    0.27
   1   3   6    8.88    0.27
   1   3   6    9.01    0.28
   1   3   6    8.98    0.26
  -2  -3  -6    1.80    0.12
  -2  -3  -6    2.10    0.12
  -2  -3  -6    1.76    0.14
  -2  -3  -6    1.86    0.12
   2   3   6    1.96    0.12
   2   3   6    2.06    0.14
  -3  -3  -6   11.72    0.42
  -3  -3  -6   11.62    0.41
  -3  -3  -6   11.81    0.37
  -3  -3  -6   11.37    0.36
   3   3   6   11.99    0.37
   3   3   6   11.97    0.38
   3   3   6   11.39    0.36
  -4  -3  -6    6.47    0.25
  -4  -3  -6    6.35    0.26
  -4  -3  -6    6.60    0.31
  -4  -3  -6    5.90    0.28
   4   3   6    6.42    0.26
   4   3   6    6.62    0.28
   4   3   6    6.20    0.25
  -5  -3  -6    3.51    0.22
  -5  -3  -6    3.40    0.21
  -5  -3  -6    2.99    0.28
  -5  -3  -6    3.44    0.22
   5   3   6    3.14    0.21
   5   3   6    3.32    0.20
   5   3   6    3.76    0.28
  -6  -3  -6    7.35    0.32
  -6  -3  -6    7.39    0.33
  -6  -3  -6    7.08    0.32
   6   3   6    7.58    0.43
   6   3   6    6.73    0.32
   6   3   6    6.96    0.24
   6   3   6    6.83    0.31
   7  -4  -6    5.03    0.31
   7  -4  -6    4.94    0.18
   7  -4  -6    4.63    0.17
   7  -4  -6    5.24    0.28
   6  -4  -6    2.25    0.21
   6  -4  -6    2.29    0.13
   6  -4  -6    2.56    0.10
   6  -4  -6    2.77    0.20
   5  -4  -6    5.96    0.57
   5  -4  -6    6.07    0.29
   5  -4  -6    6.37    0.23
   5  -4  -6    6.23    0.26
   4  -4  -6    6.19    0.24
   4  -4  -6    6.27    0.51
   4  -4  -6    6.08    0.27
   4  -4  -6    5.97    0.23
   3  -4  -6   10.95    0.67
   3  -4  -6   10.57    0.38
   3  -4  -6   10.50    0.33
   3  -4  -6   10.70    0.36
   2  -4  -6    1.49    0.29
   2  -4  -6    1.31    0.13
   2  -4  -6    1.40    0.10
   1  -4  -6   16.24    0.50
  -1   4   6   16.06    0.41
  -1   4   6   15.82    0.41
   0  -4  -6    5.53    0.18
   0  -4  -6    5.44    0.17
   0  -4  -6    5.46    0.17
   0  -4  -6    5.56    0.24
   0   4   6    5.46    0.16
   0   4   6    5.57    0.16
   0   4   6    5.33    0.18
   0   4   6    5.57    0.19
  -1  -4  -6    7.73    0.24
  -1  -4  -6    7.98    0.25
  -1  -4  -6    7.84    0.25
  -1  -4  -6    8.10    0.31
   1   4   6    7.63    0.24
   1   4   6    8.19    0.26
   1   4   6    7.68    0.25
  -2  -4  -6   13.35    0.40
  -2  -4  -6   13.61    0.46
  -2  -4  -6   13.75    0.40
   2   4   6   13.67    0.40
   2   4   6   13.99    0.41
   2   4   6   13.56    0.40
  -3  -4  -6    0.66    0.14
  -3  -4  -6    0.82    0.12
  -3  -4  -6    0.87    0.17
   3   4   6    0.39    0.09
   3   4   6    0.78    0.12
   3   4   6    0.77    0.12
  -4  -4  -6    2.55    0.18
  -4  -4  -6    2.67    0.20
  -4  -4  -6    2.83    0.25
   4   4   6    2.74    0.24
   4   4   6    2.50    0.17
   4   4   6    2.66    0.20
  -5  -4  -6    5.42    0.37
  -5  -4  -6    5.54    0.27
  -5  -4  -6    5.56    0.26
  -5  -4  -6    5.70    0.29
   5   4   6    5.12    0.27
   5   4   6    5.42    0.26
   5   4   6    5.56    0.35
  -6  -4  -6    1.95    0.23
  -6  -4  -6    2.04    0.23
  -6  -4  -6    1.48    0.22
   6   4   6    2.00    0.24
   6  -5  -6    5.76    0.31
   6  -5  -6    5.96    0.29
   6  -5  -6    6.49    0.23
   5  -5  -6    1.84    0.45
   5  -5  -6    1.65    0.17
   5  -5  -6    1.41    0.16
   5  -5  -6    1.51    0.14
   4  -5  -6    0.92    0.30
   4  -5  -6    0.75    0.13
   4  -5  -6    0.82    0.13
   4  -5  -6    0.74    0.12
   3  -5  -6    9.60    0.34
   3  -5  -6    9.60    0.63
   3  -5  -6    9.76    0.35
   3  -5  -6    9.63    0.31
   2  -5  -6   17.09    0.54
   2  -5  -6   17.31    0.48
   1  -5  -6    3.17    0.12
   1  -5  -6    2.98    0.18
  -1   5   6    2.91    0.11
  -1   5   6    3.10    0.12
   0  -5  -6    2.42    0.17
   0  -5  -6    2.47    0.11
   0  -5  -6    2.61    0.12
   0  -5  -6    2.92    0.13
   0   5   6    2.35    0.12
   0   5   6    2.68    0.13
  -1  -5  -6   22.17    0.68
  -1  -5  -6   22.53    0.59
  -1  -5  -6   21.73    0.58
   1   5   6   21.91    0.58
   1   5   6   22.83    0.60
   1   5   6   22.12    0.60
   1   5   6   22.49    0.58
  -2  -5  -6    1.25    0.12
  -2  -5  -6    1.30    0.16
  -2  -5  -6    1.21    0.14
  -2  -5  -6    1.19    0.15
  -2  -5  -6    0.92    0.12
   2   5   6    1.23    0.13
   2   5   6    1.29    0.12
   2   5   6    1.35    0.17
  -3  -5  -6    6.06    0.25
  -3  -5  -6    6.15    0.26
  -3  -5  -6    6.43    0.30
  -3  -5  -6    5.58    0.26
  -3  -5  -6    6.27    0.29
   3   5   6    6.29    0.30
   3   5   6    6.11    0.25
  -4  -5  -6    3.29    0.23
  -4  -5  -6    3.10    0.21
  -4  -5  -6    3.26    0.28
   4   5   6    3.20    0.23
   4   5   6    3.36    0.30
   4   5   6    2.99    0.19
  -5  -5  -6   -0.06    0.10
  -5  -5  -6   -0.04    0.12
  -5  -5  -6   -0.02    0.19
  -5  -5  -6   -0.03    0.11
   5   5   6    0.02    0.09
   5   5   6    0.00    0.21
   5   5   6    0.02    0.12
   5  -6  -6    2.23    0.20
   5  -6  -6    2.43    0.47
   5  -6  -6    2.31    0.19
   5  -6  -6    2.04    0.18
   4  -6  -6   16.98    0.54
   4  -6  -6   17.09    0.57
   4  -6  -6   17.28    0.52
   4  -6  -6   17.28    1.00
   3  -6  -6    2.33    0.15
   3  -6  -6    2.24    0.17
   3  -6  -6    2.29    0.16
   3  -6  -6    2.39    0.34
   2  -6  -6    1.43    0.11
   2  -6  -6    1.55    0.16
   2  -6  -6    1.53    0.13
   1  -6  -6    3.74    0.14
   1  -6  -6    3.63    0.22
  -1   6   6    3.72    0.14
  -1   6   6    3.64    0.13
   0  -6  -6    2.41    0.12
   0  -6  -6    2.56    0.12
   0  -6  -6    2.02    0.13
   0  -6  -6    2.45    0.18
   0   6   6    2.34    0.14
   0   6   6    2.40    0.12
  -1  -6  -6    0.47    0.08
  -1  -6  -6    0.30    0.08
  -1  -6  -6    0.37    0.10
  -1  -6  -6    0.45    0.08
  -1  -6  -6    0.22    0.08
   1   6   6    0.42    0.07
   1   6   6    0.39    0.09
   1   6   6    0.64    0.10
   1   6   6    0.34    0.07
  -2  -6  -6    3.46    0.18
  -2  -6  -6    3.82    0.18
  -2  -6  -6    3.42    0.21
  -2  -6  -6    3.65    0.23
  -2  -6  -6    3.63    0.23
   2   6   6    3.51    0.19
   2   6   6    3.52    0.24
   2   6   6    3.75    0.19
  -3  -6  -6    2.29    0.24
  -3  -6  -6    1.93    0.18
  -3  -6  -6    1.90    0.18
   3   6   6    2.18    0.20
   3   6   6    2.36    0.26
   3   6   6    1.85    0.17
  -4  -6  -6    0.76    0.19
  -4  -6  -6    0.77    0.13
  -4  -6  -6    0.74    0.13
   4   6   6    0.79    0.20
   4   6   6    0.72    0.15
   4   6   6    0.91    0.17
   4  -7  -6   -0.17    0.08
   4  -7  -6    0.10    0.08
   4  -7  -6    0.01    0.09
   4  -7  -6    0.03    0.20
   3  -7  -6    4.36    0.24
   3  -7  -6    4.50    0.22
   3  -7  -6    4.40    0.45
   3  -7  -6    4.24    0.20
   2  -7  -6    9.51    0.33
   2  -7  -6    9.76    0.38
   2  -7  -6    9.37    0.30
   1  -7  -6    1.45    0.12
   1  -7  -6    0.96    0.17
  -1   7   6    1.28    0.11
  -1   7   6    1.26    0.09
   0  -7  -6    3.98    0.18
   0  -7  -6    4.44    0.25
   0  -7  -6    3.98    0.18
   0  -7  -6    3.97    0.16
   0  -7  -6    4.24    0.16
   0   7   6    4.14    0.19
   0   7   6    4.21    0.17
  -1  -7  -6    1.59    0.14
  -1  -7  -6    1.91    0.18
  -1  -7  -6    1.66    0.17
  -1  -7  -6    1.97    0.16
   1   7   6    1.59    0.14
   1   7   6    1.95    0.15
   1   7   6    1.87    0.20
  -2  -7  -6    0.11    0.09
  -2  -7  -6   -0.03    0.12
  -2  -7  -6    0.05    0.09
   2   7   6   -0.04    0.13
   2   7   6    0.00    0.10
   2   7   6   -0.06    0.08
  -3  -7  -6   -0.22    0.10
  -3  -7  -6    0.16    0.15
  -3  -7  -6    0.04    0.09
   3   7   6    0.18    0.13
   3   7   6    0.04    0.17
   3   7   6   -0.04    0.09
   2  -8  -6    2.63    0.16
   2  -8  -6    2.51    0.16
   2  -8  -6    2.56    0.23
   1  -8  -6    3.58    0.26
   1  -8  -6    2.72    0.15
  -1   8   6    3.40    0.16
  -1   8   6    3.10    0.14
   0  -8  -6    1.79    0.13
   0  -8  -6    2.18    0.14
   0  -8  -6    2.26    0.16
   0  -8  -6    2.24    0.23
   0   8   6    2.15    0.18
   0   8   6    2.39    0.15
   1  10  -7    0.52    0.12
  -1 -10   7    0.52    0.13
  -1 -10   7    0.44    0.12
  -1 -10   7    0.00    0.40
   0  10  -7    3.86    0.23
   0 -10   7    3.62    0.25
   0 -10   7    4.13    0.26
   0 -10   7    3.70    0.63
  -1  10  -7    0.50    0.10
   1 -10   7    0.40    0.11
   1 -10   7    0.56    0.12
   1 -10   7    0.52    0.27
  -2  10  -7    1.53    0.27
  -2  10  -7    1.36    0.22
   2 -10   7    1.95    0.22
   2 -10   7    1.99    0.19
  -3  10  -7    1.77    0.34
  -3  10  -7    1.40    0.31
   3 -10   7    1.87    0.23
   3 -10   7    1.71    0.20
   3   9  -7    0.12    0.11
   3   9  -7    0.09    0.11
  -3  -9   7   -0.18    0.11
  -3  -9   7   -0.07    0.12
   2   9  -7    5.09    0.26
   2   9  -7    5.01    0.26
   2   9  -7    5.13    0.37
  -2  -9   7    5.36    0.27
  -2  -9   7    5.24    0.28
   1   9  -7    1.70    0.18
   1   9  -7    1.97    0.27
  -1  -9   7    1.54    0.18
  -1  -9   7    1.56    0.19
   0   9  -7    2.24    0.19
   0   9  -7    1.85    0.25
   0   9  -7    1.94    0.26
   0  -9   7    2.26    0.20
   0  -9   7    2.20    0.19
   0  -9   7    2.40    0.47
  -1   9  -7    1.08    0.17
  -1   9  -7    1.31    0.16
   1  -9   7    1.12    0.16
   1  -9   7    1.45    0.18
   1  -9   7    1.40    0.38
  -2   9  -7    6.79    0.28
  -2   9  -7    6.77    0.35
   2  -9   7    7.24    0.30
   2  -9   7    6.77    0.29
  -3   9  -7    0.26    0.16
  -3   9  -7    0.36    0.08
  -3   9  -7    0.30    0.16
   3  -9   7    0.46    0.12
   3  -9   7    0.50    0.10
  -4   9  -7    2.85    0.33
  -4   9  -7    3.49    0.33
  -4   9  -7    2.64    0.20
   4  -9   7    3.24    0.24
   4  -9   7    3.28    0.23
   4   8  -7    2.46    0.22
   4   8  -7    2.26    0.23
   4   8  -7    1.96    0.32
  -4  -8   7    2.64    0.25
  -4  -8   7    2.69    0.21
   3   8  -7    1.81    0.19
   3   8  -7    1.99    0.19
   3   8  -7    1.69    0.28
  -3  -8   7    2.10    0.19
  -3  -8   7    1.80    0.20
   2   8  -7    1.94    0.17
   2   8  -7    1.58    0.24
  -2  -8   7    0.80    0.31
  -2  -8   7    1.28    0.16
  -2  -8   7    1.49    0.18
   1   8  -7    0.18    0.11
   1   8  -7    0.03    0.08
   1   8  -7   -0.04    0.11
  -1  -8   7    0.11    0.08
  -1  -8   7    0.18    0.08
  -1  -8   7    0.08    0.23
   0   8  -7    7.08    0.28
   0   8  -7    6.73    0.31
   0   8  -7    6.73    0.30
   0  -8   7    7.03    0.29
   0  -8   7    7.30    0.56
   0  -8   7    6.75    0.29
  -1   8  -7    3.57    0.20
  -1   8  -7    3.63    0.24
  -1   8  -7    3.59    0.23
   1  -8   7    3.47    0.20
   1  -8   7    3.65    0.41
   1  -8   7    3.86    0.21
  -2   8  -7    3.66    0.23
  -2   8  -7    3.89    0.20
  -2   8  -7    3.87    0.25
   2  -8   7    3.65    0.22
   2  -8   7    3.76    0.21
  -3   8  -7    6.31    0.27
  -3   8  -7    6.54    0.31
  -3   8  -7    5.86    0.29
  -3   8  -7    6.31    0.31
   3  -8   7    6.52    0.28
   3  -8   7    6.55    0.27
  -4   8  -7    1.84    0.26
  -4   8  -7    1.42    0.16
  -4   8  -7    1.16    0.24
   4  -8   7    1.39    0.17
   4  -8   7    1.40    0.18
   4  -8   7    1.45    0.16
  -5   8  -7    3.59    0.22
  -5   8  -7    3.29    0.33
   5  -8   7    3.73    0.24
   5  -8   7    4.25    0.31
   5  -8   7    3.63    0.23
   5   7  -7    2.56    0.33
   5   7  -7    2.80    0.24
   5   7  -7    2.52    0.23
  -5  -7   7    2.56    0.21
  -5  -7   7    2.68    0.25
  -5  -7   7    2.50    0.37
   4   7  -7    4.47    0.25
   4   7  -7    4.45    0.29
   4   7  -7    4.61    0.26
  -4  -7   7    4.37    0.26
  -4  -7   7    4.22    0.24
   3   7  -7    0.72    0.14
   3   7  -7    0.78    0.15
   3   7  -7    0.69    0.11
  -3  -7   7    0.40    0.11
  -3  -7   7    0.45    0.09
  -3  -7   7    0.31    0.28
  -3  -7   7    0.62    0.11
   2   7  -7    8.72    0.34
   2   7  -7    8.42    0.31
  -2  -7   7    8.17    0.31
  -2  -7   7    8.08    0.69
  -2  -7   7    8.01    0.30
  -2  -7   7    8.55    0.33
   1   7  -7    4.48    0.23
   1   7  -7    4.65    0.22
   1   7  -7    4.82    0.24
  -1  -7   7    4.47    0.23
  -1  -7   7    4.74    0.48
  -1  -7   7    4.69    0.22
  -1  -7   7    4.83    0.21
   0   7  -7    0.95    0.13
   0   7  -7    1.35    0.16
   0   7  -7    0.99    0.17
   0  -7   7    1.08    0.13
   0  -7   7    1.20    0.14
   0  -7   7    1.03    0.13
   0  -7   7    1.12    0.30
  -1   7  -7    5.62    0.24
  -1   7  -7    5.44    0.25
  -1   7  -7    5.79    0.25
   1  -7   7    5.38    0.46
   1  -7   7    5.78    0.24
   1  -7   7    5.90    0.24
  -2   7  -7    8.69    0.33
  -2   7  -7    8.86    0.32
  -2   7  -7    9.02    0.33
   2  -7   7    9.03    0.32
   2  -7   7    8.82    0.32
  -3   7  -7    0.45    0.09
  -3   7  -7    0.57    0.11
  -3   7  -7    0.46    0.28
  -3   7  -7    0.47    0.10
   3  -7   7    0.40    0.10
   3  -7   7    0.49    0.10
   3  -7   7    0.47    0.10
   3  -7   7    0.51    0.10
  -4   7  -7   15.31    0.49
  -4   7  -7   14.90    0.47
  -4   7  -7   13.28    0.82
  -4   7  -7   14.31    0.54
  -4   7  -7   14.18    0.47
   4  -7   7   15.51    0.49
   4  -7   7   14.49    0.52
   4  -7   7   15.08    0.47
   4  -7   7   15.32    0.47
  -5   7  -7    7.44    0.36
  -5   7  -7    7.30    0.29
  -5   7  -7    6.82    0.38
   5  -7   7    7.65    0.31
   5  -7   7    7.56    0.32
   5  -7   7    7.06    0.31
   5  -7   7    7.68    0.36
   5  -7   7    7.20    0.37
  -6   7  -7    0.40    0.20
   6  -7   7    0.68    0.12
   6  -7   7    0.59    0.19
   6  -7   7    0.62    0.13
   6  -7   7    0.61    0.11
   6   6  -7    1.28    0.22
   6   6  -7    1.12    0.22
   6   6  -7    1.12    0.17
  -6  -6   7    0.96    0.15
  -6  -6   7    0.94    0.18
   5   6  -7    2.04    0.20
   5   6  -7    1.72    0.25
   5   6  -7    1.15    0.19
  -5  -6   7    1.47    0.28
  -5  -6   7    1.40    0.26
  -5  -6   7    1.70    0.20
  -5  -6   7    1.49    0.17
   4   6  -7    0.47    0.10
   4   6  -7    0.66    0.15
   4   6  -7    0.79    0.13
  -4  -6   7    0.38    0.08
  -4  -6   7    0.74    0.12
  -4  -6   7    0.43    0.11
  -4  -6   7    0.58    0.14
   3   6  -7   12.73    0.41
   3   6  -7   12.27    0.42
  -3  -6   7   12.66    0.41
  -3  -6   7   11.93    0.44
  -3  -6   7   12.94    0.41
  -3  -6   7   13.07    0.43
   2   6  -7    4.37    0.21
   2   6  -7    4.79    0.23
  -2  -6   7    4.32    0.21
  -2  -6   7    4.44    0.22
  -2  -6   7    4.53    0.20
  -2  -6   7    3.98    0.42
  -2  -6   7    4.13    0.21
   1   6  -7    3.28    0.20
   1   6  -7    3.15    0.18
  -1  -6   7    3.34    0.18
  -1  -6   7    3.33    0.17
  -1  -6   7    3.53    0.40
  -1  -6   7    3.22    0.18
   0   6  -7   25.03    0.69
   0   6  -7   25.73    0.71
   0   6  -7   24.65    0.69
   0  -6   7   24.72    0.68
   0  -6   7   24.42    0.69
   0  -6   7   24.95    0.69
   0  -6   7   26.25    1.32
  -1   6  -7    2.68    0.17
  -1   6  -7    2.48    0.16
  -1   6  -7    2.19    0.14
   1  -6   7    2.39    0.15
   1  -6   7    2.24    0.15
   1  -6   7    2.18    0.15
  -2   6  -7    1.20    0.14
  -2   6  -7    1.64    0.42
  -2   6  -7    1.10    0.12
  -2   6  -7    1.21    0.15
   2  -6   7    1.08    0.12
   2  -6   7    1.06    0.13
  -3   6  -7   13.53    0.43
  -3   6  -7   13.21    0.42
  -3   6  -7   13.09    0.78
  -3   6  -7   13.42    0.42
  -3   6  -7   12.75    0.42
   3  -6   7   13.47    0.45
   3  -6   7   13.27    0.42
   3  -6   7   13.47    0.42
   3  -6   7   13.09    0.42
  -4   6  -7    1.31    0.18
  -4   6  -7    1.42    0.16
  -4   6  -7    1.72    0.31
  -4   6  -7    1.62    0.21
  -4   6  -7    1.36    0.14
  -4   6  -7    1.57    0.19
   4  -6   7    1.51    0.15
   4  -6   7    1.56    0.20
   4  -6   7    1.57    0.19
   4  -6   7    1.08    0.15
   4  -6   7    1.56    0.16
  -5   6  -7    0.04    0.14
  -5   6  -7    0.04    0.08
  -5   6  -7    0.08    0.12
  -5   6  -7    0.10    0.13
  -5   6  -7    0.26    0.14
   5  -6   7   -0.11    0.11
   5  -6   7   -0.05    0.07
   5  -6   7    0.15    0.12
   5  -6   7    0.11    0.09
   5  -6   7    0.07    0.08
  -6   6  -7    6.92    0.47
  -6   6  -7    5.99    0.28
  -6   6  -7    6.22    0.38
   6  -6   7    6.63    0.30
   6  -6   7    6.92    0.31
   6  -6   7    6.34    0.36
   6  -6   7    7.01    0.36
   6  -6   7    7.09    0.31
   6   5  -7    0.02    0.10
   6   5  -7    0.21    0.15
   6   5  -7   -0.15    0.10
  -6  -5   7   -0.11    0.12
  -6  -5   7    0.14    0.12
  -6  -5   7   -0.03    0.16
  -6  -5   7   -0.05    0.08
   5   5  -7    3.58    0.25
   5   5  -7    3.89    0.25
   5   5  -7    4.60    0.23
  -5  -5   7    3.84    0.25
  -5  -5   7    3.88    0.28
  -5  -5   7    3.85    0.23
  -5  -5   7    4.00    0.21
   4   5  -7    5.87    0.24
   4   5  -7    5.62    0.27
   4   5  -7    4.42    0.59
   4   5  -7    6.00    0.27
  -4  -5   7    6.08    0.29
  -4  -5   7    6.13    0.24
  -4  -5   7    5.93    0.27
  -4  -5   7    5.60    0.25
   3   5  -7    0.47    0.10
   3   5  -7    0.44    0.08
   3   5  -7    0.02    0.31
  -3  -5   7    0.54    0.10
  -3  -5   7    0.46    0.08
  -3  -5   7    0.58    0.09
  -3  -5   7    0.51    0.09
   2   5  -7    1.29    0.15
   2   5  -7    1.20    0.12
   2   5  -7    1.02    0.32
  -2  -5   7    1.25    0.14
  -2  -5   7    1.20    0.12
  -2  -5   7    1.18    0.11
  -2  -5   7    1.19    0.12
  -2  -5   7    1.19    0.28
   1   5  -7   20.77    0.58
   1   5  -7   21.58    0.59
  -1  -5   7   20.38    0.58
  -1  -5   7   21.74    1.14
  -1  -5   7   20.84    0.58
   0   5  -7    0.75    0.12
   0   5  -7    0.47    0.26
   0   5  -7    0.67    0.10
   0  -5   7    0.71    0.10
   0  -5   7    0.80    0.24
   0  -5   7    0.70    0.10
   0  -5   7    0.59    0.10
  -1   5  -7    1.37    0.13
  -1   5  -7    1.31    0.32
  -1   5  -7    1.61    0.13
  -1   5  -7    1.32    0.12
   1  -5   7    1.32    0.12
   1  -5   7    1.37    0.12
   1  -5   7    1.45    0.12
  -2   5  -7   13.18    0.40
  -2   5  -7   12.77    0.39
  -2   5  -7   12.61    0.39
  -2   5  -7   13.01    0.40
  -2   5  -7   13.54    0.76
   2  -5   7   12.17    0.39
   2  -5   7   12.68    0.39
   2  -5   7   12.76    0.39
  -3   5  -7   -0.01    0.06
  -3   5  -7   -0.01    0.07
  -3   5  -7    0.06    0.07
  -3   5  -7    0.13    0.14
  -3   5  -7    0.01    0.06
   3  -5   7    0.04    0.07
   3  -5   7    0.14    0.06
   3  -5   7    0.16    0.06
   3  -5   7    0.01    0.07
  -4   5  -7    1.54    0.16
  -4   5  -7    1.62    0.16
  -4   5  -7    1.59    0.25
  -4   5  -7    1.70    0.14
  -4   5  -7    1.85    0.18
  -4   5  -7    1.59    0.18
   4  -5   7    1.54    0.15
   4  -5   7    2.04    0.15
   4  -5   7    1.80    0.15
   4  -5   7    1.72    0.18
   4  -5   7    1.80    0.18
  -5   5  -7    7.50    0.31
  -5   5  -7    8.01    0.32
  -5   5  -7    8.03    0.34
  -5   5  -7    7.93    0.52
  -5   5  -7    8.06    0.30
   5  -5   7    7.86    0.34
   5  -5   7    8.08    0.31
   5  -5   7    7.90    0.31
   5  -5   7    8.10    0.31
   5  -5   7    7.74    0.34
  -6   5  -7    3.12    0.34
  -6   5  -7    3.01    0.20
  -6   5  -7    2.35    0.29
   6  -5   7    3.05    0.21
   6  -5   7    3.19    0.28
   6  -5   7    3.50    0.22
   6  -5   7    3.24    0.28
   6  -5   7    3.36    0.22
  -7   5  -7    1.44    0.19
  -7   5  -7    1.82    0.36
   7  -5   7    1.34    0.20
   7  -5   7    1.64    0.30
   7  -5   7    1.16    0.23
   7  -5   7    1.73    0.23
   7  -5   7    1.60    0.19
   7   4  -7    0.03    0.16
   7   4  -7   -0.12    0.10
  -7  -4   7   -0.07    0.09
  -7  -4   7   -0.12    0.18
  -7  -4   7    0.06    0.12
   6   4  -7    0.72    0.15
   6   4  -7    0.90    0.13
   6   4  -7    0.82    0.18
  -6  -4   7    0.77    0.16
  -6  -4   7    0.83    0.15
  -6  -4   7    0.94    0.15
  -6  -4   7    0.77    0.13
   5   4  -7    5.88    0.28
   5   4  -7    6.32    0.26
   5   4  -7    6.25    0.30
  -5  -4   7    6.46    0.28
  -5  -4   7    5.53    0.26
  -5  -4   7    6.17    0.29
  -5  -4   7    5.78    0.24
   4   4  -7   -0.07    0.07
   4   4  -7    0.06    0.27
   4   4  -7    0.12    0.07
   4   4  -7    0.14    0.07
  -4  -4   7    0.11    0.08
  -4  -4   7    0.16    0.06
  -4  -4   7    0.12    0.09
  -4  -4   7    0.03    0.08
   3   4  -7    5.91    0.23
   3   4  -7    4.51    0.53
   3   4  -7    5.84    0.22
  -3  -4   7    5.87    0.22
  -3  -4   7    5.57    0.25
  -3  -4   7    6.05    0.24
  -3  -4   7    5.82    0.24
   2   4  -7   12.27    0.38
  -2  -4   7   11.94    0.37
  -2  -4   7   12.55    0.38
  -2  -4   7   12.01    0.39
   1   4  -7    1.83    0.33
   1   4  -7    2.51    0.15
   1   4  -7    2.43    0.13
  -1  -4   7    2.56    0.14
  -1  -4   7    2.31    0.13
  -1  -4   7    2.45    0.28
  -1  -4   7    2.61    0.14
   0   4  -7    3.07    0.16
   0   4  -7    3.29    0.37
   0   4  -7    2.74    0.14
   0   4  -7    2.91    0.15
   0  -4   7    2.78    0.14
   0  -4   7    2.89    0.14
  -1   4  -7   14.19    0.41
  -1   4  -7   13.75    0.40
  -1   4  -7   13.46    0.41
  -1   4  -7   14.17    0.79
   1  -4   7   13.82    0.40
   1  -4   7   13.19    0.40
   1  -4   7   13.59    0.40
  -2   4  -7    2.34    0.14
  -2   4  -7    2.28    0.14
  -2   4  -7    2.12    0.26
  -2   4  -7    2.27    0.14
   2  -4   7    2.33    0.14
   2  -4   7    2.58    0.15
   2  -4   7    2.39    0.14
  -3   4  -7    9.29    0.31
  -3   4  -7    9.50    0.57
  -3   4  -7    9.54    0.32
  -3   4  -7    9.23    0.31
  -3   4  -7    9.43    0.31
   3  -4   7    9.22    0.31
   3  -4   7    9.52    0.32
   3  -4   7    9.49    0.31
   3  -4   7    9.96    0.32
   3  -4   7    8.94    0.31
  -4   4  -7   15.58    0.47
  -4   4  -7   15.05    0.47
  -4   4  -7   15.12    0.85
  -4   4  -7   14.66    0.46
  -4   4  -7   14.66    0.46
   4  -4   7   15.47    0.47
   4  -4   7   15.00    0.46
   4  -4   7   15.40    0.47
   4  -4   7   16.08    0.47
   4  -4   7   15.26    0.49
   4  -4   7   15.18    0.46
  -5   4  -7    0.11    0.09
  -5   4  -7    0.08    0.09
  -5   4  -7    0.07    0.07
  -5   4  -7    0.05    0.11
   5  -4   7    0.01    0.07
   5  -4   7    0.04    0.07
   5  -4   7   -0.03    0.07
   5  -4   7    0.11    0.10
   5  -4   7    0.05    0.09
  -6   4  -7    2.57    0.18
  -6   4  -7    1.76    0.25
   6  -4   7    2.54    0.28
   6  -4   7    2.18    0.19
   6  -4   7    2.35    0.19
   6  -4   7    2.31    0.18
   6  -4   7    2.34    0.24
  -7   4  -7    4.00    0.24
   7  -4   7    3.57    0.24
   7  -4   7    3.42    0.30
   7  -4   7    4.07    0.25
   7  -4   7    4.46    0.27
   7  -4   7    3.44    0.36
   7   3  -7    0.57    0.12
   7   3  -7    0.63    0.16
  -7  -3   7    0.47    0.17
  -7  -3   7    0.58    0.18
  -7  -3   7    0.62    0.11
  -7  -3   7    0.83    0.16
   6   3  -7    3.45    0.24
   6   3  -7    2.68    0.55
   6   3  -7    3.64    0.24
   6   3  -7    3.79    0.21
  -6  -3   7    3.44    0.21
  -6  -3   7    3.80    0.19
  -6  -3   7    3.47    0.23
  -6  -3   7    3.61    0.26
   5   3  -7    0.88    0.34
   5   3  -7    1.00    0.16
   5   3  -7    0.95    0.15
   5   3  -7    1.09    0.13
  -5  -3   7    0.87    0.12
  -5  -3   7    0.97    0.15
  -5  -3   7    0.80    0.15
  -5  -3   7    1.13    0.17
   4   3  -7    4.88    0.20
   4   3  -7    5.01    0.22
  -4  -3   7    4.99    0.22
  -4  -3   7    5.17    0.22
  -4  -3   7    4.63    0.20
  -4  -3   7    5.35    0.23
   3   3  -7   15.76    0.45
   3   3  -7   13.20    0.94
   3   3  -7   16.32    0.45
  -3  -3   7   15.87    0.45
  -3  -3   7   16.43    0.45
  -3  -3   7   15.60    0.48
  -3  -3   7   16.49    0.45
   2   3  -7    1.83    0.12
   2   3  -7    1.96    0.13
   2   3  -7    1.99    0.36
  -2  -3   7    1.95    0.12
  -2  -3   7    1.82    0.12
  -2  -3   7    2.07    0.13
  -2  -3   7    1.95    0.11
   1   3  -7   53.46    2.60
   1   3  -7   52.44    1.32
   1   3  -7   52.65    1.31
  -1  -3   7   51.31    1.31
  -1  -3   7   52.48    1.31
  -1  -3   7   51.79    1.31
   0   3  -7   27.56    0.75
   0   3  -7   27.77    0.73
   0   3  -7   28.97    1.46
   0   3  -7   28.24    0.74
   0  -3   7   28.45    0.74
   0  -3   7   28.38    0.73
   0  -3   7   27.40    0.73
  -1   3  -7    4.26    0.17
  -1   3  -7    4.34    0.17
  -1   3  -7    3.99    0.34
  -1   3  -7    4.42    0.18
   1  -3   7    4.10    0.17
   1  -3   7    4.23    0.17
   1  -3   7    4.30    0.18
  -2   3  -7   15.35    0.45
  -2   3  -7   15.37    0.49
  -2   3  -7   15.88    0.86
  -2   3  -7   15.54    0.45
  -2   3  -7   15.85    0.45
   2  -3   7   16.28    0.45
   2  -3   7   15.52    0.45
   2  -3   7   15.29    0.45
   2  -3   7   15.83    0.45
  -3   3  -7    2.53    0.29
  -3   3  -7    2.47    0.16
  -3   3  -7    2.25    0.14
  -3   3  -7    2.05    0.15
  -3   3  -7    2.32    0.14
   3  -3   7    2.43    0.15
   3  -3   7    2.70    0.16
   3  -3   7    2.03    0.14
   3  -3   7    2.40    0.15
   3  -3   7    2.43    0.16
  -4   3  -7    0.75    0.13
  -4   3  -7    0.33    0.09
  -4   3  -7    0.43    0.08
  -4   3  -7    0.38    0.08
  -4   3  -7    0.35    0.08
   4  -3   7    0.21    0.07
   4  -3   7    0.42    0.09
   4  -3   7    0.53    0.09
   4  -3   7    0.40    0.08
   4  -3   7    0.63    0.13
   4  -3   7    0.35    0.08
  -5   3  -7    1.04    0.18
  -5   3  -7    1.40    0.16
  -5   3  -7    0.90    0.14
  -5   3  -7    0.97    0.18
   5  -3   7    1.25    0.18
   5  -3   7    1.02    0.15
   5  -3   7    1.25    0.14
   5  -3   7    0.93    0.13
   5  -3   7    1.17    0.17
   5  -3   7    1.25    0.19
  -6   3  -7    2.90    0.26
  -6   3  -7    2.85    0.20
  -6   3  -7    3.13    0.20
   6  -3   7    3.03    0.24
   6  -3   7    3.04    0.20
   6  -3   7    3.21    0.27
   6  -3   7    2.95    0.20
   6  -3   7    3.36    0.21
  -7   3  -7    1.95    0.20
   7  -3   7    2.03    0.20
   7  -3   7    1.71    0.27
   7  -3   7    2.03    0.22
   7  -3   7    1.74    0.20
   7  -3   7    1.76    0.32
   7   2  -7    0.51    0.10
   7   2  -7    0.19    0.40
   7   2  -7    0.29    0.13
  -7  -2   7    0.54    0.14
  -7  -2   7    0.29    0.09
  -7  -2   7    0.53    0.16
   6   2  -7    0.43    0.09
   6   2  -7    0.46    0.10
   6   2  -7    0.14    0.33
   6   2  -7    0.45    0.11
  -6  -2   7    0.46    0.11
  -6  -2   7    0.52    0.09
  -6  -2   7    0.44    0.08
  -6  -2   7    0.31    0.12
   5   2  -7    8.83    0.30
   5   2  -7    8.12    0.28
   5   2  -7    7.86    0.69
   5   2  -7    7.67    0.28
   5   2  -7    8.45    0.35
  -5  -2   7    8.50    0.30
  -5  -2   7    8.31    0.29
  -5  -2   7    8.28    0.28
  -5  -2   7    7.43    0.28
   4   2  -7    9.85    0.31
   4   2  -7    9.58    0.30
   4   2  -7    9.58    0.30
   4   2  -7   10.17    0.75
  -4  -2   7   10.25    0.31
  -4  -2   7    9.86    0.33
  -4  -2   7    8.95    0.32
  -4  -2   7   10.06    0.32
   3   2  -7    5.73    0.21
   3   2  -7    5.31    0.20
   3   2  -7    5.54    0.20
  -3  -2   7    5.56    0.22
  -3  -2   7    5.57    0.20
  -3  -2   7    5.87    0.21
   2   2  -7   35.91    0.90
   2   2  -7   36.45    1.84
   2   2  -7   34.19    0.91
  -2  -2   7   35.36    0.98
  -2  -2   7   36.90    0.91
  -2  -2   7   35.28    0.91
   1   2  -7    6.21    0.45
   1   2  -7    5.96    0.23
   1   2  -7    5.97    0.21
   1   2  -7    5.83    0.20
  -1  -2   7    6.23    0.21
  -1  -2   7    5.71    0.20
  -1  -2   7    6.26    0.20
  -1  -2   7    6.18    0.23
   0   2  -7   15.40    0.86
   0   2  -7   15.65    0.43
   0   2  -7   15.23    0.42
   0   2  -7   15.08    0.47
   0   2  -7   15.82    0.43
   0  -2   7   15.61    0.43
   0  -2   7   14.96    0.42
   0  -2   7   15.16    0.43
  -1   2  -7   19.13    0.52
  -1   2  -7   18.69    0.57
  -1   2  -7   18.47    0.52
  -1   2  -7   18.89    1.02
  -1   2  -7   19.43    0.53
   1  -2   7   19.04    0.52
   1  -2   7   18.98    0.52
   1  -2   7   20.09    0.52
  -2   2  -7    1.56    0.13
  -2   2  -7    1.73    0.13
  -2   2  -7    1.89    0.11
  -2   2  -7    1.68    0.12
   2  -2   7    1.78    0.12
   2  -2   7    1.77    0.11
   2  -2   7    1.57    0.11
   2  -2   7    1.76    0.13
  -3   2  -7   14.81    0.48
  -3   2  -7   15.19    0.44
  -3   2  -7   15.31    0.45
  -3   2  -7   15.30    0.44
   3  -2   7   15.89    0.45
   3  -2   7   15.79    0.45
   3  -2   7   14.55    0.45
   3  -2   7   15.63    0.45
   3  -2   7   14.71    0.43
  -4   2  -7    3.11    0.18
  -4   2  -7    3.07    0.19
  -4   2  -7    3.14    0.17
  -4   2  -7    3.15    0.19
   4  -2   7    3.25    0.19
   4  -2   7    3.28    0.19
   4  -2   7    3.27    0.17
   4  -2   7    2.83    0.17
   4  -2   7    3.13    0.17
   4  -2   7    3.49    0.19
  -5   2  -7    0.09    0.07
  -5   2  -7    0.11    0.08
   5  -2   7    0.00    0.06
   5  -2   7    0.10    0.09
   5  -2   7    0.03    0.08
   5  -2   7   -0.05    0.11
   5  -2   7   -0.01    0.07
   5  -2   7    0.10    0.07
  -6   2  -7    3.21    0.21
  -6   2  -7    3.28    0.21
   6  -2   7    3.29    0.21
   6  -2   7    2.87    0.19
   6  -2   7    3.73    0.22
   6  -2   7    3.11    0.27
   6  -2   7    3.12    0.24
  -7   2  -7    0.14    0.09
  -7   2  -7    0.77    0.12
   7  -2   7    0.96    0.17
   7  -2   7    0.54    0.21
   7  -2   7    0.60    0.13
   7  -2   7    0.45    0.12
   7   1  -7    2.62    0.19
   7   1  -7    2.65    0.23
   7   1  -7    1.60    0.59
  -7  -1   7    2.47    0.24
  -7  -1   7    2.61    0.18
  -7  -1   7    2.72    0.23
   6   1  -7    5.62    0.66
   6   1  -7    6.55    0.26
   6   1  -7    6.89    0.27
   6   1  -7    6.86    0.32
   6   1  -7    6.65    0.27
  -6  -1   7    7.13    0.25
  -6  -1   7    6.68    0.26
  -6  -1   7    7.01    0.24
  -6  -1   7    6.87    0.28
   5   1  -7    0.35    0.30
   5   1  -7    0.34    0.08
   5   1  -7    0.32    0.07
   5   1  -7    0.27    0.08
   5   1  -7    0.36    0.07
  -5  -1   7    0.34    0.09
  -5  -1   7    0.19    0.06
  -5  -1   7    0.31    0.07
  -5  -1   7    0.41    0.09
   4   1  -7    1.65    0.12
   4   1  -7    1.61    0.12
   4   1  -7    1.17    0.38
   4   1  -7    1.55    0.12
  -4  -1   7    1.74    0.12
  -4  -1   7    2.33    0.15
  -4  -1   7    1.68    0.11
  -4  -1   7    1.54    0.13
   3   1  -7    2.56    0.12
   3   1  -7    2.46    0.12
   3   1  -7    2.58    0.13
   3   1  -7    3.02    0.39
  -3  -1   7    2.58    0.13
  -3  -1   7    2.63    0.12
  -3  -1   7    2.66    0.15
  -3  -1   7    2.83    0.13
   2   1  -7    1.63    0.29
   2   1  -7    1.07    0.09
   2   1  -7    1.01    0.08
   2   1  -7    1.03    0.09
   2   1  -7    1.01    0.11
  -2  -1   7    0.96    0.11
  -2  -1   7    1.06    0.08
  -2  -1   7    1.16    0.09
  -2  -1   7    1.05    0.08
   1   1  -7   24.43    0.62
   1   1  -7   24.81    0.63
   1   1  -7   23.66    1.26
   1   1  -7   23.34    0.68
   1   1  -7   23.81    0.62
  -1  -1   7   24.28    0.68
  -1  -1   7   24.06    0.62
  -1  -1   7   23.62    0.62
  -1  -1   7   23.30    0.62
   0   1  -7   12.90    0.38
   0   1  -7   13.56    0.37
   0   1  -7   13.33    0.38
   0   1  -7   13.65    0.77
   0  -1   7   13.36    0.37
   0  -1   7   13.75    0.38
  -1   1  -7    0.14    0.05
  -1   1  -7    0.23    0.05
  -1   1  -7    0.19    0.05
  -1   1  -7    0.19    0.11
  -1   1  -7    0.25    0.06
   1  -1   7    0.20    0.05
   1  -1   7    0.19    0.05
   1  -1   7    0.22    0.06
  -2   1  -7   34.18    0.97
  -2   1  -7   35.38    0.90
  -2   1  -7   33.80    0.89
  -2   1  -7   34.75    0.90
   2  -1   7   35.88    0.90
   2  -1   7   34.07    0.89
   2  -1   7   34.67    0.90
  -3   1  -7    6.23    0.24
  -3   1  -7    6.34    0.21
  -3   1  -7    5.95    0.23
  -3   1  -7    6.30    0.26
   3  -1   7    6.28    0.24
   3  -1   7    6.26    0.21
   3  -1   7    6.00    0.23
   3  -1   7    6.04    0.24
   3  -1   7    6.40    0.23
  -4   1  -7    0.35    0.09
  -4   1  -7    0.32    0.08
  -4   1  -7    0.46    0.08
   4  -1   7    0.46    0.08
   4  -1   7    0.45    0.08
   4  -1   7    0.60    0.10
   4  -1   7    0.41    0.07
   4  -1   7    0.24    0.08
   4  -1   7    0.30    0.10
  -5   1  -7    0.42    0.09
  -5   1  -7    0.56    0.10
   5  -1   7    0.58    0.09
   5  -1   7    0.47    0.08
   5  -1   7    0.60    0.12
   5  -1   7    0.74    0.12
   5  -1   7    0.59    0.11
   5  -1   7    0.42    0.10
  -6   1  -7    0.73    0.11
  -6   1  -7    1.13    0.16
   6  -1   7    1.01    0.16
   6  -1   7    0.60    0.16
   6  -1   7    0.75    0.14
   6  -1   7    0.64    0.13
   6  -1   7    1.12    0.17
  -7   1  -7    0.08    0.10
  -7   1  -7    0.21    0.11
   7  -1   7   -0.05    0.10
   7  -1   7   -0.08    0.10
   7  -1   7    0.16    0.09
   7   0  -7    0.39    0.10
   7   0  -7    0.47    0.12
   7   0  -7    0.54    0.41
   7   0  -7    0.45    0.11
  -7   0   7    0.72    0.13
  -7   0   7    0.40    0.11
  -7   0   7    0.51    0.11
   6   0  -7    1.63    0.14
   6   0  -7    1.83    0.15
   6   0  -7    1.49    0.15
   6   0  -7    1.68    0.49
   6   0  -7    1.41    0.17
  -6   0   7    1.62    0.47
  -6   0   7    1.55    0.16
  -6   0   7    1.31    0.12
  -6   0   7    1.51    0.15
   5   0  -7    2.89    0.20
   5   0  -7    2.11    0.46
   5   0  -7    3.01    0.15
   5   0  -7    2.96    0.14
   5   0  -7    2.85    0.14
  -5   0   7    2.79    0.14
  -5   0   7    2.77    0.14
  -5   0   7    3.09    0.41
  -5   0   7    2.95    0.16
  -5   0   7    3.00    0.15
   4   0  -7    2.84    0.13
   4   0  -7    2.99    0.13
   4   0  -7    3.51    0.46
   4   0  -7    2.77    0.13
  -4   0   7    2.78    0.12
  -4   0   7    2.86    0.16
  -4   0   7    2.02    0.40
  -4   0   7    2.73    0.13
  -4   0   7    2.68    0.13
   3   0  -7    0.17    0.05
   3   0  -7    0.13    0.05
   3   0  -7    0.16    0.04
   3   0  -7    0.03    0.05
   3   0  -7    0.31    0.18
  -3   0   7    0.15    0.05
  -3   0   7    0.10    0.05
  -3   0   7    0.16    0.04
  -3   0   7    0.06    0.05
   2   0  -7   11.58    0.71
   2   0  -7   11.52    0.37
   2   0  -7   11.94    0.32
   2   0  -7   11.88    0.33
  -2   0   7   12.18    0.33
  -2   0   7   11.75    0.37
  -2   0   7   11.57    0.32
  -2   0   7   11.54    0.32
   1   0  -7    7.25    0.22
   1   0  -7    6.84    0.49
   1   0  -7    7.55    0.22
   1   0  -7    7.36    0.26
   1   0  -7    6.95    0.22
  -1   0   7    7.00    0.22
  -1   0   7    7.24    0.26
  -1   0   7    7.58    0.22
  -1   0   7    7.44    0.22
   0   0  -7    0.66    0.08
   0   0  -7    0.59    0.21
   0   0  -7    0.53    0.08
   0   0  -7    0.40    0.09
   0   0  -7    0.44    0.07
   0   0  -7    0.57    0.07
   0   0   7    0.63    0.08
   0   0   7    0.53    0.07
   0   0   7    0.63    0.08
  -1   0  -7   26.90    0.71
  -1   0  -7   27.03    0.78
  -1   0  -7   26.34    0.70
  -1   0  -7   27.88    0.70
   1   0   7   27.90    0.71
   1   0   7   27.44    0.71
  -2   0  -7   12.61    0.34
  -2   0  -7   11.98    0.41
  -2   0  -7   12.50    0.37
  -2   0  -7   12.13    0.36
   2   0   7   12.09    0.37
   2   0   7   13.10    0.37
   2   0   7   12.60    0.37
  -3   0  -7    1.67    0.14
  -3   0  -7    1.82    0.13
  -3   0  -7    1.90    0.15
   3   0   7    1.80    0.13
   3   0   7    1.93    0.15
  -4   0  -7    7.17    0.27
  -4   0  -7    7.57    0.30
  -4   0  -7    7.35    0.32
   4   0   7    7.46    0.27
   4   0   7    7.53    0.23
   4   0   7    7.13    0.27
   4   0   7    6.37    0.28
   4   0   7    7.31    0.29
   4   0   7    7.43    0.29
  -5   0  -7    2.14    0.17
  -5   0  -7    1.91    0.17
  -5   0  -7    1.85    0.17
   5   0   7    2.12    0.17
   5   0   7    1.67    0.21
   5   0   7    1.48    0.21
   5   0   7    2.09    0.14
   5   0   7    1.62    0.16
  -6   0  -7    4.24    0.25
  -6   0  -7    3.56    0.24
  -6   0  -7    4.05    0.24
   6   0   7    4.33    0.23
   6   0   7    3.47    0.29
   6   0   7    4.19    0.20
   6   0   7    4.12    0.24
  -7   0  -7    0.95    0.14
  -7   0  -7    1.24    0.21
  -7   0  -7    1.23    0.23
   7   0   7    1.01    0.15
   7   0   7    1.13    0.20
   7   0   7    1.87    0.17
   7  -1  -7    0.18    0.43
   7  -1  -7    0.19    0.09
   7  -1  -7    0.28    0.09
  -7   1   7    0.26    0.07
  -7   1   7    0.13    0.07
  -7   1   7    0.15    0.10
   6  -1  -7    8.51    0.84
   6  -1  -7   10.84    0.31
   6  -1  -7   11.18    0.31
   6  -1  -7   11.11    0.44
  -6   1   7   11.30    0.32
  -6   1   7   11.04    0.33
  -6   1   7    9.07    0.79
   5  -1  -7    1.27    0.10
   5  -1  -7    1.35    0.10
   5  -1  -7    1.08    0.09
   5  -1  -7    1.37    0.16
   5  -1  -7    0.40    0.33
  -5   1   7    1.19    0.09
  -5   1   7    1.21    0.11
   4  -1  -7    3.21    0.12
   4  -1  -7    3.07    0.19
   4  -1  -7    3.80    0.47
   4  -1  -7    2.95    0.16
   4  -1  -7    3.19    0.12
  -4   1   7    3.22    0.12
  -4   1   7    2.99    0.13
   3  -1  -7    4.10    0.13
   3  -1  -7    3.99    0.13
   3  -1  -7    4.00    0.18
   3  -1  -7    3.96    0.40
  -3   1   7    3.95    0.14
  -3   1   7    3.88    0.13
   2  -1  -7    4.84    0.15
   2  -1  -7    5.03    0.20
   2  -1  -7    5.14    0.16
   2  -1  -7    5.06    0.40
   2  -1  -7    4.25    0.15
  -2   1   7    4.92    0.16
  -2   1   7    5.21    0.15
  -2   1   7    5.14    0.16
  -2   1   7    5.25    0.21
   1  -1  -7    1.76    0.09
   1  -1  -7    2.03    0.09
   1  -1  -7    1.91    0.13
   1  -1  -7    1.76    0.25
   1  -1  -7    1.92    0.10
  -1   1   7    1.95    0.09
  -1   1   7    1.90    0.09
  -1   1   7    1.55    0.09
  -1   1   7    1.55    0.09
  -1   1   7    1.93    0.10
  -1   1   7    2.11    0.13
   0  -1  -7    4.03    0.19
   0  -1  -7    4.23    0.16
   0  -1  -7    4.25    0.15
   0  -1  -7    4.24    0.14
   0  -1  -7    4.24    0.15
   0   1   7    4.32    0.15
   0   1   7    4.01    0.15
   0   1   7    4.28    0.16
  -1  -1  -7    9.41    0.28
  -1  -1  -7    9.00    0.29
  -1  -1  -7    9.51    0.25
   1   1   7    9.45    0.28
   1   1   7    9.67    0.29
   1   1   7    9.03    0.28
  -2  -1  -7    8.69    0.32
  -2  -1  -7    9.07    0.29
  -2  -1  -7    8.55    0.28
   2   1   7    8.94    0.28
   2   1   7    8.74    0.28
   2   1   7    8.87    0.29
  -3  -1  -7   50.57    1.30
  -3  -1  -7   50.34    1.29
  -3  -1  -7   51.28    1.41
   3   1   7   51.89    1.30
   3   1   7   52.22    1.30
   3   1   7   49.95    1.30
  -4  -1  -7    0.09    0.07
  -4  -1  -7    0.22    0.07
  -4  -1  -7    0.21    0.08
  -4  -1  -7    0.17    0.10
   4   1   7    0.24    0.10
   4   1   7    0.18    0.07
   4   1   7    0.19    0.07
   4   1   7    0.48    0.09
   4   1   7    0.16    0.09
  -5  -1  -7   11.54    0.49
  -5  -1  -7   12.93    0.42
  -5  -1  -7   12.62    0.44
  -5  -1  -7   13.18    0.43
   5   1   7   11.78    0.43
   5   1   7   12.51    0.36
   5   1   7   12.41    0.41
   5   1   7   12.28    0.41
   5   1   7   11.99    0.43
  -6  -1  -7    5.37    0.27
  -6  -1  -7    5.19    0.28
  -6  -1  -7    5.61    0.28
   6   1   7    5.44    0.22
   6   1   7    5.41    0.27
   6   1   7    5.15    0.27
   7  -2  -7    2.18    0.15
   7  -2  -7    1.45    0.22
  -7   2   7    2.19    0.14
   6  -2  -7    0.37    0.06
   6  -2  -7   -0.19    0.40
   6  -2  -7    0.41    0.10
  -6   2   7    0.42    0.06
  -6   2   7    0.05    0.05
   5  -2  -7    3.70    0.14
   5  -2  -7    3.59    0.54
   5  -2  -7    3.58    0.16
   5  -2  -7    3.46    0.22
  -5   2   7    3.67    0.14
  -5   2   7    3.89    0.14
   4  -2  -7    5.57    0.17
   4  -2  -7    5.85    0.52
   4  -2  -7    5.84    0.22
   4  -2  -7    5.45    0.26
  -4   2   7    5.56    0.17
  -4   2   7    5.72    0.17
   3  -2  -7    0.01    0.03
   3  -2  -7    0.04    0.05
   3  -2  -7   -0.10    0.12
  -3   2   7    0.02    0.03
  -3   2   7   -0.02    0.03
   2  -2  -7   28.42    0.81
   2  -2  -7   29.49    1.50
   2  -2  -7   28.75    0.72
  -2   2   7   28.27    0.71
   1  -2  -7    3.67    0.12
   1  -2  -7    3.81    0.36
   1  -2  -7    3.84    0.18
   1  -2  -7    3.67    0.14
   1  -2  -7    3.63    0.13
  -1   2   7    3.45    0.13
  -1   2   7    3.79    0.14
  -1   2   7    3.62    0.11
   0  -2  -7    0.42    0.07
   0  -2  -7    0.59    0.08
   0  -2  -7    0.43    0.05
   0  -2  -7    0.52    0.07
   0  -2  -7    0.51    0.08
   0   2   7    0.51    0.07
   0   2   7    0.52    0.08
   0   2   7    0.38    0.07
  -1  -2  -7   29.39    0.73
  -1  -2  -7   28.11    0.82
  -1  -2  -7   27.89    0.73
   1   2   7   28.14    0.73
   1   2   7   28.37    0.73
   1   2   7   28.21    0.74
  -2  -2  -7    8.83    0.29
  -2  -2  -7    9.36    0.30
  -2  -2  -7    9.12    0.34
  -2  -2  -7    9.29    0.29
   2   2   7    9.09    0.30
   2   2   7    9.49    0.29
  -3  -2  -7    0.11    0.06
  -3  -2  -7    0.09    0.06
  -3  -2  -7    0.18    0.07
   3   2   7    0.18    0.08
   3   2   7    0.12    0.06
   3   2   7    0.21    0.07
  -4  -2  -7    2.60    0.17
  -4  -2  -7    2.25    0.18
  -4  -2  -7    2.31    0.17
  -4  -2  -7    2.07    0.22
   4   2   7    2.47    0.16
   4   2   7    2.69    0.22
  -5  -2  -7   19.04    0.71
  -5  -2  -7   20.88    0.61
  -5  -2  -7   20.77    0.65
  -5  -2  -7   21.42    0.62
   5   2   7   19.76    0.63
   5   2   7   20.95    0.61
   5   2   7   20.29    0.61
  -6  -2  -7    0.06    0.11
  -6  -2  -7    0.00    0.11
  -6  -2  -7   -0.01    0.09
   6   2   7    0.06    0.09
   6   2   7    0.10    0.11
   6   2   7    0.16    0.07
   7  -3  -7    0.88    0.49
   7  -3  -7    0.87    0.16
   6  -3  -7   12.08    0.34
   6  -3  -7   11.83    0.48
   6  -3  -7   12.70    0.37
  -6   3   7   12.40    0.32
   5  -3  -7    0.38    0.07
   5  -3  -7    0.47    0.30
   5  -3  -7    0.33    0.09
   4  -3  -7    9.27    0.36
   4  -3  -7    9.32    0.31
   4  -3  -7    8.87    0.65
   3  -3  -7   20.02    0.58
   3  -3  -7   19.14    1.09
   2  -3  -7    2.41    0.31
   2  -3  -7    2.34    0.09
   2  -3  -7    2.30    0.15
  -2   3   7    2.38    0.09
  -2   3   7    2.28    0.08
   1  -3  -7    5.08    0.14
   1  -3  -7    4.93    0.15
   1  -3  -7    5.27    0.17
   1  -3  -7    4.99    0.22
  -1   3   7    5.33    0.16
   0  -3  -7   10.86    0.30
   0  -3  -7   10.44    0.37
   0  -3  -7   10.71    0.30
   0   3   7   10.96    0.31
   0   3   7   10.53    0.29
   0   3   7   10.81    0.30
   0   3   7   11.13    0.31
  -1  -3  -7    0.70    0.09
  -1  -3  -7    0.67    0.10
  -1  -3  -7    0.64    0.09
  -1  -3  -7    0.38    0.08
   1   3   7    0.66    0.09
   1   3   7    0.63    0.09
   1   3   7    0.71    0.11
  -2  -3  -7    1.56    0.11
  -2  -3  -7    1.32    0.15
  -2  -3  -7    1.40    0.13
  -2  -3  -7    1.61    0.12
   2   3   7    1.53    0.15
   2   3   7    1.47    0.11
   2   3   7    1.31    0.12
  -3  -3  -7   13.65    0.47
  -3  -3  -7   13.84    0.42
  -3  -3  -7   13.90    0.42
  -3  -3  -7   13.53    0.49
   3   3   7   13.95    0.42
   3   3   7   13.52    0.42
   3   3   7   14.18    0.44
  -4  -3  -7    0.43    0.09
  -4  -3  -7    0.40    0.14
  -4  -3  -7    0.30    0.09
  -4  -3  -7    0.36    0.09
   4   3   7    0.47    0.12
   4   3   7    0.25    0.10
   4   3   7    0.36    0.08
  -5  -3  -7    1.71    0.20
  -5  -3  -7    1.64    0.20
  -5  -3  -7    1.89    0.18
  -5  -3  -7    1.41    0.31
   5   3   7    1.46    0.16
   5   3   7    1.28    0.18
   5   3   7    1.43    0.19
  -6  -3  -7    1.47    0.20
  -6  -3  -7    1.91    0.22
  -6  -3  -7    2.13    0.24
   6   3   7    1.97    0.24
   6  -4  -7   -0.71    0.44
   6  -4  -7    0.10    0.06
   6  -4  -7    0.29    0.11
   6  -4  -7    0.33    0.11
   5  -4  -7    6.36    0.64
   5  -4  -7    6.77    0.32
   5  -4  -7    7.37    0.26
   5  -4  -7    6.87    0.28
   4  -4  -7    8.02    0.34
   4  -4  -7    8.27    0.29
   4  -4  -7    8.31    0.30
   4  -4  -7    8.26    0.62
   3  -4  -7    0.04    0.06
   3  -4  -7    0.06    0.06
   3  -4  -7    0.08    0.07
   3  -4  -7    0.08    0.13
   2  -4  -7    8.38    0.26
   2  -4  -7    8.27    0.59
   2  -4  -7    8.40    0.32
   1  -4  -7    3.87    0.21
  -1   4   7    4.18    0.14
  -1   4   7    3.99    0.14
   0  -4  -7    0.09    0.05
   0  -4  -7    0.07    0.06
   0  -4  -7    0.11    0.05
   0  -4  -7    0.16    0.05
   0   4   7    0.11    0.04
   0   4   7    0.06    0.05
   0   4   7    0.18    0.06
   0   4   7    0.10    0.04
  -1  -4  -7    4.12    0.17
  -1  -4  -7    4.43    0.18
  -1  -4  -7    4.00    0.17
  -1  -4  -7    4.33    0.23
   1   4   7    4.28    0.17
   1   4   7    4.52    0.20
   1   4   7    4.56    0.18
   1   4   7    4.25    0.17
  -2  -4  -7   16.86    0.48
  -2  -4  -7   16.81    0.48
  -2  -4  -7   16.74    0.49
  -2  -4  -7   16.73    0.55
   2   4   7   17.18    0.50
   2   4   7   16.80    0.48
   2   4   7   17.41    0.49
  -3  -4  -7    0.35    0.08
  -3  -4  -7    0.25    0.08
  -3  -4  -7    0.46    0.08
  -3  -4  -7    0.39    0.10
  -3  -4  -7    0.34    0.13
   3   4   7    0.48    0.12
   3   4   7    0.44    0.08
  -4  -4  -7    1.53    0.16
  -4  -4  -7    1.44    0.17
  -4  -4  -7    0.88    0.18
  -4  -4  -7    1.04    0.18
   4   4   7    1.61    0.20
   4   4   7    1.44    0.26
   4   4   7    1.41    0.15
  -5  -4  -7   12.43    0.46
  -5  -4  -7   10.60    0.53
  -5  -4  -7   12.03    0.42
  -5  -4  -7   11.57    0.42
   5   4   7   11.99    0.41
   5   4   7   11.10    0.50
   5   4   7   11.43    0.42
   5  -5  -7    5.66    0.29
   5  -5  -7    5.68    0.25
   5  -5  -7    5.72    0.60
   5  -5  -7    5.42    0.26
   4  -5  -7    1.25    0.14
   4  -5  -7    1.00    0.15
   4  -5  -7    1.05    0.35
   4  -5  -7    1.17    0.16
   3  -5  -7   15.67    0.95
   3  -5  -7   16.31    0.54
   3  -5  -7   16.39    0.47
   3  -5  -7   16.17    0.52
   2  -5  -7   13.36    0.38
   2  -5  -7   13.15    0.84
   2  -5  -7   13.55    0.46
   1  -5  -7    4.84    0.24
  -1   5   7    4.50    0.16
  -1   5   7    4.62    0.15
   0  -5  -7    7.65    0.23
   0  -5  -7    7.69    0.23
   0  -5  -7    7.73    0.24
   0  -5  -7    7.78    0.32
   0   5   7    8.05    0.26
   0   5   7    7.42    0.24
  -1  -5  -7    5.96    0.21
  -1  -5  -7    5.98    0.22
  -1  -5  -7    5.95    0.22
  -1  -5  -7    6.26    0.28
   1   5   7    5.43    0.21
   1   5   7    6.07    0.24
   1   5   7    6.07    0.22
   1   5   7    5.72    0.20
  -2  -5  -7    0.35    0.08
  -2  -5  -7    0.29    0.12
  -2  -5  -7    0.32    0.10
  -2  -5  -7    0.21    0.08
  -2  -5  -7    0.25    0.07
   2   5   7    0.28    0.07
   2   5   7    0.41    0.09
   2   5   7    0.32    0.11
  -3  -5  -7    1.93    0.17
  -3  -5  -7    2.01    0.25
  -3  -5  -7    1.96    0.16
   3   5   7    2.10    0.25
   3   5   7    2.02    0.19
   3   5   7    2.11    0.17
  -4  -5  -7   10.88    0.50
  -4  -5  -7   10.98    0.39
  -4  -5  -7   10.85    0.39
   4   5   7   11.25    0.41
   4   5   7   11.23    0.47
   4   5   7   11.00    0.39
   5  -6  -7    3.49    0.54
   4  -6  -7   13.52    0.47
   4  -6  -7   13.83    0.44
   4  -6  -7   13.94    0.49
   4  -6  -7   13.80    0.89
   3  -6  -7   10.83    0.74
   3  -6  -7   10.89    0.40
   3  -6  -7   11.02    0.35
   3  -6  -7   10.76    0.40
   2  -6  -7    6.46    0.21
   2  -6  -7    6.30    0.56
   2  -6  -7    6.45    0.27
   2  -6  -7    6.12    0.29
   1  -6  -7   15.31    0.39
   1  -6  -7   14.40    0.50
  -1   6   7   13.94    0.38
  -1   6   7   14.11    0.38
   0  -6  -7    6.86    0.21
   0  -6  -7    6.95    0.23
   0  -6  -7    6.80    0.21
   0  -6  -7    6.87    0.31
   0   6   7    7.20    0.25
   0   6   7    6.98    0.23
  -1  -6  -7    4.19    0.19
  -1  -6  -7    4.15    0.21
  -1  -6  -7    4.36    0.19
  -1  -6  -7    4.53    0.26
   1   6   7    4.46    0.18
   1   6   7    4.14    0.24
   1   6   7    4.33    0.19
  -2  -6  -7    6.72    0.33
  -2  -6  -7    7.23    0.26
   2   6   7    6.29    0.26
   2   6   7    7.07    0.32
   2   6   7    6.80    0.27
  -3  -6  -7    0.38    0.18
  -3  -6  -7    0.25    0.10
  -3  -6  -7    0.18    0.09
   3   6   7    0.32    0.17
   3   6   7    0.23    0.09
   3   6   7    0.26    0.12
   3  -7  -7    8.11    0.65
   3  -7  -7    8.12    0.33
   3  -7  -7    8.19    0.29
   3  -7  -7    7.74    0.35
   2  -7  -7   17.63    0.56
   2  -7  -7   16.77    0.58
   2  -7  -7   16.85    0.47
   1  -7  -7    0.22    0.10
   1  -7  -7    0.22    0.08
   1  -7  -7    0.06    0.06
  -1   7   7    0.17    0.05
  -1   7   7    0.08    0.06
   0  -7  -7    9.95    0.31
   0  -7  -7    9.89    0.41
   0   7   7    9.71    0.30
   0   7   7    9.73    0.33
  -1  -7  -7    5.98    0.30
  -1  -7  -7    5.93    0.24
  -1  -7  -7    5.87    0.26
  -1  -7  -7    6.71    0.25
   1   7   7    6.35    0.30
   1   7   7    6.31    0.24
   1   7   7    5.70    0.22
   0 -10   8    3.36    0.66
   0 -10   8    3.70    0.26
   0 -10   8    3.05    0.25
  -1  10  -8    0.15    0.10
   1 -10   8   -0.08    0.30
   1 -10   8    0.01    0.10
   1 -10   8    0.09    0.11
   2   9  -8    0.64    0.13
  -2  -9   8    0.63    0.12
  -2  -9   8    0.69    0.14
   1   9  -8    0.00    0.08
  -1  -9   8    0.04    0.10
  -1  -9   8    0.09    0.09
  -1  -9   8   -0.04    0.30
   0   9  -8    0.24    0.10
   0  -9   8    0.09    0.26
   0  -9   8    0.27    0.10
   0  -9   8    0.31    0.10
  -1   9  -8    0.39    0.09
   1  -9   8    0.54    0.12
   1  -9   8    0.26    0.28
   1  -9   8    0.56    0.11
  -2   9  -8    5.40    0.27
   2  -9   8    6.55    0.29
   2  -9   8    6.11    0.29
  -3   9  -8   -0.17    0.17
  -3   9  -8    0.13    0.09
   3  -9   8    0.04    0.09
   3  -9   8   -0.08    0.10
   4  -9   8    6.13    0.32
   4  -9   8    6.30    0.31
   4   8  -8    2.24    0.24
   4   8  -8    2.03    0.24
   4   8  -8    1.92    0.39
  -4  -8   8    1.90    0.21
  -4  -8   8    2.54    0.26
   3   8  -8    3.63    0.24
   3   8  -8    3.14    0.33
   3   8  -8    3.13    0.24
  -3  -8   8    3.40    0.23
  -3  -8   8    3.27    0.25
   2   8  -8    0.73    0.12
   2   8  -8    0.51    0.15
  -2  -8   8    0.36    0.31
  -2  -8   8    0.47    0.10
  -2  -8   8    0.49    0.11
   1   8  -8    0.95    0.15
  -1  -8   8    0.97    0.17
  -1  -8   8    0.80    0.29
  -1  -8   8    0.88    0.15
   0   8  -8    0.28    0.34
   0   8  -8    0.77    0.15
   0   8  -8    1.01    0.15
   0   8  -8    0.92    0.15
   0  -8   8    0.99    0.26
   0  -8   8    1.28    0.16
   0  -8   8    0.96    0.16
  -1   8  -8    0.21    0.13
  -1   8  -8    0.43    0.10
  -1   8  -8   -0.09    0.30
  -1   8  -8    0.47    0.12
   1  -8   8    0.49    0.10
   1  -8   8    0.44    0.10
  -2   8  -8    0.02    0.12
  -2   8  -8    0.16    0.13
  -2   8  -8    0.06    0.07
  -2   8  -8   -0.07    0.31
   2  -8   8    0.07    0.08
   2  -8   8    0.02    0.09
  -3   8  -8    0.47    0.10
  -3   8  -8    0.43    0.14
  -3   8  -8    0.29    0.32
   3  -8   8    0.49    0.11
   3  -8   8    0.56    0.11
  -4   8  -8    1.85    0.32
  -4   8  -8    1.44    0.44
  -4   8  -8    2.00    0.18
   4  -8   8    2.01    0.20
   4  -8   8    1.82    0.19
   4  -8   8    2.01    0.21
  -5   8  -8   -0.16    0.10
   5  -8   8    0.28    0.12
   5  -8   8    0.22    0.18
   5  -8   8    0.01    0.10
   4   7  -8    6.23    0.37
   4   7  -8    6.81    0.31
   4   7  -8    7.04    0.33
  -4  -7   8    6.65    0.30
  -4  -7   8    7.18    0.33
   3   7  -8    2.78    0.27
   3   7  -8    2.77    0.20
  -3  -7   8    2.86    0.19
  -3  -7   8    2.26    0.21
  -3  -7   8    2.21    0.27
  -3  -7   8    2.31    0.27
   2   7  -8    6.12    0.31
   2   7  -8    5.72    0.26
  -2  -7   8    4.82    0.28
  -2  -7   8    5.34    0.59
  -2  -7   8    6.16    0.26
  -2  -7   8    5.58    0.30
  -2  -7   8    5.69    0.26
   1   7  -8    8.28    0.32
   1   7  -8    8.73    0.35
  -1  -7   8    8.44    0.65
  -1  -7   8    8.27    0.32
  -1  -7   8    8.30    0.32
  -1  -7   8    8.51    0.32
   0   7  -8    1.09    0.17
   0   7  -8    0.86    0.14
   0   7  -8    0.45    0.30
   0   7  -8    0.82    0.13
   0  -7   8    1.12    0.17
   0  -7   8    1.14    0.35
   0  -7   8    0.82    0.14
   0  -7   8    1.10    0.13
  -1   7  -8    2.63    0.20
  -1   7  -8    2.70    0.21
  -1   7  -8    2.46    0.17
   1  -7   8    2.72    0.19
   1  -7   8    2.67    0.18
   1  -7   8    2.44    0.18
  -2   7  -8    0.76    0.35
  -2   7  -8    0.91    0.14
  -2   7  -8    1.04    0.13
  -2   7  -8    1.33    0.19
   2  -7   8    0.99    0.14
   2  -7   8    0.61    0.10
  -3   7  -8    0.07    0.11
  -3   7  -8    0.23    0.12
  -3   7  -8    0.25    0.08
  -3   7  -8    0.05    0.29
   3  -7   8    0.22    0.09
   3  -7   8    0.34    0.09
  -4   7  -8    3.03    0.43
  -4   7  -8    3.23    0.28
  -4   7  -8    3.47    0.27
  -4   7  -8    3.19    0.21
  -4   7  -8    3.18    0.27
   4  -7   8    3.55    0.22
   4  -7   8    3.49    0.28
   4  -7   8    3.66    0.22
   4  -7   8    3.32    0.21
  -5   7  -8    1.02    0.26
  -5   7  -8    1.10    0.16
   5  -7   8    1.48    0.29
   5  -7   8    1.01    0.18
   5  -7   8    1.09    0.19
   5  -7   8    0.99    0.18
   5   6  -8    1.19    0.19
   5   6  -8    1.25    0.20
   5   6  -8    1.21    0.21
  -5  -6   8    0.65    0.19
  -5  -6   8    1.40    0.28
  -5  -6   8    1.39    0.21
   4   6  -8    0.31    0.09
   4   6  -8    0.36    0.10
   4   6  -8    0.17    0.14
   4   6  -8   -0.04    0.32
  -4  -6   8    0.32    0.13
  -4  -6   8    0.19    0.13
  -4  -6   8    0.35    0.11
  -4  -6   8    0.39    0.09
   3   6  -8    5.94    0.29
   3   6  -8    5.70    0.25
  -3  -6   8    5.70    0.26
  -3  -6   8    5.66    0.29
  -3  -6   8    5.41    0.24
  -3  -6   8    5.27    0.29
   2   6  -8   10.51    0.37
   2   6  -8   10.24    0.35
  -2  -6   8   10.27    0.35
  -2  -6   8   10.00    0.71
  -2  -6   8   10.36    0.35
  -2  -6   8   10.20    0.39
  -2  -6   8   10.24    0.37
   1   6  -8    0.71    0.13
   1   6  -8    0.54    0.11
  -1  -6   8    0.58    0.11
  -1  -6   8    0.60    0.12
  -1  -6   8    0.54    0.20
  -1  -6   8    0.68    0.13
   0   6  -8   21.21    0.60
   0   6  -8   20.46    0.59
   0  -6   8   20.86    0.59
   0  -6   8   20.26    0.59
   0  -6   8   20.07    0.59
   0  -6   8   19.84    1.14
  -1   6  -8    8.43    0.31
  -1   6  -8    9.27    0.33
  -1   6  -8    9.22    0.31
   1  -6   8    8.67    0.31
   1  -6   8    8.53    0.31
   1  -6   8    8.77    0.31
  -2   6  -8    5.50    0.24
  -2   6  -8    5.55    0.25
  -2   6  -8    5.63    0.24
  -2   6  -8    5.23    0.50
  -2   6  -8    5.43    0.25
   2  -6   8    5.21    0.24
   2  -6   8    5.36    0.24
  -3   6  -8    7.34    0.30
  -3   6  -8    7.80    0.31
  -3   6  -8    7.98    0.32
  -3   6  -8    7.74    0.58
  -3   6  -8    7.71    0.30
   3  -6   8    7.85    0.30
   3  -6   8    8.08    0.30
  -4   6  -8    0.38    0.09
  -4   6  -8    0.47    0.13
  -4   6  -8    0.33    0.12
  -4   6  -8    0.21    0.11
  -4   6  -8    0.52    0.12
  -4   6  -8    0.41    0.19
   4  -6   8    0.25    0.11
   4  -6   8    0.49    0.10
   4  -6   8    0.76    0.13
   4  -6   8    0.39    0.09
   4  -6   8    0.41    0.10
  -5   6  -8    0.25    0.17
  -5   6  -8    0.26    0.09
  -5   6  -8    0.29    0.18
   5  -6   8    0.21    0.15
   5  -6   8    0.26    0.09
   5  -6   8    0.29    0.10
   5  -6   8    0.33    0.10
   5  -6   8    0.45    0.14
  -6   6  -8    1.17    0.18
  -6   6  -8    1.20    0.33
   6  -6   8    1.08    0.15
   6  -6   8    1.07    0.20
   6  -6   8    1.02    0.18
   6  -6   8    1.18    0.19
   6   5  -8    0.21    0.12
   6   5  -8   -0.04    0.12
   6   5  -8    0.31    0.15
  -6  -5   8    0.04    0.20
  -6  -5   8    0.45    0.15
  -6  -5   8    0.07    0.13
   5   5  -8    5.30    0.29
   5   5  -8    4.99    0.30
   5   5  -8    5.21    0.26
  -5  -5   8    5.07    0.24
  -5  -5   8    5.09    0.30
  -5  -5   8    4.96    0.26
  -5  -5   8    4.78    0.33
   4   5  -8   10.17    0.38
   4   5  -8   10.43    0.36
   4   5  -8   10.83    0.41
  -4  -5   8   10.57    0.39
  -4  -5   8   10.18    0.36
  -4  -5   8    9.74    0.35
  -4  -5   8    9.71    0.38
   3   5  -8    0.81    0.12
   3   5  -8    1.28    0.46
   3   5  -8    0.79    0.13
  -3  -5   8    0.90    0.18
  -3  -5   8    0.84    0.12
  -3  -5   8    0.76    0.12
  -3  -5   8    0.81    0.13
   2   5  -8    7.16    0.28
  -2  -5   8    6.81    0.54
  -2  -5   8    6.65    0.28
  -2  -5   8    6.79    0.26
  -2  -5   8    7.20    0.28
  -2  -5   8    6.87    0.26
   1   5  -8   20.34    0.56
   1   5  -8   18.84    0.55
  -1  -5   8   18.85    0.55
  -1  -5   8   19.00    0.55
  -1  -5   8   19.67    1.08
  -1  -5   8   19.16    0.55
   0   5  -8    3.32    0.17
   0   5  -8    3.05    0.18
   0   5  -8    3.30    0.45
   0   5  -8    3.30    0.18
   0  -5   8    3.39    0.17
   0  -5   8    2.97    0.16
   0  -5   8    3.25    0.18
  -1   5  -8    1.96    0.15
  -1   5  -8    2.19    0.16
  -1   5  -8    1.94    0.15
  -1   5  -8    2.09    0.43
   1  -5   8    1.98    0.14
   1  -5   8    1.96    0.15
   1  -5   8    2.06    0.15
  -2   5  -8    9.96    0.34
  -2   5  -8   10.63    0.68
  -2   5  -8   10.19    0.34
  -2   5  -8    9.44    0.33
   2  -5   8    9.56    0.33
   2  -5   8    9.60    0.34
   2  -5   8    9.93    0.34
  -3   5  -8    0.66    0.11
  -3   5  -8    0.67    0.13
  -3   5  -8    0.53    0.10
  -3   5  -8    0.64    0.10
  -3   5  -8    0.41    0.16
   3  -5   8    0.88    0.13
   3  -5   8    0.81    0.13
   3  -5   8    0.69    0.11
   3  -5   8    0.77    0.14
  -4   5  -8    4.98    0.27
  -4   5  -8    4.80    0.23
  -4   5  -8    5.15    0.25
  -4   5  -8    4.97    0.41
  -4   5  -8    4.86    0.26
   4  -5   8    5.46    0.27
   4  -5   8    5.28    0.24
   4  -5   8    4.79    0.27
   4  -5   8    5.26    0.24
   4  -5   8    5.44    0.25
  -5   5  -8    2.81    0.24
  -5   5  -8    3.12    0.20
  -5   5  -8    2.85    0.33
  -5   5  -8    2.60    0.27
  -5   5  -8    2.76    0.24
   5  -5   8    2.62    0.20
   5  -5   8    3.11    0.26
   5  -5   8    2.52    0.27
   5  -5   8    3.02    0.19
   5  -5   8    3.05    0.21
  -6   5  -8    0.09    0.10
  -6   5  -8    0.01    0.16
   6  -5   8   -0.02    0.16
   6  -5   8    0.06    0.10
   6  -5   8    0.28    0.10
   6  -5   8    0.15    0.10
   6   4  -8    1.53    0.20
   6   4  -8    1.93    0.25
  -6  -4   8    2.20    0.30
  -6  -4   8    1.62    0.23
  -6  -4   8    1.45    0.17
  -6  -4   8    1.53    0.24
   5   4  -8    7.90    0.31
   5   4  -8    8.53    0.34
   5   4  -8    8.15    0.36
  -5  -4   8    8.42    0.33
  -5  -4   8    8.39    0.36
  -5  -4   8    7.70    0.33
  -5  -4   8    8.24    0.30
   4   4  -8    0.32    0.29
   4   4  -8    0.05    0.07
   4   4  -8    0.01    0.08
  -4  -4   8   -0.04    0.08
  -4  -4   8    0.04    0.06
  -4  -4   8    0.02    0.09
  -4  -4   8    0.04    0.09
   3   4  -8   10.26    0.35
   3   4  -8    9.86    0.32
  -3  -4   8   10.02    0.33
  -3  -4   8    9.37    0.35
  -3  -4   8   10.10    0.34
  -3  -4   8    9.36    0.32
   2   4  -8   17.98    0.51
   2   4  -8   17.68    0.52
  -2  -4   8   17.39    0.55
  -2  -4   8   17.81    0.51
  -2  -4   8   18.04    0.51
  -2  -4   8   17.86    0.51
   1   4  -8    0.77    0.11
   1   4  -8    0.78    0.11
   1   4  -8    0.30    0.24
   1   4  -8    0.63    0.12
  -1  -4   8    0.60    0.10
  -1  -4   8    0.70    0.13
  -1  -4   8    0.56    0.12
  -1  -4   8    0.88    0.27
   0   4  -8   14.72    0.43
   0   4  -8   16.01    0.90
   0   4  -8   14.66    0.44
   0   4  -8   14.68    0.44
   0  -4   8   14.71    0.43
   0  -4   8   14.31    0.43
   0  -4   8   14.21    0.43
  -1   4  -8   17.70    0.51
  -1   4  -8   17.26    0.51
  -1   4  -8   17.52    0.51
  -1   4  -8   18.10    1.00
   1  -4   8   17.58    0.51
   1  -4   8   17.57    0.51
   1  -4   8   18.40    0.51
  -2   4  -8    2.05    0.29
  -2   4  -8    2.25    0.16
  -2   4  -8    1.93    0.15
  -2   4  -8    1.81    0.14
   2  -4   8    1.92    0.14
   2  -4   8    1.84    0.14
   2  -4   8    1.83    0.15
  -3   4  -8   20.28    1.12
  -3   4  -8   21.05    0.60
  -3   4  -8   21.24    0.61
  -3   4  -8   21.73    0.61
   3  -4   8   20.52    0.60
   3  -4   8   21.55    0.61
   3  -4   8   21.25    0.60
   3  -4   8   20.12    0.59
  -4   4  -8    9.09    0.33
  -4   4  -8    9.48    0.60
  -4   4  -8    9.34    0.35
  -4   4  -8    8.86    0.33
  -4   4  -8    9.17    0.34
   4  -4   8    9.08    0.36
   4  -4   8    9.04    0.33
   4  -4   8    9.13    0.33
   4  -4   8    9.34    0.33
   4  -4   8    9.11    0.34
   4  -4   8    9.73    0.35
  -5   4  -8    0.37    0.12
  -5   4  -8    0.20    0.09
  -5   4  -8    0.40    0.12
  -5   4  -8    0.32    0.13
  -5   4  -8    0.50    0.19
   5  -4   8    0.31    0.10
   5  -4   8    0.09    0.11
   5  -4   8    0.30    0.08
   5  -4   8    0.41    0.10
   5  -4   8    0.45    0.13
  -6   4  -8    4.84    0.25
  -6   4  -8    4.31    0.33
   6  -4   8    4.54    0.25
   6  -4   8    4.17    0.26
   6  -4   8    4.65    0.35
   6  -4   8    4.10    0.33
   6  -4   8    4.89    0.27
   6   3  -8   -0.11    0.39
   6   3  -8    0.27    0.13
   6   3  -8    0.11    0.09
  -6  -3   8    0.20    0.08
  -6  -3   8    0.23    0.14
  -6  -3   8    0.23    0.11
   5   3  -8    1.81    0.49
   5   3  -8    2.19    0.19
   5   3  -8    1.98    0.19
   5   3  -8    2.15    0.16
  -5  -3   8    1.92    0.21
  -5  -3   8    2.17    0.15
  -5  -3   8    2.07    0.18
   4   3  -8    2.36    0.18
   4   3  -8    2.62    0.15
   4   3  -8    1.36    0.42
  -4  -3   8    2.39    0.15
  -4  -3   8    2.18    0.17
  -4  -3   8    2.70    0.19
  -4  -3   8    2.43    0.17
   3   3  -8   16.45    0.47
   3   3  -8   16.93    0.49
  -3  -3   8   16.86    0.48
  -3  -3   8   16.08    0.51
  -3  -3   8   16.14    0.48
  -3  -3   8   16.65    0.47
   2   3  -8    0.26    0.07
   2   3  -8    0.31    0.06
   2   3  -8    0.23    0.24
  -2  -3   8    0.17    0.06
  -2  -3   8    0.29    0.07
  -2  -3   8    0.25    0.07
  -2  -3   8    0.24    0.06
   1   3  -8   67.65    1.67
   1   3  -8   66.88    1.68
   1   3  -8   69.28    3.32
  -1  -3   8   68.54    1.67
  -1  -3   8   67.02    1.68
  -1  -3   8   66.48    1.80
  -1  -3   8   66.08    1.67
   0   3  -8   38.07    1.99
   0   3  -8   40.43    1.02
   0   3  -8   38.91    1.00
   0   3  -8   40.06    1.04
   0  -3   8   39.15    1.01
   0  -3   8   39.38    1.01
   0  -3   8   38.39    1.01
  -1   3  -8    4.89    0.21
  -1   3  -8    4.53    0.19
  -1   3  -8    4.35    0.38
  -1   3  -8    4.53    0.19
  -1   3  -8    4.39    0.20
   1  -3   8    4.57    0.20
   1  -3   8    4.45    0.19
   1  -3   8    4.42    0.18
  -2   3  -8   53.91    1.41
  -2   3  -8   56.60    2.72
  -2   3  -8   55.39    1.43
  -2   3  -8   55.32    1.51
  -2   3  -8   53.87    1.40
   2  -3   8   55.22    1.40
   2  -3   8   56.04    1.40
   2  -3   8   54.31    1.41
   2  -3   8   57.40    1.41
  -3   3  -8   10.23    0.34
  -3   3  -8    9.78    0.68
  -3   3  -8   10.49    0.35
  -3   3  -8   10.59    0.34
  -3   3  -8   10.62    0.38
   3  -3   8   10.22    0.35
   3  -3   8   10.19    0.35
   3  -3   8   10.98    0.35
   3  -3   8    9.94    0.34
  -4   3  -8    0.33    0.08
  -4   3  -8    0.29    0.08
  -4   3  -8    0.26    0.09
  -4   3  -8    0.44    0.10
   4  -3   8    0.34    0.10
   4  -3   8    0.96    0.15
   4  -3   8    0.26    0.08
   4  -3   8    0.38    0.09
   4  -3   8    0.43    0.09
   4  -3   8    0.35    0.10
  -5   3  -8   11.91    0.42
  -5   3  -8   11.69    0.40
  -5   3  -8   11.70    0.43
   5  -3   8   11.02    0.43
   5  -3   8   11.85    0.44
   5  -3   8   12.18    0.41
   5  -3   8   11.94    0.39
   5  -3   8   11.95    0.41
   5  -3   8   11.33    0.42
  -6   3  -8    5.35    0.27
  -6   3  -8    5.15    0.27
   6  -3   8    4.61    0.33
   6  -3   8    5.26    0.25
   6  -3   8    4.67    0.35
   6  -3   8    5.05    0.27
   6  -3   8    5.37    0.27
  -7   3  -8    1.85    0.22
  -7   3  -8    1.62    0.22
   7  -3   8    1.69    0.22
   7  -3   8    1.72    0.21
   7  -3   8    1.82    0.22
   7   2  -8    0.97    0.49
   7   2  -8    1.85    0.19
  -7  -2   8    1.53    0.17
  -7  -2   8    1.49    0.29
  -7  -2   8    1.52    0.24
  -7  -2   8    1.44    0.18
   6   2  -8    6.02    0.25
   6   2  -8    5.58    0.28
  -6  -2   8    6.12    0.27
  -6  -2   8    5.92    0.30
  -6  -2   8    5.55    0.27
  -6  -2   8    5.78    0.25
   5   2  -8    7.93    0.34
   5   2  -8    7.95    0.30
   5   2  -8    8.12    0.28
   5   2  -8    7.26    0.28
  -5  -2   8    7.83    0.27
  -5  -2   8    8.04    0.30
  -5  -2   8    8.53    0.29
  -5  -2   8    8.24    0.31
   4   2  -8    0.81    0.11
   4   2  -8    1.01    0.12
   4   2  -8    0.61    0.32
   4   2  -8    1.00    0.13
  -4  -2   8    0.78    0.11
  -4  -2   8    0.79    0.15
  -4  -2   8    0.91    0.13
  -4  -2   8    0.85    0.14
   3   2  -8    0.94    0.10
   3   2  -8    1.03    0.12
   3   2  -8    1.06    0.11
   3   2  -8    0.58    0.31
  -3  -2   8    1.14    0.12
  -3  -2   8    1.38    0.15
  -3  -2   8    1.16    0.11
  -3  -2   8    1.12    0.13
   2   2  -8   29.75    0.77
   2   2  -8   29.14    0.76
   2   2  -8   28.83    0.76
   2   2  -8   30.24    1.57
  -2  -2   8   29.35    0.76
  -2  -2   8   29.17    0.76
  -2  -2   8   28.66    0.83
   1   2  -8   16.58    0.51
   1   2  -8   17.24    0.46
   1   2  -8   16.65    0.97
   1   2  -8   17.04    0.47
  -1  -2   8   15.89    0.46
  -1  -2   8   16.86    0.47
  -1  -2   8   17.07    0.52
  -1  -2   8   17.08    0.47
   0   2  -8    4.54    0.18
   0   2  -8    4.19    0.38
   0   2  -8    4.59    0.18
   0   2  -8    4.59    0.19
   0   2  -8    4.53    0.21
   0  -2   8    4.88    0.18
   0  -2   8    4.75    0.19
   0  -2   8    5.04    0.19
  -1   2  -8   73.11    3.47
  -1   2  -8   71.64    1.81
  -1   2  -8   72.65    1.91
  -1   2  -8   70.78    1.76
  -1   2  -8   72.69    1.78
   1  -2   8   73.81    1.77
   1  -2   8   62.48    1.76
   1  -2   8   73.12    1.78
  -2   2  -8   19.58    0.56
  -2   2  -8   20.30    0.55
  -2   2  -8   20.66    1.10
  -2   2  -8   18.87    0.55
  -2   2  -8   19.43    0.61
   2  -2   8   20.78    0.56
   2  -2   8   18.81    0.57
   2  -2   8   21.51    0.56
   2  -2   8   19.43    0.55
  -3   2  -8   23.45    0.71
  -3   2  -8   23.98    0.66
  -3   2  -8   23.21    0.65
  -3   2  -8   23.19    0.64
   3  -2   8   22.88    0.65
   3  -2   8   23.87    0.65
   3  -2   8   24.06    0.66
   3  -2   8   22.80    0.65
  -4   2  -8   29.56    0.88
  -4   2  -8   30.55    0.81
  -4   2  -8   29.49    0.82
  -4   2  -8   30.85    0.82
   4  -2   8   29.93    0.82
   4  -2   8   29.92    0.81
   4  -2   8   29.45    0.82
   4  -2   8   29.80    0.87
   4  -2   8   29.95    0.83
   4  -2   8   29.95    0.82
  -5   2  -8    0.30    0.10
  -5   2  -8    0.06    0.08
   5  -2   8    0.26    0.08
   5  -2   8    0.21    0.12
   5  -2   8    0.35    0.14
   5  -2   8    0.17    0.11
   5  -2   8    0.29    0.09
   5  -2   8    0.22    0.09
  -6   2  -8    0.69    0.12
  -6   2  -8    1.00    0.18
   6  -2   8    1.24    0.17
   6  -2   8    0.75    0.19
   6  -2   8    1.08    0.16
   6  -2   8    0.85    0.13
   6  -2   8    0.98    0.16
  -7   2  -8    4.52    0.28
  -7   2  -8    5.29    0.29
   7  -2   8    5.20    0.27
   7  -2   8    4.92    0.30
   7  -2   8    4.94    0.29
   7   1  -8    3.96    0.26
  -7  -1   8    3.54    0.27
  -7  -1   8    3.76    0.26
  -7  -1   8    3.55    0.21
   6   1  -8   12.53    0.40
   6   1  -8   12.13    0.40
   6   1  -8   11.61    0.38
  -6  -1   8   12.55    0.39
  -6  -1   8   12.41    0.41
  -6  -1   8   12.40    0.38
   5   1  -8    0.14    0.08
   5   1  -8    0.11    0.08
   5   1  -8    0.21    0.08
   5   1  -8   -0.09    0.32
   5   1  -8    0.17    0.07
  -5  -1   8    0.21    0.09
  -5  -1   8    0.12    0.06
  -5  -1   8    0.18    0.08
  -5  -1   8    0.08    0.07
   4   1  -8   10.26    0.78
   4   1  -8   10.52    0.33
   4   1  -8   10.49    0.32
   4   1  -8   10.40    0.32
  -4  -1   8   10.57    0.33
  -4  -1   8   10.93    0.36
  -4  -1   8   10.43    0.32
  -4  -1   8   10.73    0.32
   3   1  -8    8.52    0.26
   3   1  -8    8.34    0.27
   3   1  -8    8.73    0.67
   3   1  -8    8.32    0.30
   3   1  -8    8.34    0.27
  -3  -1   8    8.27    0.27
  -3  -1   8    8.91    0.32
  -3  -1   8    8.70    0.27
  -3  -1   8    8.50    0.27
   2   1  -8   11.13    0.71
   2   1  -8   10.75    0.32
   2   1  -8   11.12    0.32
   2   1  -8   10.82    0.32
   2   1  -8   10.88    0.36
  -2  -1   8   10.93    0.32
  -2  -1   8   10.91    0.37
  -2  -1   8   10.63    0.32
  -2  -1   8   10.92    0.32
   1   1  -8    0.12    0.05
   1   1  -8    0.26    0.05
   1   1  -8    0.19    0.05
   1   1  -8    0.13    0.12
  -1  -1   8    0.21    0.06
  -1  -1   8    0.23    0.05
  -1  -1   8    0.17    0.05
  -1  -1   8    0.23    0.06
   0   1  -8   19.13    0.58
   0   1  -8   19.13    0.53
   0   1  -8   19.28    1.06
   0   1  -8   19.52    0.53
   0   1  -8   19.43    0.52
   0  -1   8   18.77    0.52
   0  -1   8   19.37    0.52
  -1   1  -8    8.07    0.55
  -1   1  -8    7.72    0.26
  -1   1  -8    7.44    0.29
  -1   1  -8    7.65    0.26
  -1   1  -8    7.46    0.24
   1  -1   8    7.93    0.27
   1  -1   8    7.91    0.26
   1  -1   8    7.81    0.26
  -2   1  -8   35.11    0.93
  -2   1  -8   35.27    1.01
  -2   1  -8   35.37    0.93
  -2   1  -8   36.10    0.93
   2  -1   8   36.49    0.93
   2  -1   8   35.45    0.93
   2  -1   8   35.88    0.93
  -3   1  -8   34.36    1.00
  -3   1  -8   35.35    0.93
  -3   1  -8   34.62    0.92
  -3   1  -8   35.33    0.91
   3  -1   8   35.56    0.93
   3  -1   8   35.03    0.92
   3  -1   8   34.31    0.92
   3  -1   8   34.87    0.92
  -4   1  -8    2.69    0.18
  -4   1  -8    2.88    0.21
  -4   1  -8    2.67    0.19
   4  -1   8    2.74    0.18
   4  -1   8    3.08    0.21
   4  -1   8    2.92    0.17
   4  -1   8    2.39    0.19
   4  -1   8    2.81    0.20
   4  -1   8    2.99    0.16
  -5   1  -8    6.46    0.27
  -5   1  -8    6.25    0.28
   5  -1   8    5.60    0.29
   5  -1   8    5.85    0.31
   5  -1   8    6.18    0.23
   5  -1   8    6.11    0.31
   5  -1   8    6.38    0.27
   5  -1   8    5.68    0.27
  -6   1  -8   14.73    0.52
  -6   1  -8   14.99    0.50
   6  -1   8   14.70    0.46
   6  -1   8   15.30    0.50
   6  -1   8   14.84    0.49
   7   0  -8    2.62    0.20
   7   0  -8    2.88    0.22
  -7   0   8    2.68    0.18
  -7   0   8    2.67    0.20
  -7   0   8    2.57    0.24
   6   0  -8    0.11    0.08
   6   0  -8   -0.02    0.08
   6   0  -8    0.04    0.08
   6   0  -8   -0.27    0.39
  -6   0   8    0.01    0.08
  -6   0   8    0.06    0.06
  -6   0   8    0.03    0.09
   5   0  -8    7.20    0.24
   5   0  -8    6.99    0.23
   5   0  -8    7.25    0.32
   5   0  -8    6.69    0.25
  -5   0   8    7.14    0.25
  -5   0   8    6.92    0.24
  -5   0   8    7.04    0.27
   4   0  -8    8.39    0.26
   4   0  -8    8.23    0.29
   4   0  -8    8.59    0.27
   4   0  -8    8.41    0.26
   4   0  -8    8.38    0.69
  -4   0   8    8.46    0.26
  -4   0   8    8.61    0.27
  -4   0   8    8.60    0.26
  -4   0   8    8.17    0.30
   3   0  -8    0.15    0.05
   3   0  -8    0.14    0.06
   3   0  -8    0.13    0.05
   3   0  -8    0.06    0.06
   3   0  -8    0.46    0.23
  -3   0   8    0.13    0.05
  -3   0   8    0.13    0.05
  -3   0   8    0.09    0.07
  -3   0   8    0.23    0.05
   2   0  -8   25.30    1.37
   2   0  -8   25.09    0.66
   2   0  -8   24.98    0.73
   2   0  -8   24.53    0.65
   2   0  -8   25.90    0.65
  -2   0   8   25.83    0.65
  -2   0   8   25.20    0.65
  -2   0   8   24.88    0.65
  -2   0   8   26.89    0.66
  -2   0   8   25.15    0.73
   1   0  -8    7.98    0.56
   1   0  -8    8.09    0.25
   1   0  -8    8.40    0.25
   1   0  -8    8.36    0.26
   1   0  -8    8.57    0.30
  -1   0   8    8.45    0.26
  -1   0   8    8.14    0.25
  -1   0   8    8.32    0.25
  -1   0   8    8.41    0.30
   0   0  -8   12.08    0.34
   0   0  -8   11.89    0.34
   0   0  -8   11.60    0.35
   0   0  -8   11.81    0.40
   0   0  -8   12.32    0.73
   0   0   8   11.76    0.34
   0   0   8   12.14    0.35
   0   0   8   11.54    0.34
  -1   0  -8    0.93    0.11
  -1   0  -8    1.01    0.10
  -1   0  -8    0.89    0.08
  -1   0  -8    0.99    0.12
  -1   0  -8    0.92    0.10
   1   0   8    1.01    0.12
   1   0   8    0.84    0.09
  -2   0  -8   25.09    0.66
  -2   0  -8   25.34    0.75
  -2   0  -8   25.58    0.67
  -2   0  -8   25.01    0.69
   2   0   8   25.69    0.68
   2   0   8   23.71    0.68
   2   0   8   25.73    0.68
  -3   0  -8    9.41    0.32
  -3   0  -8    9.29    0.35
  -3   0  -8    9.67    0.34
   3   0   8    9.13    0.32
   3   0   8   10.14    0.33
   3   0   8    9.83    0.34
  -4   0  -8   19.02    0.59
  -4   0  -8   18.90    0.54
  -4   0  -8   17.70    0.64
   4   0   8   18.04    0.55
   4   0   8   18.43    0.54
   4   0   8   18.27    0.54
   4   0   8   17.17    0.54
  -5   0  -8   16.78    0.56
  -5   0  -8   17.32    0.53
   5   0   8   17.01    0.57
   5   0   8   16.77    0.53
   5   0   8   16.77    0.48
   5   0   8   16.56    0.55
   5   0   8   17.77    0.53
  -6   0  -8    0.43    0.10
  -6   0  -8    0.47    0.12
   6   0   8    0.36    0.11
   6   0   8    0.53    0.09
   6   0   8    0.54    0.11
   6  -1  -8    6.66    0.22
   6  -1  -8    6.97    0.22
   6  -1  -8    6.94    0.34
   6  -1  -8    6.71    0.24
  -6   1   8    6.27    0.24
  -6   1   8    6.82    0.23
   5  -1  -8    2.88    0.55
   5  -1  -8    3.52    0.14
   5  -1  -8    3.57    0.14
   5  -1  -8    3.47    0.23
   5  -1  -8    3.43    0.16
  -5   1   8    3.38    0.15
  -5   1   8    3.57    0.16
   4  -1  -8    0.35    0.07
   4  -1  -8    0.44    0.08
   4  -1  -8    0.50    0.07
   4  -1  -8    0.39    0.05
   4  -1  -8    0.43    0.26
  -4   1   8    0.45    0.07
  -4   1   8    0.47    0.08
   3  -1  -8   11.98    0.36
   3  -1  -8   12.69    0.33
   3  -1  -8   12.99    0.41
   3  -1  -8   12.85    0.34
   3  -1  -8   12.70    0.81
  -3   1   8   13.24    0.35
  -3   1   8   12.79    0.35
   2  -1  -8   14.86    0.39
   2  -1  -8   14.38    0.86
   2  -1  -8   14.59    0.46
   2  -1  -8   14.22    0.40
  -2   1   8   14.51    0.38
  -2   1   8   14.58    0.38
  -2   1   8   14.54    0.39
  -2   1   8   14.84    0.39
  -2   1   8   14.28    0.46
   1  -1  -8    0.20    0.05
   1  -1  -8    0.37    0.14
   1  -1  -8    0.23    0.06
   1  -1  -8    0.27    0.05
   1  -1  -8    0.22    0.05
  -1   1   8    0.29    0.06
  -1   1   8    0.27    0.07
  -1   1   8    0.27    0.05
  -1   1   8    0.25    0.05
  -1   1   8    0.18    0.06
   0  -1  -8    8.08    0.31
   0  -1  -8    8.42    0.25
   0  -1  -8    8.68    0.26
   0  -1  -8    8.10    0.59
   0  -1  -8    8.12    0.26
   0  -1  -8    8.75    0.26
   0   1   8    8.57    0.27
   0   1   8    8.47    0.25
   0   1   8    8.36    0.26
  -1  -1  -8   17.12    0.54
  -1  -1  -8   17.12    0.45
  -1  -1  -8   17.36    0.47
  -1  -1  -8   17.40    0.48
  -1  -1  -8   17.03    0.48
   1   1   8   17.20    0.48
   1   1   8   17.28    0.49
   1   1   8   17.74    0.48
  -2  -1  -8   23.29    0.73
  -2  -1  -8   24.74    0.67
  -2  -1  -8   24.31    0.66
  -2  -1  -8   24.32    0.65
   2   1   8   24.82    0.67
   2   1   8   24.56    0.66
  -3  -1  -8    0.28    0.07
  -3  -1  -8    0.12    0.07
   3   1   8    0.24    0.08
   3   1   8    0.25    0.07
   3   1   8    0.14    0.09
  -4  -1  -8    2.92    0.25
  -4  -1  -8    3.26    0.19
  -4  -1  -8    3.15    0.19
  -4  -1  -8    3.08    0.21
   4   1   8    3.38    0.24
   4   1   8    2.57    0.17
   4   1   8    3.07    0.18
  -5  -1  -8    1.23    0.17
  -5  -1  -8    1.15    0.17
  -5  -1  -8    1.34    0.18
   5   1   8    1.06    0.17
   5   1   8    0.94    0.16
   5   1   8    1.09    0.17
  -6  -1  -8   17.92    0.60
  -6  -1  -8   17.77    0.56
  -6  -1  -8   17.96    0.58
   6   1   8   17.18    0.56
   6   1   8   16.93    0.49
   6   1   8   16.87    0.56
   6  -2  -8    3.47    0.25
   6  -2  -8    3.20    0.16
  -6   2   8    3.39    0.16
  -6   2   8    3.26    0.14
   5  -2  -8   11.43    0.36
   5  -2  -8   11.10    0.44
   5  -2  -8    9.00    0.84
   5  -2  -8   10.95    0.31
  -5   2   8   11.30    0.31
  -5   2   8   11.15    0.30
   4  -2  -8   10.18    0.40
   4  -2  -8   10.49    0.35
   4  -2  -8   10.18    0.29
   4  -2  -8    9.94    0.74
  -4   2   8   10.85    0.29
  -4   2   8   10.39    0.28
   3  -2  -8    3.60    0.19
   3  -2  -8    3.32    0.13
   3  -2  -8    3.40    0.40
  -3   2   8    3.64    0.13
  -3   2   8    3.55    0.12
   2  -2  -8   11.10    0.71
   2  -2  -8   11.28    0.38
   2  -2  -8   10.68    0.30
  -2   2   8   10.92    0.30
   1  -2  -8    9.70    0.29
   1  -2  -8    9.47    0.65
   1  -2  -8   10.51    0.36
   1  -2  -8   10.03    0.28
   1  -2  -8    9.69    0.27
  -1   2   8   10.05    0.28
  -1   2   8   10.02    0.29
  -1   2   8    9.91    0.26
   0  -2  -8    0.77    0.13
   0  -2  -8    0.47    0.09
   0  -2  -8    0.60    0.10
   0  -2  -8    0.52    0.07
   0   2   8    0.54    0.09
   0   2   8    0.55    0.10
   0   2   8    0.50    0.08
  -1  -2  -8    4.56    0.18
  -1  -2  -8    4.33    0.22
  -1  -2  -8    4.56    0.18
   1   2   8    4.23    0.19
   1   2   8    4.24    0.17
   1   2   8    4.19    0.17
  -2  -2  -8    7.05    0.25
  -2  -2  -8    6.86    0.29
  -2  -2  -8    6.88    0.25
   2   2   8    7.14    0.25
   2   2   8    6.72    0.27
   2   2   8    6.90    0.25
  -3  -2  -8    2.31    0.19
  -3  -2  -8    2.38    0.16
  -3  -2  -8    2.41    0.16
   3   2   8    2.50    0.17
   3   2   8    2.34    0.16
   3   2   8    2.53    0.21
  -4  -2  -8   11.02    0.47
  -4  -2  -8   11.86    0.39
  -4  -2  -8   12.20    0.44
  -4  -2  -8   12.09    0.40
   4   2   8   11.68    0.39
   4   2   8   12.27    0.43
   4   2   8   11.74    0.40
  -5  -2  -8    1.36    0.20
  -5  -2  -8    0.94    0.18
  -5  -2  -8    1.11    0.19
   5   2   8    1.06    0.19
   5   2   8    0.94    0.16
   5   2   8    1.10    0.19
   6  -3  -8    7.35    0.26
   6  -3  -8    7.12    0.22
   6  -3  -8    6.30    0.34
   5  -3  -8    8.42    0.37
   5  -3  -8    8.68    0.30
   5  -3  -8    6.57    0.70
   4  -3  -8    0.11    0.07
   4  -3  -8   -0.02    0.19
   4  -3  -8    0.12    0.09
   3  -3  -8   41.75    2.14
   3  -3  -8   41.73    1.15
   3  -3  -8   41.20    1.02
   2  -3  -8    6.83    0.53
   2  -3  -8    7.17    0.21
   2  -3  -8    7.17    0.29
  -2   3   8    7.06    0.21
  -2   3   8    6.76    0.20
   1  -3  -8    0.56    0.06
   1  -3  -8    0.69    0.07
   1  -3  -8    0.71    0.07
   1  -3  -8    0.89    0.29
   1  -3  -8    0.51    0.09
  -1   3   8    0.41    0.07
   0  -3  -8    3.60    0.14
   0  -3  -8    3.60    0.15
   0  -3  -8    3.17    0.20
   0   3   8    3.76    0.17
   0   3   8    3.40    0.15
   0   3   8    3.36    0.13
   0   3   8    3.63    0.15
  -1  -3  -8    7.25    0.24
  -1  -3  -8    7.30    0.31
  -1  -3  -8    7.44    0.25
   1   3   8    7.56    0.25
   1   3   8    7.29    0.26
   1   3   8    7.52    0.25
  -2  -3  -8   -0.01    0.05
  -2  -3  -8    0.15    0.06
  -2  -3  -8    0.01    0.06
  -2  -3  -8    0.19    0.08
   2   3   8    0.00    0.08
   2   3   8    0.11    0.07
   2   3   8    0.05    0.06
  -3  -3  -8    1.25    0.22
  -3  -3  -8    1.48    0.18
  -3  -3  -8    1.44    0.14
  -3  -3  -8    1.67    0.15
   3   3   8    1.25    0.21
   3   3   8    1.35    0.14
  -4  -3  -8   -0.04    0.09
  -4  -3  -8    0.00    0.09
  -4  -3  -8    0.08    0.17
  -4  -3  -8    0.09    0.08
   4   3   8   -0.11    0.07
   4   3   8    0.19    0.11
   4   3   8    0.07    0.14
  -5  -3  -8    0.15    0.11
  -5  -3  -8   -0.02    0.10
  -5  -3  -8    0.12    0.12
   5   3   8    0.09    0.11
   5   3   8    0.12    0.09
   5   3   8    0.10    0.20
   5  -4  -8    0.24    0.31
   5  -4  -8    0.36    0.09
   5  -4  -8    0.54    0.12
   5  -4  -8    0.63    0.11
   4  -4  -8    6.45    0.60
   4  -4  -8    7.16    0.32
   4  -4  -8    7.17    0.28
   4  -4  -8    7.48    0.29
   3  -4  -8    8.57    0.33
   3  -4  -8    8.76    0.29
   3  -4  -8    7.82    0.61
   2  -4  -8    0.82    0.30
   2  -4  -8    0.91    0.10
   2  -4  -8    0.67    0.10
   1  -4  -8   20.42    0.64
  -1   4   8   20.94    0.53
  -1   4   8   20.26    0.53
   0  -4  -8    0.67    0.11
   0  -4  -8    0.54    0.10
   0  -4  -8    0.82    0.09
   0   4   8    1.04    0.12
   0   4   8    0.71    0.09
  -1  -4  -8    2.58    0.15
  -1  -4  -8    2.54    0.20
  -1  -4  -8    2.55    0.16
  -1  -4  -8    2.69    0.14
   1   4   8    2.49    0.14
   1   4   8    2.45    0.17
   1   4   8    2.49    0.18
   1   4   8    2.44    0.14
  -2  -4  -8    0.32    0.10
  -2  -4  -8    0.41    0.08
  -2  -4  -8    0.39    0.07
  -2  -4  -8    0.30    0.08
   2   4   8    0.44    0.12
   2   4   8    0.46    0.09
   2   4   8    0.34    0.08
  -3  -4  -8    0.21    0.15
  -3  -4  -8    0.25    0.09
  -3  -4  -8    0.23    0.07
   3   4   8    0.10    0.10
   3   4   8    0.22    0.08
   3   4   8    0.25    0.14
  -4  -4  -8   -0.09    0.19
  -4  -4  -8    0.11    0.10
  -4  -4  -8    0.05    0.08
   4   4   8   -0.05    0.12
   4   4   8   -0.01    0.08
   4   4   8    0.04    0.17
   4  -5  -8    0.08    0.10
   4  -5  -8    0.38    0.10
   4  -5  -8   -0.11    0.21
   4  -5  -8    0.11    0.08
   3  -5  -8    5.20    0.26
   3  -5  -8    4.86    0.26
   3  -5  -8    5.25    0.21
   3  -5  -8    4.83    0.49
   2  -5  -8    6.97    0.23
   2  -5  -8    6.81    0.31
   2  -5  -8    7.51    0.59
   1  -5  -8    0.15    0.09
  -1   5   8    0.44    0.08
  -1   5   8    0.36    0.06
   0  -5  -8    2.19    0.13
   0  -5  -8    2.33    0.12
   0  -5  -8    2.18    0.20
   0   5   8    2.28    0.16
   0   5   8    2.44    0.13
  -1  -5  -8   20.14    0.57
  -1  -5  -8   21.20    0.68
  -1  -5  -8   21.27    0.58
  -1  -5  -8   21.44    0.57
   1   5   8   21.42    0.59
   1   5   8   20.96    0.58
   1   5   8   21.25    0.56
  -2  -5  -8    0.24    0.07
  -2  -5  -8    0.26    0.15
   2   5   8    0.26    0.08
   2   5   8    0.12    0.12
   2   5   8    0.26    0.10
  -3  -5  -8    3.21    0.32
  -3  -5  -8    3.27    0.19
  -3  -5  -8    3.39    0.21
   3   5   8    3.66    0.32
   3   5   8    3.56    0.20
   3   5   8    3.48    0.24
   3  -6  -8   13.81    0.50
   3  -6  -8   14.36    0.43
   3  -6  -8   13.86    0.92
   3  -6  -8   14.45    0.51
   2  -6  -8    0.44    0.24
   2  -6  -8    0.38    0.10
   2  -6  -8    0.53    0.10
   2  -6  -8    0.56    0.10
   1  -6  -8   13.08    0.48
  -1   6   8   13.02    0.35
  -1   6   8   13.49    0.36
   0  -6  -8    9.09    0.28
   0  -6  -8    8.63    0.39
   0   6   8    8.93    0.28
   0   6   8    9.41    0.32
  -1  -6  -8    0.49    0.08
  -1  -6  -8    0.43    0.11
  -1  -6  -8    0.55    0.10
   1   6   8    0.56    0.13
   1   6   8    0.50    0.09
   1   6   8    0.56    0.09
   2   6   8    5.01    0.25
   1   9  -9    2.43    0.23
  -1  -9   9    2.28    0.24
  -1  -9   9    2.71    0.23
   0   9  -9   -0.19    0.39
   0   9  -9    0.13    0.11
   0  -9   9    0.00    0.10
   0  -9   9    0.05    0.10
   0  -9   9   -0.06    0.34
  -1   9  -9    6.30    0.30
   1  -9   9    5.94    0.30
   1  -9   9    6.56    0.31
  -2   9  -9    1.17    0.19
   2  -9   9    1.46    0.22
   2  -9   9    1.37    0.21
  -3   9  -9    0.30    0.41
  -3   9  -9    0.25    0.11
   3  -9   9    0.22    0.12
   3   8  -9    6.82    0.44
   3   8  -9    7.39    0.34
  -3  -8   9    7.54    0.36
  -3  -8   9    7.73    0.33
   2   8  -9    4.69    0.27
   2   8  -9    4.55    0.36
  -2  -8   9    4.31    0.25
  -2  -8   9    4.47    0.27
   1   8  -9    1.89    0.19
   1   8  -9    0.94    0.45
   1   8  -9    2.28    0.29
  -1  -8   9    2.28    0.18
  -1  -8   9    2.22    0.21
  -1  -8   9    1.81    0.57
   0   8  -9    9.92    0.42
   0   8  -9    9.73    0.36
   0  -8   9    9.59    0.36
   0  -8   9    8.78    0.78
   0  -8   9    9.39    0.36
  -1   8  -9    1.43    0.53
  -1   8  -9    2.12    0.27
  -1   8  -9    2.38    0.20
   1  -8   9    2.28    0.20
   1  -8   9    2.78    0.20
  -2   8  -9    0.14    0.08
  -2   8  -9    0.01    0.14
  -2   8  -9    0.26    0.39
   2  -8   9   -0.13    0.09
   2  -8   9    0.21    0.10
  -3   8  -9    5.78    0.29
   3  -8   9    6.99    0.31
   3  -8   9    6.76    0.31
  -4   8  -9    0.59    0.11
  -4   8  -9    0.12    0.38
   4  -8   9    0.61    0.13
   4  -8   9    0.58    0.19
   4  -8   9    0.43    0.13
   4   7  -9    1.63    0.22
   4   7  -9    0.84    0.44
   4   7  -9    1.37    0.23
   4   7  -9    1.35    0.21
  -4  -7   9    1.66    0.19
  -4  -7   9    1.14    0.16
   3   7  -9    5.15    0.27
   3   7  -9    5.51    0.35
  -3  -7   9    4.41    0.24
  -3  -7   9    4.91    0.28
   2   7  -9    0.36    0.15
   2   7  -9   -0.08    0.37
   2   7  -9    0.54    0.12
  -2  -7   9    0.54    0.11
  -2  -7   9    0.31    0.11
  -2  -7   9    0.88    0.15
   1   7  -9   23.11    0.66
   1   7  -9   24.03    0.69
  -1  -7   9   22.33    0.66
  -1  -7   9   22.69    0.66
  -1  -7   9   21.22    0.67
  -1  -7   9   22.10    1.30
   0   7  -9    2.44    0.19
   0   7  -9    3.19    0.25
   0  -7   9    2.79    0.20
   0  -7   9    2.27    0.47
   0  -7   9    2.35    0.18
   0  -7   9    2.54    0.23
  -1   7  -9    3.48    0.25
  -1   7  -9    3.84    0.21
   1  -7   9    3.57    0.24
   1  -7   9    3.77    0.22
   1  -7   9    3.55    0.21
  -2   7  -9   14.58    0.47
  -2   7  -9   14.29    0.50
   2  -7   9   14.91    0.47
   2  -7   9   14.81    0.48
  -3   7  -9   -0.18    0.13
  -3   7  -9    0.02    0.34
  -3   7  -9    0.04    0.09
   3  -7   9    0.09    0.09
   3  -7   9   -0.04    0.09
  -4   7  -9    1.36    0.19
  -4   7  -9    1.37    0.47
   4  -7   9    1.51    0.20
   4  -7   9    1.56    0.20
   4  -7   9    2.11    0.29
  -5   7  -9    5.55    0.29
  -5   7  -9    6.32    0.60
   5  -7   9    6.49    0.32
   5  -7   9    6.75    0.32
   5  -7   9    6.32    0.41
   5  -7   9    6.42    0.31
   5   6  -9    2.21    0.24
   5   6  -9    2.42    0.25
   4   6  -9    0.22    0.17
   4   6  -9    0.19    0.10
   4   6  -9    0.09    0.10
   4   6  -9    0.36    0.40
  -4  -6   9    0.16    0.13
  -4  -6   9    0.14    0.12
  -4  -6   9   -0.05    0.16
  -4  -6   9    0.09    0.08
   3   6  -9    1.15    0.16
   3   6  -9    1.50    0.24
   3   6  -9   -0.01    0.37
  -3  -6   9    0.74    0.14
  -3  -6   9    0.79    0.16
  -3  -6   9    1.37    0.14
  -3  -6   9    1.07    0.17
   2   6  -9    3.19    0.25
   2   6  -9    3.48    0.20
  -2  -6   9    3.63    0.24
  -2  -6   9    3.26    0.25
  -2  -6   9    3.56    0.21
  -2  -6   9    3.67    0.19
  -2  -6   9    3.18    0.50
   1   6  -9    1.31    0.41
   1   6  -9    1.54    0.16
   1   6  -9    1.40    0.20
  -1  -6   9    1.25    0.20
  -1  -6   9    1.24    0.16
  -1  -6   9    1.52    0.42
  -1  -6   9    1.02    0.14
   0   6  -9    6.73    0.29
   0   6  -9    6.90    0.30
   0   6  -9    6.75    0.27
   0  -6   9    6.80    0.29
   0  -6   9    6.36    0.27
   0  -6   9    6.47    0.27
  -1   6  -9   34.20    0.91
  -1   6  -9   32.63    0.94
  -1   6  -9   34.85    0.93
  -1   6  -9   33.74    1.80
   1  -6   9   34.28    0.92
   1  -6   9   33.84    0.92
   1  -6   9   33.00    0.92
  -2   6  -9    0.02    0.11
  -2   6  -9   -0.02    0.11
  -2   6  -9    0.02    0.08
  -2   6  -9    0.47    0.27
   2  -6   9    0.11    0.07
   2  -6   9    0.10    0.09
   2  -6   9    0.18    0.11
  -3   6  -9   11.39    0.43
  -3   6  -9   12.67    0.80
  -3   6  -9   12.10    0.41
  -3   6  -9   11.53    0.44
  -3   6  -9   12.62    0.44
   3  -6   9   11.85    0.41
   3  -6   9   13.19    0.46
   3  -6   9   12.10    0.43
   3  -6   9   12.73    0.43
  -4   6  -9    4.99    0.25
  -4   6  -9    4.99    0.31
  -4   6  -9    5.56    0.49
   4  -6   9    4.70    0.26
   4  -6   9    4.85    0.25
   4  -6   9    5.20    0.32
   4  -6   9    5.27    0.26
  -5   6  -9   -0.05    0.19
  -5   6  -9   -0.09    0.09
   5  -6   9   -0.02    0.09
   5  -6   9   -0.04    0.10
   5  -6   9    0.05    0.10
   5  -6   9   -0.08    0.15
   5   5  -9    0.46    0.16
   5   5  -9    0.60    0.12
   5   5  -9    0.49    0.42
   5   5  -9    0.54    0.13
  -5  -5   9    0.82    0.15
  -5  -5   9    0.53    0.16
  -5  -5   9    0.32    0.14
   4   5  -9    2.74    0.26
   4   5  -9    2.62    0.20
   4   5  -9    1.77    0.53
  -4  -5   9    1.93    0.24
  -4  -5   9    2.57    0.27
  -4  -5   9    2.27    0.21
  -4  -5   9    2.44    0.18
   3   5  -9    3.43    0.20
   3   5  -9    3.76    0.25
  -3  -5   9    3.24    0.25
  -3  -5   9    3.24    0.20
  -3  -5   9    2.98    0.24
  -3  -5   9    3.59    0.19
   2   5  -9    4.59    0.24
  -2  -5   9    4.07    0.26
  -2  -5   9    4.07    0.20
  -2  -5   9    4.34    0.24
  -2  -5   9    4.38    0.21
   1   5  -9    7.89    0.29
   1   5  -9    8.04    0.31
   1   5  -9    7.42    0.29
   1   5  -9    6.30    0.65
  -1  -5   9    7.80    0.29
  -1  -5   9    8.08    0.30
  -1  -5   9    7.83    0.28
  -1  -5   9    7.71    0.62
  -1  -5   9    7.63    0.31
   0   5  -9    0.79    0.14
   0   5  -9    1.03    0.13
   0   5  -9    1.02    0.16
   0   5  -9    1.06    0.30
   0  -5   9    0.93    0.16
   0  -5   9    0.95    0.13
   0  -5   9    0.83    0.12
  -1   5  -9    1.22    0.16
  -1   5  -9    1.23    0.15
  -1   5  -9    1.25    0.17
  -1   5  -9    1.78    0.41
   1  -5   9    1.32    0.14
   1  -5   9    1.41    0.14
   1  -5   9    1.31    0.17
  -2   5  -9    3.71    0.21
  -2   5  -9    4.10    0.44
  -2   5  -9    3.93    0.22
  -2   5  -9    4.06    0.23
   2  -5   9    3.54    0.21
   2  -5   9    3.90    0.23
   2  -5   9    3.73    0.20
  -3   5  -9   15.61    0.51
  -3   5  -9   15.97    0.50
  -3   5  -9   16.22    0.95
  -3   5  -9   16.84    0.52
   3  -5   9   16.31    0.51
   3  -5   9   15.58    0.50
   3  -5   9   15.90    0.51
   3  -5   9   16.03    0.50
  -4   5  -9    0.57    0.19
  -4   5  -9    0.68    0.14
  -4   5  -9    0.61    0.14
  -4   5  -9    0.48    0.10
   4  -5   9    0.71    0.12
   4  -5   9    0.97    0.16
   4  -5   9    0.93    0.15
   4  -5   9    0.60    0.10
  -5   5  -9    5.15    0.45
  -5   5  -9    4.12    0.32
  -5   5  -9    5.07    0.26
  -5   5  -9    4.93    0.33
   5  -5   9    5.05    0.26
   5  -5   9    4.72    0.26
   5  -5   9    4.57    0.27
   5  -5   9    4.38    0.32
  -6   5  -9    0.51    0.20
  -6   5  -9    0.37    0.11
   6  -5   9    0.51    0.12
   6  -5   9    0.57    0.14
   6  -5   9    0.30    0.12
   6  -5   9    0.07    0.18
   5   4  -9   -0.05    0.12
   5   4  -9    0.35    0.39
   5   4  -9    0.15    0.10
  -5  -4   9   -0.04    0.13
  -5  -4   9    0.11    0.12
  -5  -4   9    0.11    0.08
  -5  -4   9    0.05    0.12
   4   4  -9    6.56    0.30
   4   4  -9    6.87    0.27
  -4  -4   9    6.64    0.26
  -4  -4   9    6.85    0.31
  -4  -4   9    6.82    0.29
  -4  -4   9    5.88    0.30
   3   4  -9    0.08    0.29
   3   4  -9    0.26    0.10
   3   4  -9    0.29    0.08
  -3  -4   9    0.37    0.10
  -3  -4   9    0.12    0.10
  -3  -4   9    0.23    0.09
  -3  -4   9    0.36    0.08
   2   4  -9    2.90    0.48
   2   4  -9    3.34    0.18
   2   4  -9    3.47    0.21
  -2  -4   9    3.22    0.18
  -2  -4   9    3.08    0.22
  -2  -4   9    3.17    0.20
  -2  -4   9    3.26    0.17
   1   4  -9    2.17    0.16
   1   4  -9    2.59    0.18
   1   4  -9    2.31    0.15
   1   4  -9    2.25    0.42
  -1  -4   9    2.19    0.14
  -1  -4   9    1.98    0.16
  -1  -4   9    2.34    0.17
   0   4  -9    2.20    0.15
   0   4  -9    2.18    0.17
   0   4  -9    2.23    0.17
   0   4  -9    2.33    0.38
   0  -4   9    2.13    0.17
   0  -4   9    2.24    0.15
   0  -4   9    2.15    0.14
  -1   4  -9    8.38    0.29
  -1   4  -9    8.24    0.61
  -1   4  -9    8.35    0.31
  -1   4  -9    8.23    0.30
   1  -4   9    7.85    0.29
   1  -4   9    8.08    0.29
   1  -4   9    8.42    0.30
  -2   4  -9    0.11    0.07
  -2   4  -9    0.06    0.13
  -2   4  -9    0.05    0.08
  -2   4  -9   -0.01    0.08
   2  -4   9    0.05    0.06
   2  -4   9    0.01    0.08
   2  -4   9    0.15    0.07
   2  -4   9    0.13    0.09
  -3   4  -9    1.93    0.17
  -3   4  -9    1.61    0.29
  -3   4  -9    1.84    0.20
  -3   4  -9    1.85    0.16
   3  -4   9    1.69    0.20
   3  -4   9    1.76    0.16
   3  -4   9    1.58    0.16
   3  -4   9    1.66    0.18
  -4   4  -9    0.64    0.19
  -4   4  -9    0.77    0.14
  -4   4  -9    0.91    0.18
  -4   4  -9    0.66    0.11
   4  -4   9    0.60    0.10
   4  -4   9    0.56    0.11
   4  -4   9    0.67    0.10
   4  -4   9    0.63    0.13
   4  -4   9    0.66    0.14
  -5   4  -9    7.68    0.38
  -5   4  -9    8.00    0.36
  -5   4  -9    8.33    0.33
  -5   4  -9    8.63    0.63
   5  -4   9    8.38    0.32
   5  -4   9    8.45    0.35
   5  -4   9    8.72    0.34
  -6   4  -9    2.25    0.22
   6  -4   9    1.82    0.21
   6  -4   9    2.20    0.23
   6  -4   9    2.28    0.23
   6   3  -9    4.05    0.24
   6   3  -9    4.29    0.28
  -6  -3   9    4.23    0.29
  -6  -3   9    4.60    0.32
  -6  -3   9    4.17    0.27
  -6  -3   9    4.36    0.23
   5   3  -9    3.87    0.25
   5   3  -9    4.19    0.26
   5   3  -9    3.85    0.21
  -5  -3   9    3.69    0.26
  -5  -3   9    3.76    0.23
  -5  -3   9    3.63    0.27
  -5  -3   9    3.44    0.19
   4   3  -9    0.21    0.09
   4   3  -9    0.41    0.10
   4   3  -9   -0.27    0.33
   4   3  -9    0.23    0.07
  -4  -3   9    0.41    0.11
  -4  -3   9    0.24    0.07
  -4  -3   9    0.10    0.10
   3   3  -9    1.40    0.14
   3   3  -9    1.27    0.16
   3   3  -9    1.31    0.13
   3   3  -9    1.05    0.35
  -3  -3   9    1.19    0.17
  -3  -3   9    1.24    0.12
  -3  -3   9    1.30    0.16
   2   3  -9   10.01    0.32
   2   3  -9    9.65    0.74
   2   3  -9   10.39    0.34
  -2  -3   9   10.29    0.33
  -2  -3   9    9.62    0.36
  -2  -3   9    9.56    0.32
  -2  -3   9   10.55    0.34
   1   3  -9    5.52    0.22
   1   3  -9    5.67    0.23
   1   3  -9    5.51    0.23
   1   3  -9    5.75    0.52
  -1  -3   9    5.12    0.21
  -1  -3   9    5.55    0.23
  -1  -3   9    5.46    0.22
  -1  -3   9    4.78    0.23
   0   3  -9    6.21    0.24
   0   3  -9    6.32    0.25
   0   3  -9    6.33    0.25
   0   3  -9    6.20    0.27
   0   3  -9    6.57    0.54
   0  -3   9    6.42    0.24
   0  -3   9    6.53    0.25
   0  -3   9    6.48    0.24
  -1   3  -9    0.41    0.08
  -1   3  -9    0.36    0.08
  -1   3  -9    0.43    0.17
  -1   3  -9    0.74    0.14
  -1   3  -9    0.48    0.09
   1  -3   9    0.47    0.09
   1  -3   9    0.53    0.08
   1  -3   9    0.73    0.10
  -2   3  -9   12.98    0.41
  -2   3  -9   12.18    0.43
  -2   3  -9   12.96    0.78
  -2   3  -9   12.76    0.40
  -2   3  -9   12.41    0.40
   2  -3   9   12.55    0.40
   2  -3   9   12.26    0.39
   2  -3   9   12.87    0.41
   2  -3   9   12.82    0.40
  -3   3  -9   10.90    0.36
  -3   3  -9   10.70    0.40
  -3   3  -9   11.37    0.71
  -3   3  -9   10.64    0.38
  -3   3  -9   10.63    0.36
   3  -3   9   10.37    0.37
   3  -3   9   10.78    0.36
   3  -3   9   10.68    0.38
   3  -3   9   10.56    0.36
  -4   3  -9    0.19    0.08
  -4   3  -9    0.40    0.11
  -4   3  -9    0.16    0.08
  -4   3  -9    0.07    0.10
  -4   3  -9    0.25    0.17
   4  -3   9    0.31    0.11
   4  -3   9    0.25    0.08
   4  -3   9    0.43    0.12
   4  -3   9    0.10    0.09
  -5   3  -9    3.15    0.22
  -5   3  -9    3.08    0.29
  -5   3  -9    3.27    0.22
   5  -3   9    3.29    0.20
   5  -3   9    3.32    0.30
   5  -3   9    3.26    0.22
   5  -3   9    3.59    0.22
  -6   3  -9    0.26    0.10
  -6   3  -9    0.34    0.10
   6  -3   9    0.14    0.10
   6  -3   9    0.28    0.11
   6  -3   9    0.32    0.13
   6   2  -9    0.10    0.12
   6   2  -9    0.14    0.45
   6   2  -9    0.25    0.09
  -6  -2   9    0.26    0.13
  -6  -2   9    0.03    0.08
  -6  -2   9    0.13    0.13
  -6  -2   9    0.13    0.12
   5   2  -9   13.72    0.41
   5   2  -9   13.87    0.52
   5   2  -9   13.33    0.43
  -5  -2   9   13.13    0.41
  -5  -2   9   13.80    0.46
  -5  -2   9   13.69    0.44
  -5  -2   9   13.53    0.42
   4   2  -9    6.24    0.25
   4   2  -9    6.76    0.24
   4   2  -9    6.62    0.27
  -4  -2   9    6.52    0.24
  -4  -2   9    6.42    0.29
  -4  -2   9    6.43    0.25
  -4  -2   9    6.16    0.27
   3   2  -9   17.23    1.06
   3   2  -9   16.27    0.46
   3   2  -9   15.92    0.47
   3   2  -9   16.15    0.48
  -3  -2   9   15.93    0.46
  -3  -2   9   16.48    0.47
  -3  -2   9   16.62    0.52
  -3  -2   9   16.08    0.47
   2   2  -9    3.87    0.18
   2   2  -9    3.99    0.19
   2   2  -9    3.81    0.45
   2   2  -9    3.84    0.17
  -2  -2   9    3.89    0.17
  -2  -2   9    3.79    0.22
  -2  -2   9    3.95    0.18
  -2  -2   9    3.52    0.16
   1   2  -9    4.95    0.23
   1   2  -9    5.24    0.50
   1   2  -9    5.09    0.21
   1   2  -9    5.14    0.20
   1   2  -9    4.85    0.20
  -1  -2   9    5.02    0.21
  -1  -2   9    5.04    0.20
  -1  -2   9    5.00    0.24
   0   2  -9   12.09    0.38
   0   2  -9   12.28    0.77
   0   2  -9   11.86    0.41
   0   2  -9   11.92    0.36
   0   2  -9   11.92    0.37
   0  -2   9   12.32    0.37
   0  -2   9   12.11    0.37
   0  -2   9   12.14    0.38
  -1   2  -9   11.27    0.35
  -1   2  -9   11.07    0.40
  -1   2  -9   10.98    0.71
  -1   2  -9   10.62    0.34
  -1   2  -9   11.29    0.36
   1  -2   9   11.09    0.36
   1  -2   9   11.01    0.35
   1  -2   9   10.98    0.35
  -2   2  -9    8.26    0.29
  -2   2  -9    8.13    0.28
  -2   2  -9    8.28    0.30
  -2   2  -9    8.61    0.59
  -2   2  -9    7.97    0.32
   2  -2   9    7.87    0.29
   2  -2   9    8.49    0.31
  -3   2  -9    5.79    0.28
  -3   2  -9    6.18    0.27
  -3   2  -9    5.69    0.25
  -3   2  -9    6.03    0.23
   3  -2   9    5.64    0.24
   3  -2   9    5.87    0.25
   3  -2   9    6.26    0.28
  -4   2  -9    6.35    0.26
  -4   2  -9    6.63    0.27
  -4   2  -9    5.99    0.28
  -4   2  -9    6.28    0.30
   4  -2   9    5.96    0.26
   4  -2   9    6.21    0.30
   4  -2   9    6.28    0.30
   4  -2   9    6.23    0.27
  -5   2  -9    0.57    0.11
  -5   2  -9    1.11    0.17
   5  -2   9    0.80    0.14
   5  -2   9    1.02    0.18
   5  -2   9    0.84    0.16
   5  -2   9    0.45    0.15
  -6   2  -9    4.40    0.28
  -6   2  -9    4.79    0.27
   6  -2   9    4.48    0.24
   6  -2   9    4.62    0.28
   6  -2   9    4.05    0.26
   6   1  -9    9.80    0.33
   6   1  -9    9.58    0.35
  -6  -1   9    9.17    0.36
  -6  -1   9    9.90    0.36
  -6  -1   9    9.54    0.33
   5   1  -9    1.00    0.14
   5   1  -9    0.67    0.10
   5   1  -9    0.36    0.38
   5   1  -9    0.85    0.16
  -5  -1   9    0.90    0.15
  -5  -1   9    0.99    0.12
  -5  -1   9    0.79    0.12
  -5  -1   9    1.19    0.18
   4   1  -9    2.54    0.16
   4   1  -9    2.37    0.16
   4   1  -9    2.29    0.50
   4   1  -9    2.66    0.15
  -4  -1   9    2.67    0.15
  -4  -1   9    2.60    0.20
  -4  -1   9    2.70    0.17
  -4  -1   9    2.78    0.16
   3   1  -9   19.22    0.53
   3   1  -9   19.22    0.53
   3   1  -9   18.77    1.16
   3   1  -9   19.47    0.59
   3   1  -9   19.54    0.54
  -3  -1   9   19.54    0.53
  -3  -1   9   19.84    0.60
  -3  -1   9   19.60    0.54
  -3  -1   9   20.03    0.53
   2   1  -9    2.34    0.14
   2   1  -9    2.43    0.14
   2   1  -9    2.52    0.14
   2   1  -9    2.33    0.16
   2   1  -9    2.29    0.36
  -2  -1   9    2.44    0.14
  -2  -1   9    2.49    0.19
  -2  -1   9    2.36    0.13
  -2  -1   9    2.43    0.14
   1   1  -9   36.22    0.93
   1   1  -9   36.45    1.04
   1   1  -9   37.15    1.91
   1   1  -9   37.04    0.95
   1   1  -9   36.90    0.94
  -1  -1   9   35.80    1.03
  -1  -1   9   37.21    0.94
  -1  -1   9   36.04    0.94
  -1  -1   9   36.78    0.94
   0   1  -9    1.23    0.11
   0   1  -9    1.29    0.12
   0   1  -9    1.21    0.13
   0   1  -9    1.20    0.14
   0   1  -9    1.15    0.28
   0   1  -9    1.31    0.12
   0  -1   9    1.30    0.13
   0  -1   9    1.37    0.11
  -1   1  -9   22.73    0.61
  -1   1  -9   22.44    0.61
  -1   1  -9   22.65    0.69
  -1   1  -9   22.81    0.62
  -1   1  -9   22.71    1.24
   1  -1   9   21.24    0.61
   1  -1   9   22.33    0.61
   1  -1   9   21.52    0.61
  -2   1  -9    0.05    0.06
  -2   1  -9    0.06    0.08
  -2   1  -9    0.02    0.06
  -2   1  -9    0.14    0.06
   2  -1   9    0.08    0.05
   2  -1   9    0.00    0.08
   2  -1   9    0.03    0.07
  -3   1  -9    3.07    0.21
  -3   1  -9    3.30    0.20
  -3   1  -9    3.31    0.16
  -3   1  -9    3.07    0.18
   3  -1   9    3.32    0.18
   3  -1   9    3.02    0.18
   3  -1   9    3.33    0.22
  -4   1  -9    3.47    0.25
  -4   1  -9    3.43    0.20
  -4   1  -9    2.88    0.20
   4  -1   9    3.06    0.26
   4  -1   9    2.96    0.19
   4  -1   9    2.81    0.22
   4  -1   9    3.34    0.20
  -5   1  -9    5.55    0.27
  -5   1  -9    5.52    0.29
   5  -1   9    5.46    0.34
   5  -1   9    5.75    0.26
   5  -1   9    5.24    0.23
   5  -1   9    5.48    0.27
  -6   1  -9    5.50    0.30
  -6   1  -9    5.14    0.30
   6  -1   9    5.65    0.25
   6  -1   9    5.77    0.29
   6  -1   9    5.74    0.30
   6   0  -9    0.92    0.12
   6   0  -9    0.30    0.49
   6   0  -9    0.93    0.15
  -6   0   9    0.89    0.15
  -6   0   9    1.19    0.18
  -6   0   9    1.11    0.13
   5   0  -9    4.19    0.18
   5   0  -9    4.06    0.19
   5   0  -9    4.33    0.25
  -5   0   9    3.96    0.17
  -5   0   9    3.96    0.20
  -5   0   9    3.85    0.17
   4   0  -9    6.39    0.24
   4   0  -9    6.26    0.21
   4   0  -9    6.40    0.22
   4   0  -9    6.29    0.65
   4   0  -9    6.57    0.26
  -4   0   9    6.24    0.23
  -4   0   9    6.69    0.28
  -4   0   9    6.34    0.21
  -4   0   9    6.42    0.22
   3   0  -9    0.65    0.09
   3   0  -9    0.50    0.23
   3   0  -9    1.01    0.11
   3   0  -9    0.76    0.10
   3   0  -9    0.95    0.12
  -3   0   9    0.85    0.12
  -3   0   9    1.06    0.10
  -3   0   9    0.81    0.16
  -3   0   9    1.13    0.10
  -3   0   9    0.76    0.11
   2   0  -9   19.31    0.58
   2   0  -9   18.76    0.52
   2   0  -9   18.40    1.10
   2   0  -9   18.68    0.50
   2   0  -9   19.05    0.50
  -2   0   9   18.96    0.50
  -2   0   9   19.12    0.51
  -2   0   9   18.89    0.59
  -2   0   9   18.39    0.51
  -2   0   9   19.03    0.50
   1   0  -9    4.92    0.43
   1   0  -9    4.69    0.18
   1   0  -9    4.75    0.19
   1   0  -9    4.59    0.22
   1   0  -9    4.62    0.18
  -1   0   9    4.79    0.19
  -1   0   9    4.72    0.18
  -1   0   9    4.68    0.17
  -1   0   9    4.69    0.24
   0   0  -9    0.33    0.08
   0   0  -9    0.36    0.07
   0   0  -9    0.47    0.08
   0   0  -9    0.43    0.07
   0   0  -9    0.40    0.16
   0   0   9    0.39    0.07
   0   0   9    0.35    0.06
   0   0   9    0.44    0.08
  -1   0  -9   29.76    0.78
  -1   0  -9   29.74    0.79
  -1   0  -9   29.48    0.78
  -1   0  -9   28.30    1.58
  -1   0  -9   28.95    0.87
  -1   0  -9   29.97    0.77
   1   0   9   30.23    0.78
   1   0   9   30.20    0.79
  -2   0  -9    7.52    0.31
  -2   0  -9    7.59    0.23
  -2   0  -9    7.21    0.27
  -2   0  -9    7.23    0.28
   2   0   9    7.86    0.29
   2   0   9    7.32    0.27
   2   0   9    7.49    0.27
  -3   0  -9   11.50    0.43
  -3   0  -9   11.77    0.38
  -3   0  -9   12.04    0.40
   3   0   9   12.13    0.41
   3   0   9   11.76    0.39
   3   0   9   12.03    0.39
  -4   0  -9   -0.01    0.08
  -4   0  -9   -0.07    0.08
   4   0   9    0.00    0.08
   4   0   9    0.04    0.07
   4   0   9    0.06    0.12
  -5   0  -9    2.30    0.20
  -5   0  -9    2.39    0.22
   5   0   9    2.22    0.19
   5   0   9    2.49    0.31
   5   0   9    2.06    0.20
   6  -1  -9    7.50    0.27
  -6   1   9    7.90    0.28
  -6   1   9    7.89    0.26
   5  -1  -9    0.40    0.38
   5  -1  -9    0.98    0.17
   5  -1  -9    1.08    0.12
  -5   1   9    0.70    0.10
   4  -1  -9    4.81    0.18
   4  -1  -9    4.77    0.23
   4  -1  -9    4.61    0.58
  -4   1   9    5.17    0.18
   3  -1  -9   14.78    0.41
   3  -1  -9   14.74    0.38
   3  -1  -9   14.67    0.39
   3  -1  -9   14.41    0.93
   3  -1  -9   14.90    0.48
  -3   1   9   14.80    0.40
  -3   1   9   14.81    0.41
   2  -1  -9    9.97    0.31
   2  -1  -9   10.40    0.29
   2  -1  -9    9.86    0.68
   2  -1  -9    9.91    0.36
  -2   1   9    9.43    0.27
  -2   1   9   10.17    0.30
  -2   1   9    9.92    0.29
   1  -1  -9    0.56    0.10
   1  -1  -9    0.35    0.08
   1  -1  -9    0.69    0.26
   1  -1  -9    0.53    0.10
   1  -1  -9    0.51    0.09
  -1   1   9    0.52    0.08
  -1   1   9    0.58    0.10
  -1   1   9    0.83    0.16
  -1   1   9    0.59    0.09
  -1   1   9    0.49    0.08
   0  -1  -9   18.80    0.52
   0  -1  -9   19.38    0.60
   0  -1  -9   19.27    1.10
   0  -1  -9   18.63    0.53
   0  -1  -9   18.88    0.51
   0  -1  -9   19.02    0.51
   0   1   9   18.85    0.52
   0   1   9   19.10    0.51
   0   1   9   18.78    0.52
  -1  -1  -9    6.60    0.25
  -1  -1  -9    6.63    0.29
  -1  -1  -9    6.36    0.23
  -1  -1  -9    6.53    0.24
   1   1   9    6.66    0.24
   1   1   9    6.63    0.26
   1   1   9    6.22    0.23
  -2  -1  -9    0.94    0.12
  -2  -1  -9    1.09    0.14
  -2  -1  -9    1.09    0.15
  -2  -1  -9    1.23    0.15
   2   1   9    1.05    0.12
   2   1   9    1.12    0.17
  -3  -1  -9   14.42    0.50
  -3  -1  -9   14.02    0.44
   3   1   9   14.25    0.44
   3   1   9   14.31    0.44
   3   1   9   14.06    0.46
  -4  -1  -9    2.91    0.22
  -4  -1  -9    3.34    0.21
   4   1   9    3.13    0.19
   4   1   9    3.30    0.28
  -5  -1  -9    8.68    0.35
  -5  -1  -9    7.99    0.36
   5   1   9    8.75    0.34
   5   1   9    8.22    0.34
   5   1   9    7.58    0.42
   5  -2  -9    0.42    0.09
   5  -2  -9    0.53    0.12
   5  -2  -9    0.51    0.07
   5  -2  -9   -0.33    0.37
  -5   2   9    0.80    0.11
  -5   2   9    0.51    0.09
   4  -2  -9   19.55    0.51
   4  -2  -9   18.78    1.16
   4  -2  -9   19.71    0.59
  -4   2   9   19.35    0.50
  -4   2   9   19.47    0.50
   3  -2  -9    2.30    0.41
   3  -2  -9    2.71    0.19
   3  -2  -9    2.90    0.13
  -3   2   9    2.69    0.11
  -3   2   9    2.65    0.13
   2  -2  -9   23.72    0.72
   2  -2  -9   24.52    1.33
   2  -2  -9   23.85    0.62
  -2   2   9   23.54    0.61
   1  -2  -9   15.04    0.41
   1  -2  -9   15.53    0.51
   1  -2  -9   15.67    0.41
   1  -2  -9   15.11    0.93
  -1   2   9   15.42    0.42
  -1   2   9   15.28    0.40
  -1   2   9   15.94    0.43
   0  -2  -9    0.36    0.08
   0  -2  -9    0.37    0.07
   0  -2  -9    0.43    0.08
   0  -2  -9    0.31    0.07
   0   2   9    0.61    0.09
   0   2   9    0.43    0.07
   0   2   9    0.52    0.09
   0   2   9    0.41    0.08
  -1  -2  -9    6.43    0.29
  -1  -2  -9    6.71    0.25
   1   2   9    6.81    0.24
   1   2   9    6.57    0.24
   1   2   9    6.55    0.26
  -2  -2  -9   19.39    0.54
  -2  -2  -9   18.22    0.55
  -2  -2  -9   19.80    0.63
   2   2   9   19.89    0.57
   2   2   9   19.56    0.55
   2   2   9   19.71    0.55
  -3  -2  -9    0.31    0.09
  -3  -2  -9    0.35    0.09
   3   2   9    0.31    0.09
   3   2   9    0.67    0.14
   3   2   9    0.78    0.13
  -4  -2  -9    3.11    0.24
  -4  -2  -9    3.19    0.21
   4   2   9    3.27    0.20
   4   2   9    3.01    0.31
   4   2   9    3.36    0.24
  -5  -2  -9   13.06    0.45
  -5  -2  -9   12.29    0.48
  -5  -2  -9   12.60    0.45
   5   2   9   12.78    0.45
   5   2   9   11.91    0.55
   5  -3  -9    0.75    0.38
   5  -3  -9    1.38    0.21
   5  -3  -9    1.15    0.16
   4  -3  -9    0.09    0.09
   4  -3  -9    0.07    0.08
   4  -3  -9    0.28    0.22
   3  -3  -9    9.18    0.26
   3  -3  -9    9.22    0.35
   3  -3  -9    9.26    0.69
   2  -3  -9   20.77    1.19
   2  -3  -9   21.02    0.64
   2  -3  -9   20.56    0.54
  -2   3   9   20.58    0.53
  -2   3   9   20.45    0.53
   1  -3  -9    0.15    0.04
   1  -3  -9    0.23    0.05
   1  -3  -9    0.23    0.18
   1  -3  -9    0.08    0.08
   1  -3  -9    0.18    0.05
  -1   3   9    0.21    0.05
   0  -3  -9   28.78    0.72
   0  -3  -9   28.82    0.85
   0  -3  -9   27.71    0.72
   0   3   9   26.35    0.71
   0   3   9   28.60    0.74
   0   3   9   27.56    0.71
   0   3   9   29.08    0.73
  -1  -3  -9   18.01    0.52
  -1  -3  -9   18.93    0.61
  -1  -3  -9   19.06    0.51
   1   3   9   19.29    0.52
   1   3   9   18.19    0.51
   1   3   9   18.42    0.53
  -2  -3  -9    2.11    0.19
  -2  -3  -9    1.96    0.15
  -2  -3  -9    2.09    0.20
   2   3   9    1.67    0.21
   2   3   9    1.95    0.15
   2   3   9    1.73    0.17
  -3  -3  -9    2.76    0.19
  -3  -3  -9    2.32    0.17
  -3  -3  -9    2.37    0.31
   3   3   9    2.91    0.18
   3   3   9    2.34    0.28
   3   3   9    2.51    0.21
  -4  -3  -9    3.50    0.23
  -4  -3  -9    3.24    0.21
   4   3   9    2.84    0.21
   4   3   9    3.15    0.25
   4   3   9    2.89    0.34
   4  -4  -9    4.28    0.55
   4  -4  -9    4.81    0.24
   4  -4  -9    4.87    0.28
   4  -4  -9    5.10    0.26
   3  -4  -9    4.01    0.47
   3  -4  -9    3.85    0.19
   3  -4  -9    4.35    0.25
   2  -4  -9    2.76    0.14
   2  -4  -9    2.88    0.21
   2  -4  -9    3.27    0.44
   1  -4  -9    5.97    0.55
   1  -4  -9    5.38    0.28
  -1   4   9    5.47    0.19
  -1   4   9    5.50    0.20
   0  -4  -9    7.92    0.24
   0  -4  -9    7.58    0.25
   0  -4  -9    7.87    0.34
   0   4   9    7.72    0.26
   0   4   9    7.82    0.27
  -1  -4  -9    0.93    0.14
  -1  -4  -9    0.75    0.11
  -1  -4  -9    0.63    0.11
   1   4   9    0.65    0.09
   1   4   9    0.78    0.14
   1   4   9    1.20    0.18
  -2  -4  -9    7.27    0.27
  -2  -4  -9    7.54    0.28
   2   4   9    7.30    0.33
   2   4   9    7.47    0.29
   2   4   9    7.52    0.28
  -3  -4  -9    2.02    0.34
  -3  -4  -9    2.24    0.17
  -3  -4  -9    2.84    0.20
   3   4   9    2.32    0.22
   3   4   9    3.06    0.32
   3   4   9    2.35    0.19
   3  -5  -9    1.26    0.18
   3  -5  -9    1.28    0.19
   3  -5  -9    1.36    0.39
   3  -5  -9    1.39    0.15
   2  -5  -9    2.61    0.44
   2  -5  -9    2.14    0.13
   2  -5  -9    1.91    0.21
   1  -5  -9    0.39    0.23
   1  -5  -9    0.57    0.11
  -1   5   9    0.92    0.12
  -1   5   9    0.71    0.09
   0  -5  -9    2.76    0.24
   0  -5  -9    2.40    0.14
   0  -5  -9    2.77    0.13
   0   5   9    2.37    0.15
   0   5   9    2.51    0.19
  -1  -5  -9    8.50    0.32
  -1  -5  -9    9.33    0.30
   1   5   9    9.54    0.31
   1   5   9    8.84    0.34
   1   5   9    8.67    0.29
   2   8 -10    2.71    0.25
   2   8 -10    2.87    0.38
  -2  -8  10    2.68    0.25
  -2  -8  10    2.58    0.22
   1   8 -10    0.47    0.12
   1   8 -10    0.15    0.41
   1   8 -10    0.58    0.19
  -1  -8  10    0.52    0.12
  -1  -8  10    0.45    0.13
   0   8 -10    5.53    0.37
   0   8 -10    6.16    0.30
   0  -8  10    6.02    0.30
   0  -8  10    5.45    0.29
  -1   8 -10    1.12    0.15
  -1   8 -10    1.70    0.31
  -1   8 -10    0.20    0.44
   1  -8  10    0.90    0.14
   1  -8  10    1.40    0.20
  -2   8 -10   -0.01    0.10
  -2   8 -10   -0.08    0.39
   2  -8  10    0.05    0.10
   2  -8  10    0.15    0.12
  -3   8 -10    1.55    0.21
  -3   8 -10    0.61    0.45
   3  -8  10    1.86    0.23
   3  -8  10    1.70    0.22
   3   7 -10   -0.08    0.11
   3   7 -10   -0.34    0.41
   3   7 -10   -0.08    0.18
  -3  -7  10   -0.01    0.09
  -3  -7  10    0.04    0.13
   2   7 -10    1.06    0.19
   2   7 -10    0.84    0.18
   2   7 -10    0.03    0.44
  -2  -7  10    1.00    0.20
  -2  -7  10    0.93    0.16
   1   7 -10    2.02    0.20
   1   7 -10    1.83    0.29
  -1  -7  10    2.09    0.18
  -1  -7  10    1.88    0.20
   0   7 -10    5.69    0.33
   0   7 -10    5.72    0.28
   0  -7  10    5.72    0.28
   0  -7  10    5.93    0.27
  -1   7 -10    0.04    0.35
  -1   7 -10    0.48    0.15
  -1   7 -10    0.52    0.10
   1  -7  10    0.48    0.11
   1  -7  10    0.70    0.11
  -2   7 -10   14.40    0.47
  -2   7 -10   12.10    0.97
  -2   7 -10   13.39    0.51
   2  -7  10   13.97    0.46
   2  -7  10   14.38    0.47
  -3   7 -10   -0.17    0.28
  -3   7 -10   -0.17    0.16
  -3   7 -10    0.09    0.10
   3  -7  10    0.05    0.10
   3  -7  10    0.08    0.12
  -4   7 -10    2.74    0.23
  -4   7 -10    3.10    0.55
   4  -7  10    2.85    0.25
   4  -7  10    2.36    0.23
   4  -7  10    3.06    0.38
   4   6 -10    0.12    0.36
   4   6 -10    0.00    0.18
   4   6 -10   -0.04    0.11
  -4  -6  10   -0.15    0.12
  -4  -6  10   -0.20    0.19
   3   6 -10    1.74    0.19
   3   6 -10    1.69    0.27
   3   6 -10    0.99    0.45
  -3  -6  10    1.71    0.20
  -3  -6  10    1.56    0.28
  -3  -6  10    1.85    0.17
   2   6 -10    8.08    0.32
   2   6 -10    8.34    0.37
  -2  -6  10    8.49    0.31
  -2  -6  10    7.74    0.32
  -2  -6  10    8.10    0.37
   1   6 -10    0.07    0.37
   1   6 -10    0.59    0.14
   1   6 -10    1.13    0.17
  -1  -6  10    0.62    0.10
  -1  -6  10    1.08    0.17
  -1  -6  10    1.00    0.16
   0   6 -10    7.24    0.72
   0   6 -10    9.08    0.36
   0   6 -10    8.46    0.32
   0  -6  10    8.35    0.32
   0  -6  10    8.32    0.32
   0  -6  10    8.11    0.34
  -1   6 -10    4.10    0.23
  -1   6 -10    4.56    0.28
  -1   6 -10    3.78    0.59
  -1   6 -10    4.44    0.27
   1  -6  10    4.25    0.23
   1  -6  10    3.84    0.22
   1  -6  10    4.08    0.27
  -2   6 -10    0.96    0.15
  -2   6 -10    0.79    0.28
  -2   6 -10    0.96    0.16
   2  -6  10    0.84    0.12
   2  -6  10    0.92    0.17
   2  -6  10    0.85    0.16
  -3   6 -10    6.93    0.62
  -3   6 -10    6.31    0.30
  -3   6 -10    6.21    0.35
   3  -6  10    6.75    0.31
   3  -6  10    6.82    0.29
   3  -6  10    6.25    0.35
  -4   6 -10   11.43    0.41
  -4   6 -10   10.50    0.47
  -4   6 -10   11.39    0.78
   4  -6  10   11.25    0.42
   4  -6  10   10.30    0.47
   4  -6  10   11.66    0.41
   4   5 -10    4.61    0.69
   4   5 -10    6.28    0.35
   4   5 -10    5.68    0.28
  -4  -5  10    4.90    0.34
  -4  -5  10    5.44    0.25
  -4  -5  10    5.86    0.32
  -4  -5  10    5.22    0.36
   3   5 -10    4.54    0.29
   3   5 -10    4.65    0.24
  -3  -5  10    3.88    0.29
  -3  -5  10    4.60    0.22
  -3  -5  10    4.62    0.29
   2   5 -10    6.02    0.30
  -2  -5  10    5.02    0.29
  -2  -5  10    6.09    0.25
  -2  -5  10    5.77    0.26
  -2  -5  10    6.12    0.30
   1   5 -10   11.67    0.38
   1   5 -10    9.71    0.82
   1   5 -10   10.45    0.40
   1   5 -10   11.98    0.41
  -1  -5  10   11.60    0.40
  -1  -5  10   11.27    0.38
  -1  -5  10   11.55    0.37
   0   5 -10    6.40    0.26
   0   5 -10    5.47    0.61
   0   5 -10    6.33    0.29
   0   5 -10    6.14    0.29
   0  -5  10    6.53    0.27
   0  -5  10    6.71    0.26
   0  -5  10    5.86    0.29
  -1   5 -10    0.99    0.19
  -1   5 -10    0.91    0.15
  -1   5 -10    0.93    0.18
  -1   5 -10    0.84    0.28
   1  -5  10    0.78    0.15
   1  -5  10    1.05    0.14
   1  -5  10    0.70    0.14
  -2   5 -10   19.17    1.09
  -2   5 -10   18.33    0.56
  -2   5 -10   18.97    0.58
  -2   5 -10   18.12    0.57
   2  -5  10   17.84    0.56
   2  -5  10   17.63    0.55
   2  -5  10   17.28    0.57
   2  -5  10   18.63    0.55
  -3   5 -10    2.11    0.22
  -3   5 -10    2.09    0.39
  -3   5 -10    2.00    0.19
  -3   5 -10    2.13    0.26
   3  -5  10    2.13    0.24
   3  -5  10    1.85    0.18
   3  -5  10    2.41    0.20
   3  -5  10    2.29    0.26
  -4   5 -10    0.02    0.15
  -4   5 -10   -0.04    0.14
  -4   5 -10    0.15    0.20
  -4   5 -10    0.20    0.10
   4  -5  10    0.09    0.10
   4  -5  10    0.18    0.09
   4  -5  10   -0.17    0.15
  -5   5 -10    2.84    0.41
  -5   5 -10    1.98    0.36
  -5   5 -10    2.36    0.23
   5  -5  10    2.60    0.25
   5  -5  10    2.79    0.25
   5   4 -10   10.41    0.43
   5   4 -10   10.63    0.39
  -5  -4  10    9.68    0.45
  -5  -4  10   10.98    0.46
  -5  -4  10   10.94    0.38
   4   4 -10    0.13    0.10
   4   4 -10    0.00    0.13
   4   4 -10    0.28    0.41
  -4  -4  10    0.26    0.14
  -4  -4  10   -0.09    0.12
  -4  -4  10   -0.03    0.12
  -4  -4  10    0.11    0.07
   3   4 -10    0.19    0.11
   3   4 -10    0.09    0.37
   3   4 -10    0.37    0.09
  -3  -4  10    0.34    0.08
  -3  -4  10    0.12    0.11
  -3  -4  10    0.31    0.11
  -3  -4  10    0.27    0.11
   2   4 -10    9.35    0.81
   2   4 -10   10.46    0.37
   2   4 -10   10.35    0.34
  -2  -4  10   10.45    0.37
  -2  -4  10   10.17    0.35
  -2  -4  10    8.71    0.38
  -2  -4  10   10.16    0.34
   1   4 -10    5.29    0.26
   1   4 -10    5.75    0.24
   1   4 -10    5.76    0.60
   1   4 -10    6.04    0.27
  -1  -4  10    5.75    0.24
  -1  -4  10    4.99    0.26
  -1  -4  10    5.96    0.25
  -1  -4  10    6.32    0.27
   0   4 -10    5.26    0.26
   0   4 -10    5.26    0.23
   0   4 -10    5.30    0.52
   0   4 -10    5.24    0.25
   0  -4  10    5.35    0.22
   0  -4  10    5.28    0.26
   0  -4  10    5.10    0.23
  -1   4 -10   15.09    0.48
  -1   4 -10   15.32    0.46
  -1   4 -10   14.55    0.93
  -1   4 -10   14.73    0.47
   1  -4  10   15.10    0.48
   1  -4  10   15.14    0.46
   1  -4  10   14.80    0.46
  -2   4 -10    2.11    0.17
  -2   4 -10    2.26    0.37
  -2   4 -10    2.35    0.21
  -2   4 -10    2.26    0.20
   2  -4  10    2.05    0.16
   2  -4  10    2.19    0.20
   2  -4  10    2.07    0.19
   2  -4  10    2.21    0.22
  -3   4 -10    3.20    0.22
  -3   4 -10    3.36    0.21
  -3   4 -10    3.26    0.26
  -3   4 -10    3.59    0.41
   3  -4  10    3.22    0.26
   3  -4  10    3.40    0.25
   3  -4  10    3.36    0.22
   3  -4  10    3.51    0.20
  -4   4 -10   11.30    0.40
  -4   4 -10   10.13    0.40
  -4   4 -10   11.12    0.74
  -4   4 -10   10.67    0.44
   4  -4  10   11.18    0.40
   4  -4  10   10.44    0.39
  -5   4 -10    1.73    0.40
  -5   4 -10    1.39    0.20
  -5   4 -10    1.55    0.22
  -5   4 -10    1.91    0.21
   5  -4  10    1.21    0.22
   5  -4  10    1.53    0.20
   5   3 -10    2.18    0.19
   5   3 -10    2.20    0.25
  -5  -3  10    2.21    0.29
  -5  -3  10    1.84    0.16
  -5  -3  10    2.06    0.22
  -5  -3  10    1.54    0.28
   4   3 -10    3.08    0.18
   4   3 -10    3.01    0.23
  -4  -3  10    3.19    0.23
  -4  -3  10    2.86    0.22
  -4  -3  10    3.00    0.18
  -4  -3  10    3.02    0.27
   3   3 -10   17.16    0.52
   3   3 -10   17.06    0.50
  -3  -3  10   17.91    0.50
  -3  -3  10   16.63    0.52
  -3  -3  10   16.27    0.56
   2   3 -10    1.47    0.17
   2   3 -10    1.52    0.45
   2   3 -10    1.54    0.14
   2   3 -10    0.85    0.15
  -2  -3  10    1.20    0.13
  -2  -3  10    1.42    0.17
  -2  -3  10    1.25    0.19
   1   3 -10    1.86    0.17
   1   3 -10    1.89    0.17
   1   3 -10    1.66    0.38
   1   3 -10    1.75    0.15
  -1  -3  10    1.71    0.17
  -1  -3  10    1.85    0.15
  -1  -3  10    1.34    0.19
  -1  -3  10    1.75    0.13
   0   3 -10    7.76    0.32
   0   3 -10    8.20    0.30
   0   3 -10    7.67    0.28
   0   3 -10    7.35    0.61
   0   3 -10    7.72    0.30
   0  -3  10    8.36    0.29
   0  -3  10    8.18    0.31
   0  -3  10    8.04    0.28
  -1   3 -10    6.82    0.27
  -1   3 -10    6.40    0.26
  -1   3 -10    6.43    0.28
  -1   3 -10    6.39    0.28
  -1   3 -10    6.10    0.53
   1  -3  10    6.58    0.25
   1  -3  10    6.52    0.28
  -2   3 -10   13.63    0.44
  -2   3 -10   14.43    0.47
  -2   3 -10   14.20    0.49
  -2   3 -10   14.61    0.45
  -2   3 -10   14.31    0.88
   2  -3  10   14.54    0.47
   2  -3  10   14.92    0.45
   2  -3  10   13.99    0.45
   2  -3  10   13.74    0.44
  -3   3 -10   24.03    0.68
  -3   3 -10   24.44    0.75
  -3   3 -10   24.07    0.70
  -3   3 -10   24.37    1.33
  -3   3 -10   24.13    0.68
   3  -3  10   22.91    0.69
   3  -3  10   23.49    0.69
   3  -3  10   23.22    0.70
   3  -3  10   24.33    0.69
  -4   3 -10    2.41    0.22
  -4   3 -10    1.91    0.41
  -4   3 -10    1.84    0.25
  -4   3 -10    2.03    0.19
  -4   3 -10    2.31    0.20
   4  -3  10    1.69    0.20
   4  -3  10    2.12    0.18
   4  -3  10    2.17    0.29
  -5   3 -10    5.71    0.38
  -5   3 -10    5.61    0.30
  -5   3 -10    6.06    0.29
   5  -3  10    6.62    0.30
   5  -3  10    5.09    0.30
   5   2 -10    6.28    0.30
   5   2 -10    6.40    0.26
  -5  -2  10    6.66    0.34
  -5  -2  10    6.29    0.31
  -5  -2  10    6.37    0.29
  -5  -2  10    6.35    0.26
   4   2 -10    6.51    0.25
   4   2 -10    6.71    0.28
  -4  -2  10    6.82    0.26
  -4  -2  10    6.68    0.29
  -4  -2  10    7.02    0.33
  -4  -2  10    6.72    0.27
   3   2 -10    0.15    0.07
   3   2 -10   -0.12    0.27
   3   2 -10    0.01    0.09
   3   2 -10   -0.03    0.08
  -3  -2  10   -0.04    0.09
  -3  -2  10    0.02    0.10
  -3  -2  10    0.06    0.09
  -3  -2  10    0.07    0.06
   2   2 -10   12.95    0.90
   2   2 -10   14.31    0.43
   2   2 -10   13.23    0.41
   2   2 -10   13.72    0.41
  -2  -2  10   13.97    0.42
  -2  -2  10   13.89    0.41
  -2  -2  10   14.12    0.41
  -2  -2  10   13.56    0.48
   1   2 -10   22.50    0.69
   1   2 -10   23.11    0.64
   1   2 -10   23.09    0.63
   1   2 -10   22.04    0.61
   1   2 -10   22.79    1.29
   1   2 -10   21.37    0.62
  -1  -2  10   23.05    0.63
  -1  -2  10   21.69    0.69
  -1  -2  10   22.73    0.62
   0   2 -10    1.29    0.15
   0   2 -10    1.13    0.13
   0   2 -10    1.15    0.16
   0   2 -10    1.30    0.15
   0   2 -10    0.79    0.30
   0  -2  10    1.18    0.13
   0  -2  10    1.44    0.12
   0  -2  10    1.19    0.16
  -1   2 -10    9.69    0.67
  -1   2 -10    9.58    0.34
  -1   2 -10    9.50    0.37
  -1   2 -10    9.68    0.32
  -1   2 -10    9.66    0.33
   1  -2  10    9.45    0.32
   1  -2  10    9.68    0.34
   1  -2  10    9.81    0.33
  -2   2 -10    7.86    0.61
  -2   2 -10    8.34    0.34
  -2   2 -10    8.35    0.29
  -2   2 -10    8.26    0.30
  -2   2 -10    8.56    0.33
   2  -2  10    8.06    0.29
   2  -2  10    8.18    0.33
  -3   2 -10    0.21    0.10
  -3   2 -10    0.16    0.09
  -3   2 -10    0.06    0.07
  -3   2 -10    0.05    0.11
  -3   2 -10    0.27    0.19
   3  -2  10    0.05    0.12
   3  -2  10    0.06    0.09
   3  -2  10    0.19    0.08
  -4   2 -10    6.69    0.34
  -4   2 -10    6.50    0.28
  -4   2 -10    6.55    0.31
  -4   2 -10    7.01    0.29
   4  -2  10    6.49    0.30
   4  -2  10    6.56    0.28
   4  -2  10    6.36    0.36
  -5   2 -10    8.73    0.36
  -5   2 -10    8.09    0.37
   5  -2  10    8.81    0.35
   5  -2  10    8.43    0.36
   5   1 -10    5.31    0.26
   5   1 -10    5.76    0.24
  -5  -1  10    5.47    0.31
  -5  -1  10    5.57    0.22
  -5  -1  10    5.29    0.26
  -5  -1  10    5.27    0.26
   4   1 -10    0.43    0.10
   4   1 -10    0.53    0.10
   4   1 -10    0.40    0.08
   4   1 -10    0.21    0.34
  -4  -1  10    0.47    0.11
  -4  -1  10    0.39    0.12
  -4  -1  10    0.44    0.10
  -4  -1  10    0.46    0.08
   3   1 -10   19.58    1.23
   3   1 -10   20.75    0.57
   3   1 -10   20.49    0.55
   3   1 -10   20.34    0.56
   3   1 -10   20.75    0.62
  -3  -1  10   19.48    0.63
  -3  -1  10   19.55    0.56
  -3  -1  10   20.37    0.56
  -3  -1  10   20.55    0.56
   2   1 -10    7.73    0.63
   2   1 -10    7.78    0.27
   2   1 -10    7.35    0.27
   2   1 -10    7.92    0.31
  -2  -1  10    7.55    0.26
  -2  -1  10    7.72    0.26
  -2  -1  10    7.53    0.33
  -2  -1  10    7.88    0.28
   1   1 -10    2.85    0.17
   1   1 -10    2.88    0.17
   1   1 -10    2.78    0.38
   1   1 -10    2.56    0.15
   1   1 -10    2.68    0.18
  -1  -1  10    2.70    0.18
  -1  -1  10    2.79    0.22
  -1  -1  10    2.54    0.16
  -1  -1  10    2.71    0.15
   0   1 -10    5.13    0.46
   0   1 -10    5.15    0.21
   0   1 -10    4.96    0.21
   0   1 -10    5.25    0.23
   0   1 -10    5.10    0.25
   0   1 -10    4.88    0.22
   0  -1  10    5.20    0.21
   0  -1  10    5.43    0.24
   0  -1  10    5.09    0.21
  -1   1 -10    5.79    0.49
  -1   1 -10    5.68    0.25
  -1   1 -10    5.45    0.22
  -1   1 -10    5.69    0.23
  -1   1 -10    5.54    0.26
   1  -1  10    5.61    0.25
   1  -1  10    5.60    0.22
   1  -1  10    4.95    0.23
  -2   1 -10    5.46    0.28
  -2   1 -10    5.96    0.25
  -2   1 -10    5.62    0.22
  -2   1 -10    6.14    0.27
  -2   1 -10    6.46    0.55
   2  -1  10    6.07    0.28
   2  -1  10    6.20    0.26
   2  -1  10    6.20    0.24
  -3   1 -10    3.33    0.18
  -3   1 -10    3.26    0.22
  -3   1 -10    3.45    0.21
  -3   1 -10    3.33    0.24
   3  -1  10    3.78    0.27
   3  -1  10    3.36    0.19
  -4   1 -10    1.84    0.19
  -4   1 -10    1.80    0.26
  -4   1 -10    1.61    0.20
   4  -1  10    2.02    0.19
   4  -1  10    1.65    0.17
   4  -1  10    1.86    0.29
  -5   1 -10    0.97    0.21
  -5   1 -10    1.27    0.20
   5  -1  10    0.89    0.15
   5  -1  10    1.25    0.18
   5   0 -10    2.07    0.18
   5   0 -10    2.69    0.16
   5   0 -10    2.16    0.17
  -5   0  10    2.19    0.15
  -5   0  10    2.27    0.19
   4   0 -10    2.87    0.17
   4   0 -10    2.93    0.19
   4   0 -10    2.14    0.55
   4   0 -10    2.88    0.15
  -4   0  10    2.66    0.15
  -4   0  10    2.73    0.18
  -4   0  10    2.74    0.15
  -4   0  10    2.48    0.24
   3   0 -10    1.23    0.14
   3   0 -10    1.34    0.13
   3   0 -10    1.28    0.16
   3   0 -10    0.92    0.28
   3   0 -10    1.45    0.12
  -3   0  10    1.23    0.21
  -3   0  10    1.35    0.12
  -3   0  10    1.36    0.15
  -3   0  10    1.45    0.11
  -3   0  10    1.13    0.13
   2   0 -10    5.29    0.21
   2   0 -10    4.84    0.24
   2   0 -10    4.92    0.20
   2   0 -10    4.26    0.49
  -2   0  10    4.85    0.28
  -2   0  10    4.93    0.19
  -2   0  10    4.79    0.19
  -2   0  10    4.91    0.21
  -2   0  10    5.03    0.19
   1   0 -10    5.58    0.22
   1   0 -10    5.09    0.22
   1   0 -10    5.26    0.20
   1   0 -10    4.88    0.25
   1   0 -10    5.04    0.47
  -1   0  10    5.11    0.20
  -1   0  10    5.27    0.22
  -1   0  10    5.09    0.28
  -1   0  10    5.29    0.20
   0   0 -10    3.12    0.16
   0   0 -10    2.86    0.38
   0   0 -10    3.05    0.16
   0   0 -10    2.88    0.18
   0   0 -10    2.80    0.18
   0   0 -10    2.90    0.20
   0   0  10    3.09    0.16
   0   0  10    2.87    0.16
   0   0  10    2.98    0.19
  -1   0 -10    5.33    0.24
  -1   0 -10    5.75    0.25
  -1   0 -10    5.46    0.22
  -1   0 -10    5.40    0.20
  -1   0 -10    5.66    0.53
  -1   0 -10    5.95    0.28
   1   0  10    5.63    0.23
   1   0  10    5.27    0.26
   1   0  10    5.59    0.22
  -2   0 -10    4.69    0.18
  -2   0 -10    4.83    0.24
  -2   0 -10    4.64    0.22
  -2   0 -10    4.50    0.25
   2   0  10    4.72    0.23
   2   0  10    4.82    0.22
   2   0  10    4.69    0.26
  -3   0 -10    1.42    0.21
  -3   0 -10    1.31    0.17
  -3   0 -10    1.15    0.16
   3   0  10    1.16    0.19
   3   0  10    1.23    0.14
   3   0  10    1.36    0.24
  -4   0 -10    1.92    0.19
  -4   0 -10    1.59    0.20
   4   0  10    1.89    0.29
   4   0  10    1.98    0.17
   4   0  10    1.43    0.19
  -5   0 -10    2.84    0.25
  -5   0 -10    3.29    0.25
   5   0  10    3.34    0.25
   5  -1 -10    0.47    0.12
   5  -1 -10   -0.24    0.43
   5  -1 -10    0.44    0.09
  -5   1  10    0.42    0.07
   4  -1 -10    0.03    0.07
   4  -1 -10    0.02    0.08
   4  -1 -10   -0.10    0.28
  -4   1  10    0.17    0.06
   3  -1 -10    8.93    0.34
   3  -1 -10    9.12    0.26
   3  -1 -10    9.08    0.26
   3  -1 -10    8.91    0.28
   3  -1 -10    8.13    0.69
  -3   1  10    9.04    0.27
  -3   1  10    8.98    0.29
   2  -1 -10    5.42    0.52
   2  -1 -10    5.32    0.26
   2  -1 -10    5.51    0.20
   2  -1 -10    5.20    0.19
  -2   1  10    5.19    0.20
  -2   1  10    5.44    0.21
   1  -1 -10    0.50    0.08
   1  -1 -10    0.75    0.11
   1  -1 -10    0.44    0.09
   1  -1 -10    0.32    0.16
   1  -1 -10    0.42    0.08
  -1   1  10    0.86    0.14
  -1   1  10    0.54    0.09
  -1   1  10    0.55    0.10
  -1   1  10    0.50    0.08
   0  -1 -10    6.87    0.55
   0  -1 -10    6.66    0.24
   0  -1 -10    6.32    0.25
   0  -1 -10    6.31    0.30
   0  -1 -10    6.79    0.22
   0  -1 -10    6.46    0.25
   0   1  10    6.42    0.23
   0   1  10    6.51    0.26
   0   1  10    6.78    0.24
  -1  -1 -10    4.47    0.24
  -1  -1 -10    4.37    0.22
  -1  -1 -10    4.45    0.19
  -1  -1 -10    3.99    0.22
   1   1  10    4.33    0.24
   1   1  10    4.24    0.20
   1   1  10    4.60    0.20
  -2  -1 -10    0.33    0.09
  -2  -1 -10    0.39    0.11
  -2  -1 -10    0.34    0.08
   2   1  10    0.45    0.10
   2   1  10    0.30    0.08
   2   1  10    0.28    0.12
  -3  -1 -10    0.50    0.10
   3   1  10    0.49    0.10
   3   1  10    0.61    0.15
   3   1  10    0.48    0.12
  -4  -1 -10    2.43    0.21
   4   1  10    1.68    0.32
   4   1  10    2.25    0.24
   4   1  10    2.02    0.19
   4  -2 -10    5.48    0.64
   4  -2 -10    6.21    0.21
   4  -2 -10    6.53    0.29
  -4   2  10    6.38    0.20
  -4   2  10    6.63    0.21
   3  -2 -10    2.40    0.20
   3  -2 -10    2.61    0.13
   3  -2 -10    2.28    0.43
  -3   2  10    2.60    0.12
  -3   2  10    2.61    0.14
   2  -2 -10    1.27    0.11
   2  -2 -10    0.90    0.12
   2  -2 -10    1.04    0.33
  -2   2  10    0.95    0.10
   1  -2 -10    7.54    0.32
   1  -2 -10    7.66    0.25
   1  -2 -10    7.48    0.60
   1  -2 -10    7.68    0.24
  -1   2  10    7.56    0.27
  -1   2  10    7.56    0.25
   0  -2 -10    2.21    0.16
   0  -2 -10    2.30    0.39
   0  -2 -10    2.10    0.20
   0  -2 -10    2.14    0.15
   0  -2 -10    2.26    0.16
   0   2  10    2.31    0.14
   0   2  10    2.41    0.18
   0   2  10    1.99    0.14
  -1  -2 -10    0.68    0.11
  -1  -2 -10    0.76    0.11
   1   2  10    0.67    0.12
   1   2  10    0.75    0.12
   1   2  10    0.84    0.14
  -2  -2 -10    9.55    0.32
   2   2  10    9.16    0.33
   2   2  10    8.88    0.36
   2   2  10    8.85    0.32
  -3  -2 -10    0.15    0.09
   3   2  10    0.11    0.09
   3   2  10   -0.01    0.15
   4  -3 -10    0.23    0.26
   4  -3 -10    0.03    0.10
   4  -3 -10    0.01    0.10
   3  -3 -10    3.21    0.23
   3  -3 -10    3.28    0.14
   3  -3 -10    3.04    0.48
   2  -3 -10    8.02    0.65
   2  -3 -10    7.94    0.35
   2  -3 -10    7.98    0.25
  -2   3  10    8.10    0.24
  -2   3  10    8.00    0.25
   1  -3 -10   -0.01    0.09
   1  -3 -10    0.04    0.06
   1  -3 -10    0.04    0.17
  -1   3  10    0.09    0.05
  -1   3  10   -0.03    0.08
   0  -3 -10   10.34    0.31
   0  -3 -10   10.42    0.41
   0  -3 -10    9.27    0.74
   0  -3 -10    9.97    0.32
   0   3  10   10.04    0.29
   0   3  10   10.73    0.32
   0   3  10   10.54    0.34
  -1  -3 -10   11.95    0.40
  -1  -3 -10   13.07    0.39
  -1  -3 -10   12.32    0.47
   1   3  10   13.09    0.39
   1   3  10   12.30    0.38
   1   3  10   12.64    0.42
  -2  -3 -10    0.64    0.10
   2   3  10    0.58    0.15
   2   3  10    0.87    0.14
   2   3  10    1.01    0.19
   3   3  10    0.84    0.16
   3   3  10    0.74    0.15
   2  -4 -10    1.92    0.43
   2  -4 -10    2.04    0.13
   2  -4 -10    1.90    0.22
   1  -4 -10    4.52    0.54
   1  -4 -10    3.45    0.27
  -1   4  10    4.31    0.17
  -1   4  10    4.17    0.19
   0  -4 -10    4.07    0.27
   0  -4 -10    4.07    0.17
   0  -4 -10    3.86    0.19
   0   4  10    4.07    0.22
   0   4  10    4.22    0.19
  -1  -4 -10    0.11    0.09
   1   4  10    0.32    0.13
   1   4  10    0.22    0.10
   1   4  10    0.10    0.08
   2   7 -11    0.59    0.48
   1   7 -11    3.42    0.25
   1   7 -11    3.31    0.36
  -1  -7  11    3.49    0.22
  -1  -7  11    3.54    0.25
   0   7 -11    3.51    0.34
   0   7 -11    3.53    0.25
   0  -7  11    4.19    0.26
   0  -7  11    3.73    0.23
  -1   7 -11   -0.78    0.42
  -1   7 -11   -0.07    0.11
  -1   7 -11    0.40    0.18
   1  -7  11    0.12    0.10
   1  -7  11    0.14    0.11
  -2   7 -11    4.75    0.39
  -2   7 -11    4.58    0.26
  -2   7 -11    3.71    0.64
   2  -7  11    4.38    0.28
   2  -7  11    4.30    0.26
   3   6 -11    0.17    0.42
  -3  -6  11    0.53    0.20
   2   6 -11    1.21    0.20
   2   6 -11    1.19    0.19
   2   6 -11    0.39    0.46
  -2  -6  11    1.17    0.21
  -2  -6  11    0.84    0.19
  -2  -6  11    1.11    0.15
   1   6 -11    0.37    0.10
   1   6 -11   -0.08    0.16
   1   6 -11   -0.25    0.43
  -1  -6  11    0.02    0.08
  -1  -6  11    0.06    0.11
  -1  -6  11    0.10    0.16
   0   6 -11    0.36    0.16
   0   6 -11    0.13    0.40
   0   6 -11    0.25    0.10
   0  -6  11    0.14    0.16
   0  -6  11    0.26    0.11
   0  -6  11    0.35    0.10
  -1   6 -11    2.95    0.60
  -1   6 -11    3.46    0.23
  -1   6 -11    3.72    0.31
   1  -6  11    2.88    0.21
   1  -6  11    3.55    0.23
  -2   6 -11    0.64    0.13
  -2   6 -11    0.54    0.31
  -2   6 -11    0.84    0.19
   2  -6  11    0.62    0.13
   2  -6  11    0.78    0.12
  -3   6 -11    3.78    0.26
  -3   6 -11    4.33    0.55
  -3   6 -11    4.19    0.37
   3  -6  11    4.36    0.26
   3  -6  11    4.44    0.28
   3   5 -11    1.09    0.48
   3   5 -11    2.23    0.21
   3   5 -11    1.67    0.28
  -3  -5  11    1.49    0.17
  -3  -5  11    1.52    0.24
  -3  -5  11    1.30    0.19
   2   5 -11   -0.06    0.14
   2   5 -11   -0.52    0.36
  -2  -5  11    0.04    0.07
  -2  -5  11    0.00    0.14
   1   5 -11    3.27    0.61
   1   5 -11    4.03    0.28
   1   5 -11    4.29    0.24
  -1  -5  11    4.16    0.24
  -1  -5  11    4.42    0.22
  -1  -5  11    4.01    0.28
   0   5 -11    0.51    0.11
   0   5 -11    0.64    0.15
   0   5 -11    0.69    0.30
   0   5 -11    0.54    0.14
   0  -5  11    0.75    0.15
   0  -5  11    0.54    0.09
   0  -5  11    0.35    0.09
  -1   5 -11    0.05    0.13
  -1   5 -11    0.25    0.25
  -1   5 -11    0.56    0.14
  -1   5 -11    0.20    0.09
   1  -5  11    0.24    0.15
   1  -5  11    0.21    0.08
   1  -5  11    0.04    0.09
  -2   5 -11    5.56    0.27
  -2   5 -11    5.23    0.32
  -2   5 -11    4.84    0.32
  -2   5 -11    5.46    0.59
   2  -5  11    5.12    0.33
   2  -5  11    4.90    0.27
   2  -5  11    5.51    0.26
  -3   5 -11    1.29    0.26
  -3   5 -11    1.31    0.19
  -3   5 -11    1.12    0.43
  -3   5 -11    1.41    0.20
   3  -5  11    1.06    0.21
   3  -5  11    2.03    0.18
  -4   5 -11    0.02    0.19
  -4   5 -11   -0.23    0.10
  -4   5 -11    0.07    0.21
   4  -5  11   -0.01    0.11
   4  -5  11    0.14    0.10
   4   4 -11    0.60    0.16
   4   4 -11    0.69    0.12
  -4  -4  11    0.57    0.10
  -4  -4  11    0.72    0.18
   3   4 -11    0.02    0.13
   3   4 -11    0.05    0.10
   3   4 -11   -0.54    0.38
  -3  -4  11   -0.17    0.14
  -3  -4  11   -0.09    0.12
  -3  -4  11    0.13    0.07
   2   4 -11    4.63    0.28
   2   4 -11    4.27    0.22
  -2  -4  11    4.37    0.21
  -2  -4  11    4.05    0.24
  -2  -4  11    4.35    0.28
   1   4 -11    1.07    0.16
   1   4 -11    1.00    0.14
   1   4 -11    0.91    0.32
   1   4 -11    0.77    0.14
  -1  -4  11    0.92    0.18
  -1  -4  11    1.06    0.21
  -1  -4  11    0.78    0.14
   0   4 -11    0.12    0.12
   0   4 -11    0.17    0.12
   0   4 -11    0.03    0.08
   0   4 -11    0.11    0.23
   0  -4  11    0.05    0.07
   0  -4  11   -0.08    0.11
  -1   4 -11    3.37    0.26
  -1   4 -11    3.70    0.48
  -1   4 -11    3.70    0.25
  -1   4 -11    3.64    0.22
   1  -4  11    3.53    0.20
   1  -4  11    4.00    0.22
   1  -4  11    3.17    0.27
  -2   4 -11    0.19    0.13
  -2   4 -11    0.10    0.10
  -2   4 -11   -0.08    0.17
  -2   4 -11   -0.24    0.12
   2  -4  11   -0.01    0.09
   2  -4  11    0.20    0.08
   2  -4  11   -0.04    0.14
  -3   4 -11    0.43    0.22
  -3   4 -11    0.57    0.15
  -3   4 -11    0.62    0.13
  -3   4 -11    1.05    0.18
   3  -4  11    0.70    0.12
   3  -4  11    0.63    0.12
   3  -4  11    0.70    0.18
  -4   4 -11    1.76    0.34
  -4   4 -11    2.53    0.23
  -4   4 -11    2.11    0.29
  -4   4 -11    2.18    0.43
   4  -4  11    2.41    0.21
   4  -4  11    2.26    0.25
   4   3 -11    1.96    0.24
   4   3 -11    2.02    0.18
  -4  -3  11    1.26    0.18
  -4  -3  11    1.71    0.16
  -4  -3  11    1.55    0.23
  -4  -3  11    1.69    0.27
   3   3 -11    3.34    0.20
   3   3 -11    3.48    0.25
   3   3 -11    2.98    0.59
  -3  -3  11    3.11    0.25
  -3  -3  11    3.19    0.23
  -3  -3  11    3.51    0.19
  -3  -3  11    2.79    0.30
   2   3 -11    0.20    0.08
   2   3 -11    0.05    0.11
   2   3 -11   -0.05    0.30
  -2  -3  11    0.17    0.11
  -2  -3  11    0.02    0.07
   1   3 -11    0.06    0.08
   1   3 -11   -0.01    0.09
   1   3 -11   -0.02    0.11
   1   3 -11    0.08    0.23
  -1  -3  11    0.05    0.07
  -1  -3  11    0.00    0.09
  -1  -3  11    0.16    0.11
   0   3 -11    0.99    0.19
   0   3 -11    1.20    0.15
   0   3 -11    1.29    0.20
   0   3 -11    1.14    0.16
   0  -3  11    1.18    0.20
   0  -3  11    1.08    0.14
   0  -3  11    1.00    0.16
  -1   3 -11    1.50    0.19
  -1   3 -11    1.59    0.17
  -1   3 -11    1.60    0.17
  -1   3 -11    1.22    0.36
  -1   3 -11    1.41    0.21
   1  -3  11    1.77    0.14
   1  -3  11    1.25    0.22
   1  -3  11    1.75    0.19
  -2   3 -11    2.86    0.20
  -2   3 -11    2.33    0.25
  -2   3 -11    2.57    0.39
  -2   3 -11    2.43    0.22
  -2   3 -11    2.74    0.20
   2  -3  11    2.26    0.18
   2  -3  11    2.24    0.26
   2  -3  11    2.37    0.20
  -3   3 -11    6.88    0.32
  -3   3 -11    7.10    0.31
  -3   3 -11    7.04    0.36
  -3   3 -11    7.28    0.61
   3  -3  11    7.30    0.30
   3  -3  11    7.19    0.39
   3  -3  11    7.52    0.32
  -4   3 -11    0.15    0.18
  -4   3 -11   -0.16    0.19
  -4   3 -11    0.08    0.10
  -4   3 -11    0.17    0.14
   4  -3  11   -0.08    0.10
   4  -3  11    0.05    0.11
   4   2 -11    6.58    0.26
   4   2 -11    6.47    0.30
  -4  -2  11    6.12    0.36
  -4  -2  11    5.61    0.25
  -4  -2  11    5.80    0.28
  -4  -2  11    6.38    0.31
   3   2 -11    0.68    0.12
   3   2 -11    0.82    0.14
   3   2 -11    0.42    0.34
  -3  -2  11    0.79    0.13
  -3  -2  11    0.91    0.13
  -3  -2  11    0.84    0.13
  -3  -2  11    0.64    0.15
   2   2 -11   14.04    0.41
   2   2 -11   13.63    0.44
   2   2 -11   13.77    0.93
  -2  -2  11   14.14    0.42
  -2  -2  11   13.47    0.51
  -2  -2  11   13.99    0.42
  -2  -2  11   12.28    0.44
   1   2 -11    7.02    0.31
   1   2 -11    6.68    0.61
   1   2 -11    7.14    0.29
   1   2 -11    6.70    0.29
   1   2 -11    6.89    0.26
  -1  -2  11    6.91    0.27
  -1  -2  11    7.08    0.26
  -1  -2  11    6.72    0.30
   0   2 -11    1.38    0.18
   0   2 -11    1.34    0.35
   0   2 -11    1.33    0.19
   0   2 -11    1.44    0.15
   0   2 -11    1.30    0.16
   0  -2  11    1.37    0.14
   0  -2  11    1.53    0.20
  -1   2 -11    4.47    0.46
  -1   2 -11    4.13    0.22
  -1   2 -11    4.00    0.24
  -1   2 -11    4.44    0.25
  -1   2 -11    4.21    0.22
   1  -2  11    4.39    0.21
   1  -2  11    4.34    0.27
   1  -2  11    4.22    0.23
  -2   2 -11    1.19    0.18
  -2   2 -11    0.86    0.16
  -2   2 -11    1.02    0.17
  -2   2 -11    1.10    0.34
  -2   2 -11    1.46    0.22
   2  -2  11    1.25    0.19
   2  -2  11    1.64    0.25
   2  -2  11    1.49    0.15
  -3   2 -11    0.56    0.16
  -3   2 -11    0.54    0.12
  -3   2 -11    0.38    0.11
  -3   2 -11    0.60    0.23
   3  -2  11    0.27    0.10
   3  -2  11    0.45    0.11
   3  -2  11    0.21    0.16
  -4   2 -11    1.44    0.21
  -4   2 -11    1.85    0.47
  -4   2 -11    0.88    0.19
  -4   2 -11    0.96    0.15
   4  -2  11    0.99    0.15
   4   1 -11    0.70    0.10
   4   1 -11    0.71    0.13
   4   1 -11   -0.20    0.35
  -4  -1  11    0.55    0.09
  -4  -1  11    0.64    0.13
  -4  -1  11    0.64    0.16
  -4  -1  11    0.81    0.12
   3   1 -11   18.44    1.25
   3   1 -11   20.95    0.59
   3   1 -11   21.09    0.64
   3   1 -11   19.11    0.57
   3   1 -11   21.01    0.56
  -3  -1  11   21.20    0.57
  -3  -1  11   20.33    0.58
  -3  -1  11   19.15    0.66
  -3  -1  11   20.52    0.56
   2   1 -11    8.35    0.31
   2   1 -11    8.76    0.69
   2   1 -11    7.98    0.31
   2   1 -11    8.36    0.34
  -2  -1  11    8.25    0.32
  -2  -1  11    7.67    0.38
  -2  -1  11    8.73    0.30
  -2  -1  11    8.56    0.29
   1   1 -11    6.01    0.26
   1   1 -11    6.27    0.56
   1   1 -11    6.61    0.27
   1   1 -11    6.28    0.29
   1   1 -11    6.55    0.27
   1   1 -11    6.47    0.24
  -1  -1  11    5.31    0.23
  -1  -1  11    6.16    0.25
  -1  -1  11    6.24    0.27
   0   1 -11   13.09    0.86
   0   1 -11   13.24    0.41
   0   1 -11   12.59    0.40
   0   1 -11   13.18    0.42
   0   1 -11   12.54    0.46
   0  -1  11   13.47    0.41
   0  -1  11   12.82    0.40
   0  -1  11   13.07    0.43
  -1   1 -11    2.21    0.18
  -1   1 -11    2.58    0.39
  -1   1 -11    2.34    0.20
  -1   1 -11    2.70    0.18
  -1   1 -11    2.88    0.22
   1  -1  11    2.74    0.17
   1  -1  11    3.02    0.24
  -2   1 -11    5.54    0.25
  -2   1 -11    5.65    0.24
  -2   1 -11    5.29    0.29
  -2   1 -11    5.65    0.54
   2  -1  11    5.04    0.27
   2  -1  11    5.30    0.24
   2  -1  11    5.52    0.32
  -3   1 -11    1.78    0.20
  -3   1 -11    2.54    0.45
  -3   1 -11    1.55    0.25
  -3   1 -11    1.79    0.18
   3  -1  11    1.73    0.30
   3  -1  11    2.12    0.17
  -4   1 -11    0.01    0.18
  -4   1 -11    0.08    0.11
   4  -1  11    0.13    0.20
   4  -1  11    0.06    0.12
   4   0 -11    3.50    0.23
   4   0 -11    3.20    0.19
   4   0 -11    2.61    0.61
   4   0 -11    3.50    0.18
   4   0 -11    2.91    0.20
  -4   0  11    3.35    0.18
  -4   0  11    3.50    0.22
   3   0 -11    0.14    0.10
   3   0 -11    0.11    0.09
   3   0 -11    0.18    0.08
   3   0 -11    0.08    0.25
   3   0 -11    0.03    0.08
  -3   0  11    0.07    0.10
  -3   0  11    0.06    0.08
  -3   0  11    0.27    0.07
  -3   0  11    0.12    0.15
   2   0 -11    4.76    0.26
   2   0 -11    4.82    0.23
   2   0 -11    4.53    0.51
   2   0 -11    4.53    0.23
  -2   0  11    4.49    0.20
  -2   0  11    4.77    0.20
  -2   0  11    4.84    0.23
   1   0 -11   12.64    0.41
   1   0 -11   13.45    0.42
   1   0 -11   13.44    0.40
   1   0 -11   13.66    0.42
   1   0 -11   13.42    0.48
   1   0 -11   13.11    0.88
  -1   0  11   13.17    0.39
  -1   0  11   13.43    0.40
  -1   0  11   13.47    0.42
   0   0 -11    2.88    0.20
   0   0 -11    2.93    0.21
   0   0 -11    2.62    0.21
   0   0 -11    3.00    0.18
   0   0 -11    2.29    0.38
   0   0 -11    2.75    0.17
   0   0  11    2.71    0.22
   0   0  11    2.80    0.18
   0   0  11    3.05    0.17
  -1   0 -11   17.83    0.52
  -1   0 -11   18.20    1.09
  -1   0 -11   17.46    0.60
  -1   0 -11   17.38    0.50
  -1   0 -11   17.38    0.54
   1   0  11   18.14    0.55
   1   0  11   17.46    0.52
   1   0  11   17.61    0.52
  -2   0 -11    8.73    0.28
  -2   0 -11    8.40    0.35
  -2   0 -11    9.18    0.72
  -2   0 -11    8.47    0.32
   2   0  11    8.89    0.32
   2   0  11    9.15    0.39
  -3   0 -11    0.15    0.14
  -3   0 -11   -0.12    0.10
   3   0  11    0.02    0.08
   3   0  11   -0.05    0.16
   3   0  11    0.10    0.13
   3  -1 -11    7.66    0.33
   3  -1 -11    7.49    0.24
   3  -1 -11    7.67    0.27
   3  -1 -11    7.75    0.23
   3  -1 -11    6.96    0.67
  -3   1  11    7.85    0.26
  -3   1  11    7.70    0.28
   2  -1 -11    6.30    0.24
   2  -1 -11    6.50    0.60
   2  -1 -11    6.45    0.23
   2  -1 -11    6.60    0.25
   2  -1 -11    6.60    0.31
  -2   1  11    6.33    0.26
  -2   1  11    6.60    0.23
   1  -1 -11    0.21    0.10
   1  -1 -11    0.41    0.10
   1  -1 -11    0.30    0.10
   1  -1 -11    0.30    0.08
   1  -1 -11    0.21    0.09
   1  -1 -11    0.30    0.19
  -1   1  11    0.49    0.08
  -1   1  11    0.32    0.10
  -1   1  11    0.42    0.08
   0  -1 -11    9.07    0.37
   0  -1 -11    7.91    0.32
   0  -1 -11    8.87    0.29
   0  -1 -11    8.63    0.32
   0  -1 -11    7.31    0.64
   0  -1 -11    8.88    0.28
   0   1  11    8.42    0.29
   0   1  11    8.65    0.29
   0   1  11    8.77    0.34
  -1  -1 -11   12.43    0.49
  -1  -1 -11   13.65    0.44
  -1  -1 -11   13.52    0.41
  -1  -1 -11   14.04    0.92
   1   1  11   13.43    0.42
   1   1  11   13.51    0.42
   1   1  11   13.13    0.46
  -2  -1 -11    0.80    0.11
   2   1  11    0.90    0.15
   2   1  11    0.84    0.13
   2   1  11    1.02    0.16
  -3  -1 -11    5.50    0.28
   3   1  11    5.51    0.38
   3   1  11    5.65    0.27
   3  -2 -11    4.25    0.26
   3  -2 -11    4.36    0.57
   3  -2 -11    4.71    0.19
  -3   2  11    4.37    0.20
  -3   2  11    4.71    0.18
   2  -2 -11    0.70    0.25
   2  -2 -11    1.02    0.19
   2  -2 -11    0.94    0.13
  -2   2  11    0.94    0.12
   1  -2 -11    4.69    0.28
   1  -2 -11    4.94    0.53
   1  -2 -11    5.06    0.22
   1  -2 -11    5.07    0.21
   1  -2 -11    5.04    0.19
   1  -2 -11    4.83    0.21
  -1   2  11    4.82    0.20
  -1   2  11    4.98    0.24
   0  -2 -11    9.82    0.35
   0  -2 -11   10.51    0.42
   0  -2 -11   10.51    0.36
   0  -2 -11   10.67    0.33
   0   2  11   10.49    0.32
   0   2  11   10.68    0.34
   0   2  11   10.58    0.37
  -1  -2 -11    3.59    0.50
   1   2  11    2.77    0.21
   1   2  11    2.51    0.25
   1   2  11    2.92    0.18
  -2  -2 -11   12.56    0.40
   2   2  11   12.08    0.41
   2   2  11   11.46    0.41
   2   2  11   12.14    0.47
   1  -3 -11    1.12    0.40
   1  -3 -11    1.16    0.21
  -1   3  11    1.22    0.13
  -1   3  11    1.20    0.17
   0  -3 -11   10.33    0.79
   0  -3 -11    9.98    0.42
   0  -3 -11    9.30    0.34
   0   6 -12    0.15    0.12
   0   6 -12    0.14    0.44
   0   6 -12    0.32    0.19
   0  -6  12    0.39    0.13
  -1   6 -12    3.49    0.71
   2   5 -12   -0.15    0.44
   1   5 -12    3.49    0.31
   1   5 -12    2.60    0.65
   1   5 -12    3.94    0.25
  -1  -5  12    3.98    0.25
  -1  -5  12    3.71    0.34
   0   5 -12    9.24    0.36
   0   5 -12    7.93    0.79
   0   5 -12    9.11    0.41
   0  -5  12    8.75    0.34
   0  -5  12    8.95    0.35
   0  -5  12    8.62    0.42
  -1   5 -12    0.05    0.17
  -1   5 -12    0.16    0.29
  -1   5 -12    0.08    0.11
   1  -5  12    0.12    0.11
   1  -5  12   -0.38    0.18
  -2   5 -12    3.83    0.58
  -2   5 -12    4.00    0.36
  -2   5 -12    3.87    0.26
   2  -5  12    3.58    0.27
   2  -5  12    4.05    0.24
   2   4 -12    8.94    0.91
   2   4 -12   11.43    0.44
  -2  -4  12   10.78    0.44
  -2  -4  12   11.61    0.38
  -2  -4  12   11.36    0.41
   1   4 -12    1.16    0.18
   1   4 -12    1.12    0.17
   1   4 -12    0.70    0.38
  -1  -4  12    1.25    0.16
  -1  -4  12    1.27    0.22
  -1  -4  12    1.31    0.18
   0   4 -12    0.37    0.16
   0   4 -12    0.21    0.15
   0   4 -12    0.24    0.25
   0   4 -12    0.13    0.10
   0  -4  12    0.21    0.16
   0  -4  12    0.04    0.09
  -1   4 -12    1.78    0.27
  -1   4 -12    1.35    0.26
  -1   4 -12    2.22    0.21
  -1   4 -12    2.24    0.50
   1  -4  12    1.84    0.18
   1  -4  12    1.94    0.20
   1  -4  12    2.05    0.30
  -2   4 -12    5.26    0.28
  -2   4 -12    4.95    0.58
  -2   4 -12    5.48    0.36
  -2   4 -12    4.81    0.33
   2  -4  12    5.12    0.29
   2  -4  12    4.22    0.37
   2  -4  12    4.92    0.26
   2   3 -12    1.64    0.61
   2   3 -12    2.96    0.25
  -2  -3  12    2.78    0.19
  -2  -3  12    2.41    0.24
  -2  -3  12    3.07    0.29
   1   3 -12    1.78    0.24
   1   3 -12    1.33    0.45
   1   3 -12    1.60    0.18
   1   3 -12    1.75    0.26
  -1  -3  12    1.53    0.16
  -1  -3  12    1.71    0.26
   0   3 -12    7.54    0.35
   0   3 -12    6.49    0.66
   0   3 -12    7.71    0.30
   0   3 -12    7.68    0.35
   0  -3  12    7.62    0.31
   0  -3  12    7.68    0.37
   0  -3  12    8.09    0.30
  -1   3 -12    0.11    0.21
  -1   3 -12    0.30    0.14
  -1   3 -12    0.11    0.10
  -1   3 -12   -0.03    0.13
   1  -3  12    0.17    0.12
   1  -3  12    0.15    0.08
   1  -3  12    0.30    0.16
  -2   3 -12    0.87    0.18
  -2   3 -12    1.01    0.14
  -2   3 -12    0.75    0.24
  -2   3 -12    0.95    0.16
   2  -3  12    1.38    0.21
   2  -3  12    0.86    0.13
   2  -3  12    1.22    0.16
  -3  -2  12    3.08    0.19
   2   2 -12    8.81    0.40
   2   2 -12    9.33    0.37
  -2  -2  12    9.27    0.38
  -2  -2  12    9.81    0.33
  -2  -2  12    9.22    0.35
   1   2 -12   10.22    0.38
   1   2 -12   10.25    0.79
   1   2 -12    9.88    0.34
   1   2 -12    9.87    0.39
   1   2 -12   10.42    0.40
  -1  -2  12    8.72    0.33
  -1  -2  12    9.18    0.39
  -1  -2  12    9.72    0.36
   0   2 -12    0.17    0.20
   0   2 -12    0.47    0.10
   0   2 -12    0.53    0.14
   0   2 -12    0.51    0.13
   0   2 -12    0.47    0.10
   0  -2  12    0.36    0.15
   0  -2  12    0.34    0.09
  -1   2 -12   10.87    0.39
  -1   2 -12   10.15    0.77
  -1   2 -12   10.86    0.38
  -1   2 -12   10.88    0.42
   1  -2  12   11.00    0.37
   1  -2  12   10.34    0.43
   1  -2  12   10.20    0.38
  -2   2 -12    6.65    0.36
  -2   2 -12    6.40    0.31
  -2   2 -12    6.98    0.30
  -2   2 -12    6.73    0.62
   2  -2  12    6.96    0.33
   2  -2  12    6.50    0.40
   2  -2  12    6.67    0.29
   2   1 -12    5.85    0.29
   2   1 -12    5.86    0.28
  -2  -1  12    4.98    0.26
  -2  -1  12    5.31    0.29
  -2  -1  12    5.44    0.23
   1   1 -12    0.82    0.15
   1   1 -12    0.99    0.18
   1   1 -12    0.43    0.27
   1   1 -12    0.77    0.14
   1   1 -12    0.78    0.13
  -1  -1  12    0.78    0.10
  -1  -1  12    0.74    0.13
  -1  -1  12    0.65    0.14
   0   1 -12   14.51    0.44
   0   1 -12   14.14    0.46
   0   1 -12   14.37    0.52
   0   1 -12   14.69    0.48
   0   1 -12   13.88    0.95
   0  -1  12   13.85    0.44
   0  -1  12   13.85    0.45
   0  -1  12   14.49    0.49
  -1   1 -12    8.23    0.69
  -1   1 -12    8.66    0.32
  -1   1 -12    8.69    0.33
  -1   1 -12    8.90    0.37
   1  -1  12    8.74    0.40
   1  -1  12    8.51    0.33
   1  -1  12    8.48    0.32
  -2   1 -12    0.75    0.16
  -2   1 -12    1.04    0.19
  -2   1 -12    1.08    0.28
  -2   1 -12    1.02    0.19
   2  -1  12    1.05    0.16
   2  -1  12    1.25    0.16
   2  -1  12    1.11    0.20
   2   0 -12    0.18    0.09
   2   0 -12    0.40    0.11
   2   0 -12    0.18    0.10
  -2   0  12    0.30    0.11
  -2   0  12    0.40    0.13
  -2   0  12    0.21    0.08
   1   0 -12    4.58    0.26
   1   0 -12    4.69    0.28
   1   0 -12    4.55    0.22
   1   0 -12    4.17    0.25
  -1   0  12    4.69    0.21
  -1   0  12    4.45    0.23
  -1   0  12    4.63    0.27
   0   0 -12    2.05    0.21
   0   0 -12    2.23    0.18
   0   0 -12    1.63    0.21
   0   0 -12    2.12    0.19
   0   0  12    1.73    0.26
   0   0  12    2.02    0.19
   0   0  12    1.89    0.16
  -1   0 -12    2.22    0.24
  -1   0 -12    2.26    0.18
  -1   0 -12    2.15    0.19
   1   0  12    2.61    0.18
   1   0  12    2.14    0.29
   1   0  12    2.15    0.21
   0   0   0    0.00    0.00
;
_shelx_hkl_checksum              13572
#END Tags that were not found in dictionaries
loop_
_space_group_symop_operation_xyz
'x, y, z'
'-x, -y, -z'
loop_
_atom_site_label
_atom_site_type_symbol
_atom_site_fract_x
_atom_site_fract_y
_atom_site_fract_z
_atom_site_U_iso_or_equiv
_atom_site_adp_type
_atom_site_occupancy
_atom_site_site_symmetry_order
_atom_site_calc_flag
_atom_site_refinement_flags_posn
_atom_site_refinement_flags_adp
Cu1 Cu 0.66748(4) 0.72240(3) 0.97229(3) 0.02764(16) Uani 1 1 d . .
O1 O 0.7463(3) 0.6294(2) 0.79400(18) 0.0306(4) Uani 1 1 d . .
O2 O 0.7726(4) 0.4242(3) 0.8612(2) 0.0474(6) Uani 1 1 d . .
N1 N 0.7111(3) 0.6034(2) 0.5403(2) 0.0265(5) Uani 1 1 d . .
H1 H 0.7052 0.6517 0.6207 0.032 Uiso 1 1 calc R U
O5 O 0.6540(3) 0.6254(3) 0.3332(2) 0.0417(5) Uani 1 1 d . .
O3 O 0.8189(3) 0.1611(3) 0.1536(2) 0.0441(6) Uani 1 1 d . .
O4 O 0.9964(3) 0.0393(3) 0.2468(2) 0.0445(6) Uani 1 1 d . .
O13 O 0.7065(3) 0.9593(3) 0.9156(2) 0.0406(5) Uani 1 1 d D .
O12 O 0.5780(4) 0.8246(3) 1.1488(2) 0.0549(7) Uani 1 1 d D .
H12A H 0.4901 0.8651 1.1380 0.082 Uiso 1 1 calc DR U
O11 O 0.4187(3) 0.6376(3) 0.9103(2) 0.0493(6) Uani 1 1 d D .
O14 O 0.9203(4) 0.7513(3) 1.0422(3) 0.0531(6) Uani 1 1 d D .
C7 C 0.7713(4) 0.4913(3) 0.7732(3) 0.0288(6) Uani 1 1 d . .
C1 C 0.8012(3) 0.4083(3) 0.6347(2) 0.0244(5) Uani 1 1 d . .
C6 C 0.7703(3) 0.4614(3) 0.5228(2) 0.0219(5) Uani 1 1 d . .
C9 C 0.6620(4) 0.6765(3) 0.4523(3) 0.0292(6) Uani 1 1 d . .
C10 C 0.6157(4) 0.8311(3) 0.5135(3) 0.0390(7) Uani 1 1 d . .
H10A H 0.6445 0.8948 0.4552 0.058 Uiso 1 1 calc R U
H10B H 0.6824 0.8711 0.5946 0.058 Uiso 1 1 calc R U
H10C H 0.4905 0.8264 0.5298 0.058 Uiso 1 1 calc R U
C5 C 0.8000(3) 0.3732(3) 0.3988(2) 0.0244(5) Uani 1 1 d . .
H5 H 0.7775 0.4072 0.3249 0.029 Uiso 1 1 calc R U
C4 C 0.8631(3) 0.2348(3) 0.3848(3) 0.0257(5) Uani 1 1 d . .
C3 C 0.8945(4) 0.1846(3) 0.4945(3) 0.0301(6) Uani 1 1 d . .
H3 H 0.9383 0.0929 0.4857 0.036 Uiso 1 1 calc R U
C2 C 0.8620(4) 0.2686(3) 0.6171(3) 0.0297(6) Uani 1 1 d . .
H2 H 0.8810 0.2314 0.6897 0.036 Uiso 1 1 calc R U
C8 C 0.8960(4) 0.1382(3) 0.2509(3) 0.0309(6) Uani 1 1 d . .
H13B H 0.803(4) 0.958(4) 0.868(3) 0.046 Uiso 1 1 d D U
H13A H 0.758(5) 1.019(4) 0.988(3) 0.046 Uiso 1 1 d D U
H14B H 0.964(5) 0.836(3) 1.103(3) 0.046 Uiso 1 1 d D U
H11A H 0.360(5) 0.598(4) 0.975(3) 0.046 Uiso 1 1 d D U
H11B H 0.354(4) 0.704(4) 0.883(4) 0.046 Uiso 1 1 d D U
H14A H 0.995(4) 0.748(4) 0.969(3) 0.046 Uiso 1 1 d D U
H12B H 0.662(4) 0.900(3) 1.203(3) 0.046 Uiso 1 1 d D U
loop_
_atom_site_aniso_label
_atom_site_aniso_U_11
_atom_site_aniso_U_22
_atom_site_aniso_U_33
_atom_site_aniso_U_23
_atom_site_aniso_U_13
_atom_site_aniso_U_12
Cu1 0.0360(2) 0.0285(2) 0.0172(2) 0.00125(14) 0.00074(14) 0.00817(15)
O1 0.0449(11) 0.0262(10) 0.0189(9) -0.0006(7) 0.0029(8) 0.0104(8)
O2 0.0820(18) 0.0411(12) 0.0235(11) 0.0110(10) 0.0129(11) 0.0194(12)
N1 0.0366(12) 0.0224(11) 0.0193(11) 0.0000(8) 0.0013(9) 0.0093(9)
O5 0.0637(15) 0.0380(12) 0.0259(11) 0.0078(9) -0.0045(10) 0.0172(11)
O3 0.0547(14) 0.0501(13) 0.0229(11) -0.0056(9) -0.0036(9) 0.0191(11)
O4 0.0596(14) 0.0384(12) 0.0345(12) -0.0011(10) 0.0073(10) 0.0232(11)
O13 0.0482(13) 0.0383(12) 0.0325(12) 0.0019(9) 0.0050(10) 0.0073(10)
O12 0.0665(17) 0.0560(16) 0.0378(14) 0.0013(12) 0.0049(12) 0.0116(13)
O11 0.0493(14) 0.0585(16) 0.0400(13) 0.0103(11) -0.0005(11) 0.0096(12)
O14 0.0555(15) 0.0562(16) 0.0423(14) -0.0013(12) -0.0057(11) 0.0145(12)
C7 0.0316(14) 0.0331(15) 0.0210(13) 0.0050(11) 0.0014(10) 0.0048(11)
C1 0.0258(12) 0.0262(13) 0.0197(13) 0.0023(10) 0.0015(10) 0.0036(10)
C6 0.0230(12) 0.0185(12) 0.0229(12) 0.0022(10) 0.0004(9) 0.0035(9)
C9 0.0296(14) 0.0275(14) 0.0303(14) 0.0073(11) -0.0015(11) 0.0023(10)
C10 0.0476(18) 0.0278(15) 0.0416(18) 0.0067(13) -0.0039(14) 0.0087(13)
C5 0.0291(13) 0.0241(13) 0.0195(12) 0.0029(10) -0.0001(10) 0.0060(10)
C4 0.0244(12) 0.0245(13) 0.0245(13) -0.0012(10) 0.0019(10) 0.0032(10)
C3 0.0347(14) 0.0230(13) 0.0326(15) 0.0036(11) 0.0015(11) 0.0113(11)
C2 0.0375(15) 0.0303(14) 0.0246(14) 0.0098(11) 0.0011(11) 0.0107(11)
C8 0.0334(14) 0.0256(14) 0.0289(15) -0.0037(11) 0.0041(11) 0.0058(11)
loop_
_atom_type_symbol
_atom_type_description
_atom_type_scat_dispersion_real
_atom_type_scat_dispersion_imag
_atom_type_scat_source
C C 0.0033 0.0016 'International Tables Vol C Tables 4.2.6.8 and 6.1.1.4'
H H 0.0000 0.0000 'International Tables Vol C Tables 4.2.6.8 and 6.1.1.4'
N N 0.0061 0.0033 'International Tables Vol C Tables 4.2.6.8 and 6.1.1.4'
O O 0.0106 0.0060 'International Tables Vol C Tables 4.2.6.8 and 6.1.1.4'
Cu Cu 0.3201 1.2651 'International Tables Vol C Tables 4.2.6.8 and 6.1.1.4'
loop_
_geom_angle_atom_site_label_1
_geom_angle_atom_site_label_2
_geom_angle_atom_site_label_3
_geom_angle
O1 Cu1 O11 87.93(10)
O1 Cu1 O14 90.25(10)
O11 Cu1 O14 164.27(12)
O1 Cu1 O12 176.48(9)
O11 Cu1 O12 90.37(11)
O14 Cu1 O12 92.21(11)
O1 Cu1 O13 87.95(8)
O11 Cu1 O13 104.06(10)
O14 Cu1 O13 91.48(10)
O12 Cu1 O13 89.48(10)
C7 O1 Cu1 115.61(17)
C9 N1 C6 130.9(2)
C9 N1 H1 114.6
C6 N1 H1 114.6
Cu1 O13 H13B 106(2)
Cu1 O13 H13A 102(3)
H13B O13 H13A 96(3)
Cu1 O12 H12A 109.5
Cu1 O12 H12B 116(2)
H12A O12 H12B 107.0
Cu1 O11 H11A 110(2)
Cu1 O11 H11B 114(2)
H11A O11 H11B 112(3)
Cu1 O14 H14B 121(2)
Cu1 O14 H14A 107(2)
H14B O14 H14A 106(3)
O2 C7 O1 123.1(3)
O2 C7 C1 119.1(3)
O1 C7 C1 117.9(2)
C2 C1 C6 118.3(2)
C2 C1 C7 117.0(2)
C6 C1 C7 124.7(2)
C5 C6 N1 121.9(2)
C5 C6 C1 119.6(2)
N1 C6 C1 118.5(2)
O5 C9 N1 125.0(3)
O5 C9 C10 121.6(3)
N1 C9 C10 113.5(3)
C9 C10 H10A 109.5
C9 C10 H10B 109.5
H10A C10 H10B 109.5
C9 C10 H10C 109.5
H10A C10 H10C 109.5
H10B C10 H10C 109.5
C4 C5 C6 120.6(2)
C4 C5 H5 119.7
C6 C5 H5 119.7
C3 C4 C5 119.4(2)
C3 C4 C8 119.5(2)
C5 C4 C8 121.1(2)
C2 C3 C4 120.7(3)
C2 C3 H3 119.7
C4 C3 H3 119.7
C3 C2 C1 121.4(3)
C3 C2 H2 119.3
C1 C2 H2 119.3
O4 C8 O3 125.0(3)
O4 C8 C4 116.8(3)
O3 C8 C4 118.2(2)
loop_
_geom_bond_atom_site_label_1
_geom_bond_atom_site_label_2
_geom_bond_distance
Cu1 O1 1.9903(19)
Cu1 O11 1.996(3)
Cu1 O14 2.011(3)
Cu1 O12 2.027(3)
Cu1 O13 2.398(2)
O1 C7 1.281(4)
O2 C7 1.236(4)
N1 C9 1.348(4)
N1 C6 1.407(3)
N1 H1 0.8600
O5 C9 1.227(4)
O3 C8 1.251(4)
O4 C8 1.247(4)
O13 H13B 0.883(19)
O13 H13A 0.884(19)
O12 H12A 0.8200
O12 H12B 0.958(19)
O11 H11A 0.944(19)
O11 H11B 0.922(19)
O14 H14B 0.909(19)
O14 H14A 0.957(19)
C7 C1 1.505(4)
C1 C2 1.391(4)
C1 C6 1.412(4)
C6 C5 1.396(4)
C9 C10 1.502(4)
C10 H10A 0.9600
C10 H10B 0.9600
C10 H10C 0.9600
C5 C4 1.393(4)
C5 H5 0.9300
C4 C3 1.376(4)
C4 C8 1.513(4)
C3 C2 1.375(4)
C3 H3 0.9300
C2 H2 0.9300
loop_
_geom_hbond_atom_site_label_D
_geom_hbond_atom_site_label_H
_geom_hbond_atom_site_label_A
_geom_hbond_distance_DH
_geom_hbond_distance_HA
_geom_hbond_distance_DA
_geom_hbond_angle_DHA
_geom_hbond_site_symmetry_A
N1 H1 O1 0.86 1.91 2.634(3) 140.3 .
O12 H12A O13 0.82 2.48 3.274(4) 162.6 2_677
C5 H5 O5 0.93 2.30 2.919(3) 123.2 .
O13 H13B O4 0.883(19) 1.948(19) 2.829(3) 175(4) 2_766
O13 H13A O3 0.884(19) 1.93(2) 2.800(3) 168(3) 1_566
O14 H14B O4 0.909(19) 2.10(2) 2.989(3) 166(3) 1_566
O11 H11A O2 0.944(19) 2.04(2) 2.954(3) 163(3) 2_667
O11 H11B O3 0.922(19) 2.01(2) 2.919(4) 169(3) 2_666
O14 H14A O3 0.957(19) 2.15(2) 3.047(4) 156(3) 2_766
loop_
_geom_torsion_atom_site_label_1
_geom_torsion_atom_site_label_2
_geom_torsion_atom_site_label_3
_geom_torsion_atom_site_label_4
_geom_torsion
Cu1 O1 C7 O2 -10.2(4)
Cu1 O1 C7 C1 170.11(18)
O2 C7 C1 C2 -11.8(4)
O1 C7 C1 C2 167.9(2)
O2 C7 C1 C6 167.5(3)
O1 C7 C1 C6 -12.8(4)
C9 N1 C6 C5 4.8(4)
C9 N1 C6 C1 -175.6(3)
C2 C1 C6 C5 0.4(4)
C7 C1 C6 C5 -178.9(2)
C2 C1 C6 N1 -179.2(2)
C7 C1 C6 N1 1.6(4)
C6 N1 C9 O5 3.0(5)
C6 N1 C9 C10 -177.2(3)
N1 C6 C5 C4 178.3(2)
C1 C6 C5 C4 -1.2(4)
C6 C5 C4 C3 0.6(4)
C6 C5 C4 C8 -179.9(2)
C5 C4 C3 C2 0.9(4)
C8 C4 C3 C2 -178.6(3)
C4 C3 C2 C1 -1.8(4)
C6 C1 C2 C3 1.1(4)
C7 C1 C2 C3 -179.5(3)
C3 C4 C8 O4 -20.0(4)
C5 C4 C8 O4 160.6(3)
C3 C4 C8 O3 158.7(3)
C5 C4 C8 O3 -20.8(4)
