#------------------------------------------------------------------------------
#$Date: 2019-11-17 13:37:03 +0200 (Sun, 17 Nov 2019) $
#$Revision: 230207 $
#$URL: file:///home/coder/svn-repositories/cod/cif/7/05/78/7057829.cif $
#------------------------------------------------------------------------------
#
# This file is available in the Crystallography Open Database (COD),
# http://www.crystallography.net/
#
# All data on this site have been placed in the public domain by the
# contributors.
#
data_7057829
loop_
_publ_author_name
'Luberda-Durna\'s, K.'
'Konieczny, P.'
'Pe\/lka, R.'
'Oszajca, M.'
'Gonzalez Guillen, A.'
'Korecki, J.'
'Ciesielska, Z.'
'\/Lasocha, W.'
_publ_section_title
;
 Two-step magnetic transition in hybrid organic--inorganic materials of
 the (m-xylylenediamine)MeSO4 (Me -- Mn, Fe, Co, Ni) type
;
_journal_issue                   22
_journal_name_full               'New Journal of Chemistry'
_journal_page_first              18225
_journal_paper_doi               10.1039/C8NJ04036B
_journal_volume                  42
_journal_year                    2018
_chemical_formula_moiety         MnSO4(C8H12N2)
_chemical_formula_sum            'C8 H12 Mn N2 O4 S'
_chemical_formula_weight         287.2
_chemical_name_systematic        MnSO4(MXDA)
_space_group_IT_number           26
_space_group_name_Hall           'P -2a 2a'
_space_group_name_H-M_alt        'P 21 m a'
_symmetry_cell_setting           orthorhombic
_symmetry_Int_Tables_number      26
_symmetry_space_group_name_Hall  'P -2a 2a'
_symmetry_space_group_name_H-M   'P 21 m a'
_audit_update_record
;
2018-07-19 deposited with the CCDC.
2018-10-10 downloaded from the CCDC.
;
_cell_angle_alpha                90
_cell_angle_beta                 90
_cell_angle_gamma                90
_cell_formula_units_Z            2
_cell_length_a                   9.8032(7)
_cell_length_b                   10.9845(6)
_cell_length_c                   4.9528(3)
_cell_measurement_temperature    293
_cell_volume                     533.33(6)
_diffrn_ambient_temperature      293
_diffrn_measurement_device_type  diffractometer
_diffrn_radiation_probe          x-ray
_diffrn_radiation_type           'Cu K\a'
_diffrn_radiation_wavelength     1.5418
_exptl_absorpt_coefficient_mu    11.947
_exptl_crystal_density_diffrn    1.7883
_exptl_crystal_F_000             294
_pd_char_colour                  beige
_pd_instr_location               ' ?'
_pd_meas_2theta_range_inc        0.02
_pd_meas_2theta_range_max        79.980
_pd_meas_2theta_range_min        4.020
_pd_meas_number_of_points        3799
_pd_proc_2theta_range_inc        0.02
_pd_proc_2theta_range_max        79.98
_pd_proc_2theta_range_min        10.02
_pd_proc_ls_background_function  '15 Legendre polynoms'
_pd_proc_ls_pref_orient_corr     'March & Dollase'
_pd_proc_ls_profile_function     Pseudo-Voigt
_pd_proc_ls_prof_R_factor        0.0626
_pd_proc_ls_prof_wR_expected     0.0344
_pd_proc_ls_prof_wR_factor       0.0829
_refine_ls_goodness_of_fit_all   2.41
_refine_ls_hydrogen_treatment    constr
_refine_ls_number_constraints    1
_refine_ls_number_parameters     56
_refine_ls_number_restraints     27
_refine_ls_R_factor_all          0.0509
_refine_ls_R_factor_gt           0.0496
_refine_ls_shift/su_max          0.0171
_refine_ls_shift/su_mean         0.0031
_refine_ls_weighting_scheme      sigma
_refine_ls_wR_factor_all         0.0596
_refine_ls_wR_factor_gt          0.0595
_cod_data_source_file            c8nj04036b2.cif
_cod_data_source_block           I_CCDC1
_cod_depositor_comments
;
The following automatic conversions were performed:

'_diffrn_radiation_probe' value 'X-ray' changed to 'x-ray' according
to
/home/data/users/saulius/crontab/automatic-downloads/rss-feeds/RSC/lib/dictionaries/cif_core.dic
dictionary named 'cif_core.dic' version 2.4.2 from 2011-04-26.

Automatic conversion script
Id: cif_fix_values 4973 2017-02-22 13:04:09Z antanas 

 Adding full bibliography for 7057828--7057831.cif.
;
_cod_original_cell_volume        533.34(6)
_cod_original_sg_symbol_Hall     'P 2xa;-2y;-2za'
_cod_original_formula_sum        'C8 H12 Mn1 N2 O4 S1'
_cod_database_code               7057829
loop_
_space_group_symop_id
_space_group_symop_operation_xyz
1 x,y,z
2 x+1/2,-y,-z
3 x+1/2,y,-z
4 x,-y,z
loop_
_atom_site_label
_atom_site_type_symbol
_atom_site_fract_x
_atom_site_fract_y
_atom_site_fract_z
_atom_site_adp_type
_atom_site_U_iso_or_equiv
_atom_site_site_symmetry_multiplicity
_atom_site_occupancy
_atom_site_calc_flag
Mn1 Mn 0.1150(6) 0.5 0.1387(17) Uiso 0.029(4) 2 1 d
S1 S -0.1907(11) 0.5 0.426(2) Uiso 0.006(6) 2 1 d
O1 O -0.0393(18) 0.5 0.448(3) Uiso 0.025(7) 2 1 d
O2 O 0.2693(15) 0.5 -0.139(4) Uiso 0.025(7) 2 1 d
O3 O -0.2442(14) 0.6067(8) 0.556(3) Uiso 0.025(7) 4 1 d
C2 C -0.114(2) 1 -0.406(5) Uiso 0.058(8) 2 1 d
C4 C 0.0455(16) 0.8896(6) -0.118(4) Uiso 0.058(8) 4 1 d
N1 N 0.011(2) 0.6678(13) -0.071(5) Uiso 0.058(8) 4 1 d
C1 C -0.0611(18) 0.8896(6) -0.311(4) Uiso 0.058(8) 4 1 d
C5 C 0.1051(20) 0.7647(11) -0.010(4) Uiso 0.058(8) 4 1 d
C6 C 0.098(2) 1 -0.023(4) Uiso 0.058(8) 2 1 d
H1c2 H -0.186175 1 -0.537264 Uiso 0.0694 2 1 d
H1c1 H -0.09726 0.813909 -0.376575 Uiso 0.0694 4 1 d
H1c5 H 0.191003 0.748662 -0.095487 Uiso 0.0694 4 1 d
H2c5 H 0.117862 0.769699 0.182079 Uiso 0.0694 4 1 d
H1c6 H 0.170391 1 0.108178 Uiso 0.0694 2 1 d
H1n1 H 0.008583 0.656115 -0.244366 Uiso 0.0694 4 1 d
H2n1 H -0.066989 0.682442 0.006467 Uiso 0.0694 4 1 d
loop_
_atom_type_symbol
_atom_type_scat_dispersion_real
_atom_type_scat_dispersion_imag
_atom_type_scat_source
C 0.0181 0.0091 'International Tables Vol C tables 4.2.6.8 and 6.1.1.1'
H 0.0000 0.0000 'International Tables Vol C tables 4.2.6.8 and 6.1.1.1'
Mn -0.5299 2.8052 'International Tables Vol C tables 4.2.6.8 and 6.1.1.1'
N 0.0311 0.0180 'International Tables Vol C tables 4.2.6.8 and 6.1.1.1'
O 0.0492 0.0322 'International Tables Vol C tables 4.2.6.8 and 6.1.1.1'
S 0.3331 0.5567 'International Tables Vol C tables 4.2.6.8 and 6.1.1.1'
loop_
_geom_angle_atom_site_label_1
_geom_angle_atom_site_label_2
_geom_angle_atom_site_label_3
_geom_angle_site_symmetry_1
_geom_angle_site_symmetry_3
_geom_angle
O1 Mn1 O2 . . 177.0(8)
O1 Mn1 O3 . 2_566 87.4(6)
O1 Mn1 O3 . 3_556 87.4(6)
O1 Mn1 N1 . . 90.5(6)
O1 Mn1 N1 . 4_565 90.5(6)
O2 Mn1 O3 . 2_566 89.9(6)
O2 Mn1 O3 . 3_556 89.9(6)
O2 Mn1 N1 . . 91.4(7)
O2 Mn1 N1 . 4_565 91.4(7)
O3 Mn1 O3 2_566 3_556 59.6(4)
O3 Mn1 N1 2_566 . 158.0(6)
O3 Mn1 N1 2_566 4_565 98.5(5)
O3 Mn1 N1 3_556 . 98.5(5)
O3 Mn1 N1 3_556 4_565 158.0(6)
N1 Mn1 N1 . 4_565 103.5(7)
O1 S1 O2 . 2_465 109.5(11)
O1 S1 O3 . . 109.5(8)
O1 S1 O3 . 4_565 109.5(8)
O2 S1 O3 2_465 . 109.5(8)
O2 S1 O3 2_465 4_565 109.5(8)
O3 S1 O3 . 4_565 109.5(10)
Mn1 O1 S1 . . 130.6(10)
Mn1 O2 S1 . 2_565 147.8(11)
Mn1 O3 S1 2_466 . 95.4(6)
C1 C2 C1 . 4_575 120.0(19)
C1 C2 H1c2 . . 120
C1 C2 H1c2 4_575 . 120
C1 C4 C5 . . 120.0(10)
C1 C4 C6 . . 120.0(10)
C5 C4 C6 . . 120.0(15)
Mn1 N1 C5 . . 102.1(13)
Mn1 N1 H1n1 . . 109.48
Mn1 N1 H2n1 . . 109.47
C5 N1 H1n1 . . 109.49
C5 N1 H2n1 . . 109.48
H1n1 N1 H2n1 . . 115.9
C2 C1 C4 . . 120.0(12)
C2 C1 H1c1 . . 119.99
C4 C1 H1c1 . . 120.02
C4 C5 N1 . . 109.5(15)
C4 C5 H1c5 . . 109.47
C4 C5 H2c5 . . 109.46
N1 C5 H1c5 . . 109.46
N1 C5 H2c5 . . 109.46
H1c5 C5 H2c5 . . 109.5
C4 C6 C4 . 4_575 120.0(17)
C4 C6 H1c6 . . 119.99
C4 C6 H1c6 4_575 . 119.99
loop_
_geom_bond_atom_site_label_1
_geom_bond_atom_site_label_2
_geom_bond_site_symmetry_2
_geom_bond_distance
Mn1 O1 . 2.151(18)
Mn1 O2 . 2.044(18)
Mn1 O3 2_566 2.359(15)
Mn1 O3 3_556 2.359(15)
Mn1 N1 . 2.347(18)
Mn1 N1 4_565 2.347(18)
S1 O1 . 1.49(2)
S1 O2 2_465 1.48(2)
S1 O3 . 1.435(13)
S1 O3 4_565 1.435(13)
C2 C1 . 1.400(16)
C2 C1 4_575 1.400(16)
C2 H1c2 . 0.9603
C4 C1 . 1.42(3)
C4 C5 . 1.585(18)
C4 C6 . 1.400(14)
N1 C5 . 1.44(2)
N1 H1n1 . 0.87
N1 H2n1 . 0.8703
C1 H1c1 . 0.9601
C5 H1c5 . 0.9597
C5 H2c5 . 0.96
C6 H1c6 . 0.9597
loop_
_pd_proc_point_id
_pd_proc_2theta_corrected
_pd_proc_intensity_net
_pd_calc_intensity_net
_pd_proc_ls_weight
1 9.9800 1805.70 1863.40 42.49
2 10.0000 1794.60 1858.05 42.36
3 10.0200 1809.00 1852.75 42.53
4 10.0400 1870.00 1847.50 43.24
5 10.0600 1877.60 1842.31 43.33
6 10.0800 1827.00 1837.15 42.74
7 10.1000 1778.60 1832.05 42.17
8 10.1200 1809.80 1826.99 42.54
9 10.1400 1846.40 1821.98 42.97
10 10.1600 1854.90 1817.01 43.07
11 10.1800 1847.80 1812.08 42.99
12 10.2000 1837.90 1807.20 42.87
13 10.2200 1853.90 1802.36 43.06
14 10.2400 1837.10 1797.57 42.86
15 10.2600 1781.10 1792.81 42.20
16 10.2800 1704.20 1788.09 41.28
17 10.3000 1748.30 1783.42 41.81
18 10.3200 1812.70 1778.78 42.58
19 10.3400 1803.90 1774.18 42.47
20 10.3600 1733.90 1769.62 41.64
21 10.3800 1756.00 1765.09 41.90
22 10.4000 1747.80 1760.61 41.81
23 10.4200 1748.30 1756.15 41.81
24 10.4400 1778.30 1751.74 42.17
25 10.4600 1867.40 1747.36 43.21
26 10.4800 1821.10 1743.01 42.67
27 10.5000 1742.10 1738.69 41.74
28 10.5200 1700.50 1734.41 41.24
29 10.5400 1778.90 1730.17 42.18
30 10.5600 1717.60 1725.95 41.44
31 10.5800 1718.50 1721.76 41.45
32 10.6000 1754.60 1717.61 41.89
33 10.6200 1795.20 1713.49 42.37
34 10.6400 1778.50 1709.39 42.17
35 10.6600 1758.30 1705.33 41.93
36 10.6800 1768.80 1701.29 42.06
37 10.7000 1808.10 1697.28 42.52
38 10.7200 1725.80 1693.31 41.54
39 10.7400 1746.50 1689.35 41.79
40 10.7600 1744.20 1685.43 41.76
41 10.7800 1706.10 1681.53 41.31
42 10.8000 1754.10 1677.66 41.88
43 10.8200 1738.20 1673.81 41.69
44 10.8400 1714.00 1669.99 41.40
45 10.8600 1682.10 1666.20 41.01
46 10.8800 1617.40 1662.42 40.22
47 10.9000 1665.10 1658.68 40.81
48 10.9200 1676.00 1654.95 40.94
49 10.9400 1648.70 1651.25 40.60
50 10.9600 1603.00 1647.58 40.04
51 10.9800 1656.40 1643.92 40.70
52 11.0000 1639.00 1640.29 40.48
53 11.0200 1626.80 1636.68 40.33
54 11.0400 1686.00 1633.09 41.06
55 11.0600 1608.30 1629.52 40.10
56 11.0800 1551.60 1625.97 39.39
57 11.1000 1540.30 1622.44 39.25
58 11.1200 1577.00 1618.94 39.71
59 11.1400 1567.10 1615.45 39.59
60 11.1600 1558.40 1611.98 39.48
61 11.1800 1532.00 1608.53 39.14
62 11.2000 1505.20 1605.10 38.80
63 11.2200 1581.40 1601.69 39.77
64 11.2400 1548.50 1598.30 39.35
65 11.2600 1547.60 1594.92 39.34
66 11.2800 1584.50 1591.56 39.81
67 11.3000 1596.00 1588.22 39.95
68 11.3200 1520.90 1584.90 39.00
69 11.3400 1499.20 1581.60 38.72
70 11.3600 1518.10 1578.31 38.96
71 11.3800 1532.60 1575.03 39.15
72 11.4000 1574.30 1571.78 39.68
73 11.4200 1552.50 1568.54 39.40
74 11.4400 1512.90 1565.31 38.90
75 11.4600 1504.20 1562.10 38.78
76 11.4800 1509.50 1558.91 38.85
77 11.5000 1492.40 1555.73 38.63
78 11.5200 1475.80 1552.56 38.42
79 11.5400 1475.60 1549.41 38.41
80 11.5600 1504.60 1546.27 38.79
81 11.5800 1475.40 1543.15 38.41
82 11.6000 1448.90 1540.04 38.06
83 11.6200 1449.20 1536.95 38.07
84 11.6400 1476.60 1533.87 38.43
85 11.6600 1502.70 1530.80 38.76
86 11.6800 1471.30 1527.75 38.36
87 11.7000 1427.30 1524.71 37.78
88 11.7200 1527.00 1521.68 39.08
89 11.7400 1486.30 1518.66 38.55
90 11.7600 1463.90 1515.66 38.26
91 11.7800 1462.50 1512.67 38.24
92 11.8000 1453.40 1509.69 38.12
93 11.8200 1449.30 1506.72 38.07
94 11.8400 1483.00 1503.76 38.51
95 11.8600 1508.30 1500.82 38.84
96 11.8800 1476.50 1497.89 38.43
97 11.9000 1452.10 1494.97 38.11
98 11.9200 1466.60 1492.06 38.30
99 11.9400 1495.30 1489.16 38.67
100 11.9600 1516.10 1486.27 38.94
101 11.9800 1481.10 1483.39 38.49
102 12.0000 1502.30 1480.53 38.76
103 12.0200 1505.60 1477.67 38.80
104 12.0400 1480.90 1474.83 38.48
105 12.0600 1535.70 1471.99 39.19
106 12.0800 1500.10 1469.17 38.73
107 12.1000 1485.00 1466.35 38.54
108 12.1200 1509.60 1463.55 38.85
109 12.1400 1547.00 1460.75 39.33
110 12.1600 1544.90 1457.97 39.31
111 12.1800 1527.00 1455.19 39.08
112 12.2000 1492.40 1452.43 38.63
113 12.2200 1433.80 1449.67 37.87
114 12.2400 1475.30 1446.92 38.41
115 12.2600 1472.50 1444.19 38.37
116 12.2800 1465.90 1441.46 38.29
117 12.3000 1508.20 1438.74 38.84
118 12.3200 1523.40 1436.03 39.03
119 12.3400 1499.20 1433.33 38.72
120 12.3600 1478.10 1430.63 38.45
121 12.3800 1486.50 1427.95 38.56
122 12.4000 1466.70 1425.27 38.30
123 12.4200 1510.10 1422.61 38.86
124 12.4400 1522.80 1419.95 39.02
125 12.4600 1475.90 1417.30 38.42
126 12.4800 1445.40 1414.66 38.02
127 12.5000 1470.10 1412.03 38.34
128 12.5200 1479.50 1409.40 38.46
129 12.5400 1461.40 1406.79 38.23
130 12.5600 1437.80 1404.18 37.92
131 12.5800 1479.40 1401.58 38.46
132 12.6000 1492.30 1398.99 38.63
133 12.6200 1482.80 1396.40 38.51
134 12.6400 1489.60 1393.83 38.60
135 12.6600 1421.00 1391.26 37.70
136 12.6800 1413.20 1388.70 37.59
137 12.7000 1437.60 1386.15 37.92
138 12.7200 1448.80 1383.61 38.06
139 12.7400 1412.30 1381.07 37.58
140 12.7600 1424.20 1378.54 37.74
141 12.7800 1446.40 1376.02 38.03
142 12.8000 1451.20 1373.51 38.09
143 12.8200 1469.50 1371.00 38.33
144 12.8400 1422.40 1368.50 37.71
145 12.8600 1379.30 1366.01 37.14
146 12.8800 1376.00 1363.53 37.09
147 12.9000 1423.20 1361.05 37.73
148 12.9200 1389.20 1358.58 37.27
149 12.9400 1382.10 1356.12 37.18
150 12.9600 1407.00 1353.67 37.51
151 12.9800 1375.00 1351.22 37.08
152 13.0000 1421.00 1348.78 37.70
153 13.0200 1423.80 1346.35 37.73
154 13.0400 1382.80 1343.92 37.19
155 13.0600 1337.90 1341.51 36.58
156 13.0800 1328.60 1339.09 36.45
157 13.1000 1349.70 1336.69 36.74
158 13.1200 1380.00 1334.30 37.15
159 13.1400 1393.00 1331.91 37.32
160 13.1600 1402.10 1329.52 37.44
161 13.1800 1362.30 1327.15 36.91
162 13.2000 1339.10 1324.78 36.59
163 13.2200 1379.10 1322.42 37.14
164 13.2400 1363.90 1320.07 36.93
165 13.2600 1355.50 1317.72 36.82
166 13.2800 1315.50 1315.38 36.27
167 13.3000 1246.10 1313.05 35.30
168 13.3200 1289.60 1310.72 35.91
169 13.3400 1321.30 1308.40 36.35
170 13.3600 1286.10 1306.09 35.86
171 13.3800 1218.30 1303.79 34.90
172 13.4000 1303.60 1301.49 36.11
173 13.4200 1269.50 1299.20 35.63
174 13.4400 1251.10 1296.91 35.37
175 13.4600 1264.00 1294.64 35.55
176 13.4800 1289.20 1292.37 35.91
177 13.5000 1205.50 1290.10 34.72
178 13.5200 1193.90 1287.85 34.55
179 13.5400 1230.90 1285.60 35.08
180 13.5600 1263.60 1283.35 35.55
181 13.5800 1255.70 1281.12 35.44
182 13.6000 1253.50 1278.89 35.40
183 13.6200 1241.90 1276.67 35.24
184 13.6400 1211.00 1274.45 34.80
185 13.6600 1232.40 1272.24 35.11
186 13.6800 1222.30 1270.04 34.96
187 13.7000 1216.80 1267.85 34.88
188 13.7200 1232.40 1265.66 35.11
189 13.7400 1245.40 1263.48 35.29
190 13.7600 1220.10 1261.31 34.93
191 13.7800 1172.50 1259.14 34.24
192 13.8000 1127.90 1256.98 33.58
193 13.8200 1162.10 1254.82 34.09
194 13.8400 1148.10 1252.68 33.88
195 13.8600 1153.40 1250.54 33.96
196 13.8800 1166.50 1248.41 34.15
197 13.9000 1130.00 1246.28 33.62
198 13.9200 1143.10 1244.16 33.81
199 13.9400 1187.40 1242.05 34.46
200 13.9600 1214.10 1239.94 34.84
201 13.9800 1156.20 1237.84 34.00
202 14.0000 1146.00 1235.75 33.85
203 14.0200 1181.10 1233.67 34.37
204 14.0400 1217.70 1231.59 34.90
205 14.0600 1216.70 1229.52 34.88
206 14.0800 1209.10 1227.45 34.77
207 14.1000 1151.00 1225.40 33.93
208 14.1200 1135.70 1223.34 33.70
209 14.1400 1195.40 1221.30 34.57
210 14.1600 1149.70 1219.26 33.91
211 14.1800 1141.20 1217.23 33.78
212 14.2000 1154.00 1215.21 33.97
213 14.2200 1175.00 1213.19 34.28
214 14.2400 1175.00 1211.18 34.28
215 14.2600 1167.20 1209.18 34.16
216 14.2800 1156.10 1207.19 34.00
217 14.3000 1140.20 1205.20 33.77
218 14.3200 1114.30 1203.22 33.38
219 14.3400 1117.50 1201.24 33.43
220 14.3600 1102.30 1199.27 33.20
221 14.3800 1091.20 1197.31 33.03
222 14.4000 1127.00 1195.36 33.57
223 14.4200 1111.00 1193.41 33.33
224 14.4400 1160.10 1191.47 34.06
225 14.4600 1195.30 1189.53 34.57
226 14.4800 1141.90 1187.61 33.79
227 14.5000 1202.10 1185.69 34.67
228 14.5200 1233.20 1183.77 35.12
229 14.5400 1258.00 1181.87 35.47
230 14.5600 1281.30 1179.97 35.80
231 14.5800 1220.40 1178.08 34.93
232 14.6000 1172.50 1176.19 34.24
233 14.6200 1138.30 1174.31 33.74
234 14.6400 1120.50 1172.44 33.47
235 14.6600 1130.40 1170.57 33.62
236 14.6800 1137.10 1168.72 33.72
237 14.7000 1139.60 1166.87 33.76
238 14.7200 1133.60 1165.02 33.67
239 14.7400 1108.50 1163.18 33.29
240 14.7600 1136.20 1161.35 33.71
241 14.7800 1145.50 1159.53 33.85
242 14.8000 1140.60 1157.71 33.77
243 14.8200 1142.90 1155.90 33.81
244 14.8400 1124.70 1154.10 33.54
245 14.8600 1134.80 1152.30 33.69
246 14.8800 1153.30 1150.52 33.96
247 14.9000 1157.20 1148.73 34.02
248 14.9200 1164.80 1146.96 34.13
249 14.9400 1165.90 1145.19 34.15
250 14.9600 1156.80 1143.43 34.01
251 14.9800 1138.30 1141.67 33.74
252 15.0000 1141.30 1139.92 33.78
253 15.0200 1122.00 1138.18 33.50
254 15.0400 1109.40 1136.45 33.31
255 15.0600 1121.40 1134.72 33.49
256 15.0800 1186.20 1133.00 34.44
257 15.1000 1148.80 1131.29 33.89
258 15.1200 1140.80 1129.58 33.78
259 15.1400 1167.10 1127.88 34.16
260 15.1600 1148.00 1126.19 33.88
261 15.1800 1182.70 1124.50 34.39
262 15.2000 1177.00 1122.82 34.31
263 15.2200 1149.40 1121.15 33.90
264 15.2400 1154.80 1119.48 33.98
265 15.2600 1178.30 1117.82 34.33
266 15.2800 1209.00 1116.17 34.77
267 15.3000 1229.20 1114.53 35.06
268 15.3200 1220.80 1112.89 34.94
269 15.3400 1208.60 1111.25 34.76
270 15.3600 1238.20 1109.63 35.19
271 15.3800 1298.70 1108.01 36.04
272 15.4000 1381.00 1106.40 37.16
273 15.4200 1472.40 1104.79 38.37
274 15.4400 1451.00 1103.20 38.09
275 15.4600 1363.80 1101.60 36.93
276 15.4800 1253.70 1100.02 35.41
277 15.5000 1236.90 1098.44 35.17
278 15.5200 1210.20 1096.87 34.79
279 15.5400 1224.40 1095.30 34.99
280 15.5600 1259.60 1152.97 35.49
281 15.5800 1212.40 1156.18 34.82
282 15.6000 1226.50 1189.28 35.02
283 15.6200 1243.00 1196.17 35.26
284 15.6400 1249.00 1204.19 35.34
285 15.6600 1237.60 1213.57 35.18
286 15.6800 1224.80 1224.57 35.00
287 15.7000 1208.90 1237.53 34.77
288 15.7200 1204.30 1252.89 34.70
289 15.7400 1227.60 1271.20 35.04
290 15.7600 1312.10 1293.20 36.22
291 15.7800 1338.50 1319.87 36.59
292 15.8000 1367.40 1352.58 36.98
293 15.8200 1440.10 1393.18 37.95
294 15.8400 1486.60 1444.38 38.56
295 15.8600 1559.50 1510.11 39.49
296 15.8800 1688.10 1596.47 41.09
297 15.9000 1893.60 1713.16 43.52
298 15.9200 2217.30 1876.87 47.09
299 15.9400 2693.80 2121.61 51.90
300 15.9600 3395.90 2541.26 58.27
301 15.9800 4408.10 3406.09 66.39
302 16.0000 5938.10 5280.25 77.06
303 16.0200 8452.80 8700.02 91.94
304 16.0400 12180.50 13598.70 110.36
305 16.0600 17380.80 18739.70 131.84
306 16.0800 24497.90 23560.20 156.52
307 16.1000 31940.60 28739.00 178.72
308 16.1200 32507.40 29748.90 180.30
309 16.1400 27269.20 24568.40 165.13
310 16.1600 18368.40 17460.10 135.53
311 16.1800 10548.90 10661.10 102.71
312 16.2000 5731.30 5902.45 75.71
313 16.2200 3241.40 3633.64 56.93
314 16.2400 2385.70 2682.04 48.84
315 16.2600 2043.80 2218.99 45.21
316 16.2800 1784.80 1938.65 42.25
317 16.3000 1653.70 1749.15 40.67
318 16.3200 1631.80 1614.01 40.40
319 16.3400 1455.10 1513.93 38.15
320 16.3600 1369.40 1437.55 37.01
321 16.3800 1307.30 1377.80 36.16
322 16.4000 1262.30 1330.08 35.53
323 16.4200 1285.90 1291.27 35.86
324 16.4400 1285.00 1259.23 35.85
325 16.4600 1247.50 1232.41 35.32
326 16.4800 1199.90 1209.69 34.64
327 16.5000 1203.70 1190.23 34.69
328 16.5200 1170.00 1173.41 34.21
329 16.5400 1145.70 1158.74 33.85
330 16.5600 1127.80 1145.83 33.58
331 16.5800 1107.20 1134.41 33.27
332 16.6000 1096.40 1124.21 33.11
333 16.6200 1090.40 1055.10 33.02
334 16.6400 1103.00 1051.16 33.21
335 16.6600 1140.90 1017.81 33.78
336 16.6800 1118.80 1016.59 33.45
337 16.7000 1089.40 1015.39 33.01
338 16.7200 1061.90 1014.18 32.59
339 16.7400 1043.10 1012.99 32.30
340 16.7600 1043.80 1011.79 32.31
341 16.7800 1010.50 1010.61 31.79
342 16.8000 982.00 1009.43 31.34
343 16.8200 975.00 1008.25 31.23
344 16.8400 1003.90 1007.08 31.68
345 16.8600 999.50 1005.92 31.61
346 16.8800 1042.00 1004.76 32.28
347 16.9000 1092.00 1003.60 33.05
348 16.9200 1023.40 1002.45 31.99
349 16.9400 1001.20 1001.31 31.64
350 16.9600 988.40 1000.17 31.44
351 16.9800 980.20 999.04 31.31
352 17.0000 974.10 997.91 31.21
353 17.0200 996.40 996.78 31.57
354 17.0400 1007.10 995.67 31.73
355 17.0600 1007.60 994.55 31.74
356 17.0800 1001.50 993.45 31.65
357 17.1000 1013.70 992.34 31.84
358 17.1200 986.40 991.24 31.41
359 17.1400 967.10 990.15 31.10
360 17.1600 980.80 989.06 31.32
361 17.1800 1007.40 987.98 31.74
362 17.2000 973.30 986.90 31.20
363 17.2200 961.20 985.82 31.00
364 17.2400 986.00 984.75 31.40
365 17.2600 986.00 983.69 31.40
366 17.2800 1006.70 982.63 31.73
367 17.3000 1027.00 981.57 32.05
368 17.3200 1043.60 983.27 32.30
369 17.3400 1059.60 982.44 32.55
370 17.3600 986.70 982.98 31.41
371 17.3800 933.00 982.32 30.55
372 17.4000 909.50 981.71 30.16
373 17.4200 914.90 981.16 30.25
374 17.4400 920.90 980.68 30.35
375 17.4600 923.50 980.30 30.39
376 17.4800 931.90 980.01 30.53
377 17.5000 953.30 983.01 30.88
378 17.5200 933.50 983.25 30.55
379 17.5400 925.80 989.12 30.43
380 17.5600 926.20 990.29 30.43
381 17.5800 931.20 991.87 30.52
382 17.6000 933.50 993.96 30.55
383 17.6200 972.10 996.73 31.18
384 17.6400 984.10 1000.42 31.37
385 17.6600 961.80 1005.36 31.01
386 17.6800 980.10 1012.09 31.31
387 17.7000 969.50 1021.55 31.14
388 17.7200 1000.30 1035.58 31.63
389 17.7400 1065.30 1059.11 32.64
390 17.7600 1103.30 1105.67 33.22
391 17.7800 1151.00 1203.14 33.93
392 17.8000 1201.10 1379.15 34.66
393 17.8200 1289.80 1627.61 35.91
394 17.8400 1476.40 1893.19 38.42
395 17.8600 1757.00 2160.83 41.92
396 17.8800 1951.30 2366.00 44.17
397 17.9000 1966.80 2289.48 44.35
398 17.9200 1731.30 2030.73 41.61
399 17.9400 1664.30 1800.53 40.80
400 17.9600 1646.60 1659.53 40.58
401 17.9800 1732.60 1754.42 41.62
402 18.0000 1959.20 2105.33 44.26
403 18.0200 2343.00 2610.27 48.40
404 18.0400 3074.40 3111.73 55.45
405 18.0600 3680.00 3610.56 60.66
406 18.0800 3869.50 3691.69 62.21
407 18.1000 3193.90 3190.27 56.51
408 18.1200 2545.10 2577.48 50.45
409 18.1400 1946.00 1979.25 44.11
410 18.1600 1442.90 1501.93 37.99
411 18.1800 1149.70 1244.39 33.91
412 18.2000 1066.50 1128.69 32.66
413 18.2200 996.80 1073.41 31.57
414 18.2400 938.40 1040.86 30.63
415 18.2600 932.30 1018.78 30.53
416 18.2800 939.30 1002.79 30.65
417 18.3000 944.90 990.70 30.74
418 18.3200 940.50 981.26 30.67
419 18.3400 918.90 973.68 30.31
420 18.3600 971.40 967.46 31.17
421 18.3800 946.80 962.24 30.77
422 18.4000 898.60 954.92 29.98
423 18.4200 866.60 951.27 29.44
424 18.4400 862.10 948.07 29.36
425 18.4600 913.40 943.88 30.22
426 18.4800 933.10 941.41 30.55
427 18.5000 898.40 939.18 29.97
428 18.5200 893.80 937.13 29.90
429 18.5400 915.60 935.23 30.26
430 18.5600 922.40 933.47 30.37
431 18.5800 913.10 931.82 30.22
432 18.6000 918.40 924.58 30.31
433 18.6200 890.60 923.50 29.84
434 18.6400 906.70 919.58 30.11
435 18.6600 940.60 918.76 30.67
436 18.6800 923.90 917.94 30.40
437 18.7000 905.70 917.12 30.09
438 18.7200 884.50 916.31 29.74
439 18.7400 878.10 915.50 29.63
440 18.7600 906.40 914.69 30.11
441 18.7800 949.00 913.88 30.81
442 18.8000 939.80 913.07 30.66
443 18.8200 923.80 912.27 30.39
444 18.8400 932.20 911.46 30.53
445 18.8600 920.80 910.66 30.34
446 18.8800 924.90 909.86 30.41
447 18.9000 931.70 909.07 30.52
448 18.9200 939.60 908.27 30.65
449 18.9400 974.60 907.48 31.22
450 18.9600 997.20 906.69 31.58
451 18.9800 997.80 905.90 31.59
452 19.0000 981.10 905.11 31.32
453 19.0200 971.20 904.32 31.16
454 19.0400 955.30 906.02 30.91
455 19.0600 941.10 905.42 30.68
456 19.0800 929.30 904.84 30.48
457 19.1000 918.60 905.56 30.31
458 19.1200 872.90 905.13 29.54
459 19.1400 918.00 904.74 30.30
460 19.1600 972.20 904.41 31.18
461 19.1800 925.00 904.14 30.41
462 19.2000 907.50 903.94 30.12
463 19.2200 902.00 911.92 30.03
464 19.2400 911.40 912.52 30.19
465 19.2600 936.60 935.69 30.60
466 19.2800 962.50 938.45 31.02
467 19.3000 971.80 941.71 31.17
468 19.3200 971.30 945.57 31.17
469 19.3400 967.00 950.18 31.10
470 19.3600 975.40 955.72 31.23
471 19.3800 927.70 962.43 30.46
472 19.4000 901.20 970.65 30.02
473 19.4200 923.30 980.88 30.39
474 19.4400 1007.10 993.87 31.73
475 19.4600 1033.20 1012.42 32.14
476 19.4800 1068.10 1035.97 32.68
477 19.5000 1116.00 1072.26 33.41
478 19.5200 1160.90 1138.06 34.07
479 19.5400 1248.40 1255.61 35.33
480 19.5600 1434.00 1449.65 37.87
481 19.5800 1670.60 1726.02 40.87
482 19.6000 1889.20 2066.80 43.46
483 19.6200 2185.60 2341.54 46.75
484 19.6400 2380.80 2524.56 48.79
485 19.6600 2518.60 2474.67 50.19
486 19.6800 2656.40 2433.35 51.54
487 19.7000 3082.90 2660.54 55.52
488 19.7200 3848.50 3356.34 62.04
489 19.7400 5072.90 4696.32 71.22
490 19.7600 6854.30 6719.05 82.79
491 19.7800 9420.90 8827.39 97.06
492 19.8000 11188.90 10231.70 105.78
493 19.8200 11189.30 10314.60 105.78
494 19.8400 9447.80 8425.94 97.20
495 19.8600 7268.10 6447.61 85.25
496 19.8800 5145.50 4526.60 71.73
497 19.9000 3355.70 2932.43 57.93
498 19.9200 2083.30 2042.18 45.64
499 19.9400 1625.60 1654.58 40.32
500 19.9600 1507.10 1528.15 38.82
501 19.9800 1467.80 1551.24 38.31
502 20.0000 1518.50 1680.90 38.97
503 20.0200 1705.90 1897.30 41.30
504 20.0400 1886.50 2078.39 43.43
505 20.0600 1936.80 2169.95 44.01
506 20.0800 1837.40 2042.52 42.86
507 20.1000 1588.10 1775.91 39.85
508 20.1200 1431.20 1535.64 37.83
509 20.1400 1217.50 1299.49 34.89
510 20.1600 1054.30 1131.07 32.47
511 20.1800 993.10 1037.88 31.51
512 20.2000 955.80 992.77 30.92
513 20.2200 953.40 967.11 30.88
514 20.2400 954.10 948.37 30.89
515 20.2600 942.70 935.31 30.70
516 20.2800 904.60 925.00 30.08
517 20.3000 875.60 916.59 29.59
518 20.3200 875.70 909.57 29.59
519 20.3400 893.00 903.59 29.88
520 20.3600 888.40 878.68 29.81
521 20.3800 865.00 875.45 29.41
522 20.4000 851.80 862.48 29.19
523 20.4200 859.80 860.62 29.32
524 20.4400 901.00 858.94 30.02
525 20.4600 871.60 857.39 29.52
526 20.4800 901.30 855.96 30.02
527 20.5000 928.80 854.62 30.48
528 20.5200 895.80 853.36 29.93
529 20.5400 919.50 852.16 30.32
530 20.5600 903.40 851.02 30.06
531 20.5800 878.40 849.92 29.64
532 20.6000 871.20 848.86 29.52
533 20.6200 945.80 845.53 30.75
534 20.6400 978.10 844.68 31.27
535 20.6600 974.70 842.66 31.22
536 20.6800 954.20 841.91 30.89
537 20.7000 986.90 841.17 31.42
538 20.7200 1042.80 840.42 32.29
539 20.7400 1043.90 839.67 32.31
540 20.7600 994.50 838.92 31.54
541 20.7800 951.10 838.17 30.84
542 20.8000 895.30 837.41 29.92
543 20.8200 857.10 836.66 29.28
544 20.8400 857.50 835.91 29.28
545 20.8600 923.80 835.16 30.39
546 20.8800 881.80 834.40 29.70
547 20.9000 907.30 833.65 30.12
548 20.9200 926.20 832.89 30.43
549 20.9400 860.50 832.14 29.33
550 20.9600 840.70 831.38 28.99
551 20.9800 864.40 830.62 29.40
552 21.0000 870.40 829.86 29.50
553 21.0200 831.90 829.10 28.84
554 21.0400 876.10 843.09 29.60
555 21.0600 867.70 843.39 29.46
556 21.0800 859.90 879.31 29.32
557 21.1000 869.80 882.48 29.49
558 21.1200 875.10 886.12 29.58
559 21.1400 842.90 890.30 29.03
560 21.1600 866.60 895.11 29.44
561 21.1800 932.30 900.65 30.53
562 21.2000 938.40 907.08 30.63
563 21.2200 905.50 914.55 30.09
564 21.2400 883.30 923.29 29.72
565 21.2600 868.20 933.58 29.47
566 21.2800 843.10 945.77 29.04
567 21.3000 925.90 960.32 30.43
568 21.3200 1000.20 977.84 31.63
569 21.3400 1057.40 999.18 32.52
570 21.3600 1094.50 1025.48 33.08
571 21.3800 1120.40 1058.37 33.47
572 21.4000 1182.30 1100.18 34.38
573 21.4200 1244.00 1154.42 35.27
574 21.4400 1292.70 1226.56 35.95
575 21.4600 1464.00 1325.60 38.26
576 21.4800 1763.80 1468.59 42.00
577 21.5000 2148.00 1695.96 46.35
578 21.5200 2660.90 2113.43 51.58
579 21.5400 3627.40 2957.13 60.23
580 21.5600 5125.80 4602.58 71.59
581 21.5800 7299.80 7277.82 85.44
582 21.6000 10189.90 10889.00 100.94
583 21.6200 13806.70 14331.70 117.50
584 21.6400 15673.70 16250.20 125.19
585 21.6600 14893.80 15436.10 122.04
586 21.6800 12288.60 12438.40 110.85
587 21.7000 9585.70 9548.70 97.91
588 21.7200 6703.50 6587.82 81.87
589 21.7400 4342.40 4095.08 65.90
590 21.7600 2696.30 2642.82 51.93
591 21.7800 1916.70 1939.08 43.78
592 21.8000 1596.80 1597.93 39.96
593 21.8200 1396.40 1403.93 37.37
594 21.8400 1252.60 1275.94 35.39
595 21.8600 1121.50 1184.89 33.49
596 21.8800 1058.30 1117.42 32.53
597 21.9000 1007.80 1065.90 31.75
598 21.9200 986.40 1025.59 31.41
599 21.9400 988.60 993.38 31.44
600 21.9600 939.80 967.19 30.66
601 21.9800 941.00 945.56 30.68
602 22.0000 909.60 927.46 30.16
603 22.0200 854.90 912.13 29.24
604 22.0400 880.00 899.00 29.66
605 22.0600 862.20 887.65 29.36
606 22.0800 846.40 877.75 29.09
607 22.1000 832.60 869.04 28.85
608 22.1200 807.50 861.33 28.42
609 22.1400 763.70 854.44 27.64
610 22.1600 742.70 848.26 27.25
611 22.1800 741.10 842.68 27.22
612 22.2000 751.00 837.60 27.40
613 22.2200 759.40 800.91 27.56
614 22.2400 751.50 798.73 27.41
615 22.2600 748.60 796.68 27.36
616 22.2800 764.20 779.17 27.64
617 22.3000 752.00 778.34 27.42
618 22.3200 752.40 777.51 27.43
619 22.3400 754.70 776.67 27.47
620 22.3600 755.80 775.84 27.49
621 22.3800 770.30 775.00 27.75
622 22.4000 755.70 774.16 27.49
623 22.4200 757.50 773.33 27.52
624 22.4400 776.20 772.48 27.86
625 22.4600 766.30 771.64 27.68
626 22.4800 736.50 770.80 27.14
627 22.5000 743.70 769.96 27.27
628 22.5200 766.10 769.11 27.68
629 22.5400 737.90 768.27 27.16
630 22.5600 745.90 767.42 27.31
631 22.5800 772.20 766.57 27.79
632 22.6000 782.30 765.72 27.97
633 22.6200 734.30 764.87 27.10
634 22.6400 749.10 764.02 27.37
635 22.6600 733.80 763.16 27.09
636 22.6800 724.20 762.31 26.91
637 22.7000 746.60 761.45 27.32
638 22.7200 719.90 760.59 26.83
639 22.7400 713.00 759.73 26.70
640 22.7600 712.70 758.87 26.70
641 22.7800 711.80 758.01 26.68
642 22.8000 710.30 757.15 26.65
643 22.8200 705.10 756.28 26.55
644 22.8400 714.30 755.42 26.73
645 22.8600 739.60 754.55 27.20
646 22.8800 765.50 753.68 27.67
647 22.9000 739.40 752.82 27.19
648 22.9200 748.70 751.95 27.36
649 22.9400 780.70 751.07 27.94
650 22.9600 770.80 750.20 27.76
651 22.9800 767.20 749.33 27.70
652 23.0000 743.70 748.45 27.27
653 23.0200 731.60 747.58 27.05
654 23.0400 777.30 746.70 27.88
655 23.0600 793.80 745.82 28.17
656 23.0800 783.60 744.94 27.99
657 23.1000 769.80 744.06 27.75
658 23.1200 772.10 743.18 27.79
659 23.1400 774.40 742.29 27.83
660 23.1600 759.90 741.41 27.57
661 23.1800 755.00 740.53 27.48
662 23.2000 771.10 739.64 27.77
663 23.2200 781.80 738.75 27.96
664 23.2400 776.10 737.86 27.86
665 23.2600 785.30 736.97 28.02
666 23.2800 807.30 736.08 28.41
667 23.3000 791.30 735.19 28.13
668 23.3200 798.80 734.29 28.26
669 23.3400 759.40 733.40 27.56
670 23.3600 693.60 732.51 26.34
671 23.3800 682.90 731.61 26.13
672 23.4000 719.00 730.71 26.81
673 23.4200 725.80 729.81 26.94
674 23.4400 713.90 728.91 26.72
675 23.4600 710.10 728.01 26.65
676 23.4800 730.10 727.11 27.02
677 23.5000 708.20 726.21 26.61
678 23.5200 689.30 725.30 26.25
679 23.5400 715.90 730.46 26.76
680 23.5600 740.30 729.96 27.21
681 23.5800 753.60 729.51 27.45
682 23.6000 756.20 732.10 27.50
683 23.6200 744.20 731.96 27.28
684 23.6400 684.80 741.28 26.17
685 23.6600 690.50 741.96 26.28
686 23.6800 701.20 742.82 26.48
687 23.7000 711.60 751.73 26.68
688 23.7200 796.90 753.59 28.23
689 23.7400 759.70 760.22 27.56
690 23.7600 745.80 763.16 27.31
691 23.7800 770.20 766.64 27.75
692 23.8000 789.20 770.75 28.09
693 23.8200 754.40 775.63 27.47
694 23.8400 774.70 781.45 27.83
695 23.8600 801.40 788.44 28.31
696 23.8800 739.00 796.89 27.18
697 23.9000 773.10 807.19 27.80
698 23.9200 812.90 819.92 28.51
699 23.9400 836.40 835.86 28.92
700 23.9600 826.30 856.17 28.75
701 23.9800 837.00 882.68 28.93
702 24.0000 891.80 918.51 29.86
703 24.0200 987.80 970.43 31.43
704 24.0400 1119.20 1054.98 33.45
705 24.0600 1254.80 1207.07 35.42
706 24.0800 1532.90 1479.24 39.15
707 24.1000 1869.70 1913.92 43.24
708 24.1200 2278.30 2488.04 47.73
709 24.1400 2976.70 3273.93 54.56
710 24.1600 3599.80 4107.30 60.00
711 24.1800 3962.50 4348.27 62.95
712 24.2000 4207.30 4424.10 64.86
713 24.2200 4841.70 4942.96 69.58
714 24.2400 5906.70 5691.47 76.86
715 24.2600 7161.50 6751.98 84.63
716 24.2800 7937.30 7542.86 89.09
717 24.3000 7168.10 7302.04 84.66
718 24.3200 6223.40 6458.03 78.89
719 24.3400 5282.80 5415.43 72.68
720 24.3600 4212.60 4241.58 64.90
721 24.3800 2883.00 3086.72 53.69
722 24.4000 2105.40 2152.03 45.88
723 24.4200 1584.90 1566.96 39.81
724 24.4400 1316.90 1254.62 36.29
725 24.4600 1264.20 1091.11 35.56
726 24.4800 1107.30 996.21 33.28
727 24.5000 1003.10 933.35 31.67
728 24.5200 916.80 888.02 30.28
729 24.5400 847.80 853.77 29.12
730 24.5600 867.60 827.10 29.45
731 24.5800 809.70 805.83 28.46
732 24.6000 785.80 788.52 28.03
733 24.6200 800.40 774.18 28.29
734 24.6400 782.90 762.14 27.98
735 24.6600 817.60 751.88 28.59
736 24.6800 815.20 743.03 28.55
737 24.7000 784.40 735.33 28.01
738 24.7200 763.00 728.56 27.62
739 24.7400 759.10 722.54 27.55
740 24.7600 772.10 717.17 27.79
741 24.7800 785.50 706.41 28.03
742 24.8000 780.90 702.37 27.94
743 24.8200 776.40 698.69 27.86
744 24.8400 792.60 692.37 28.15
745 24.8600 788.30 689.42 28.08
746 24.8800 742.40 708.13 27.25
747 24.9000 761.40 697.69 27.59
748 24.9200 760.20 692.70 27.57
749 24.9400 743.10 692.91 27.26
750 24.9600 722.40 740.52 26.88
751 24.9800 755.10 742.83 27.48
752 25.0000 754.70 748.28 27.47
753 25.0200 749.80 754.46 27.38
754 25.0400 745.60 761.52 27.31
755 25.0600 733.40 769.59 27.08
756 25.0800 761.50 778.85 27.60
757 25.1000 777.70 789.53 27.89
758 25.1200 776.50 801.90 27.87
759 25.1400 762.80 816.30 27.62
760 25.1600 759.80 833.18 27.56
761 25.1800 808.90 856.16 28.44
762 25.2000 872.20 880.05 29.53
763 25.2200 901.10 908.73 30.02
764 25.2400 917.10 943.50 30.28
765 25.2600 976.20 994.82 31.24
766 25.2800 1050.60 1048.57 32.41
767 25.3000 1118.90 1116.53 33.45
768 25.3200 1195.10 1204.15 34.57
769 25.3400 1319.90 1319.92 36.33
770 25.3600 1524.20 1477.98 39.04
771 25.3800 1836.20 1706.20 42.85
772 25.4000 2332.00 2071.40 48.29
773 25.4200 3166.90 2734.24 56.28
774 25.4400 4493.10 4003.91 67.03
775 25.4600 6528.40 6308.70 80.80
776 25.4800 9852.10 9864.12 99.26
777 25.5000 15129.90 14386.40 123.00
778 25.5200 20571.60 19808.40 143.43
779 25.5400 23985.50 22497.60 154.87
780 25.5600 21512.60 19828.00 146.67
781 25.5800 17611.60 16418.30 132.71
782 25.6000 14356.80 13899.50 119.82
783 25.6200 11010.90 10290.90 104.93
784 25.6400 6439.00 6602.03 80.24
785 25.6600 3981.80 4133.45 63.10
786 25.6800 2633.60 2834.37 51.32
787 25.7000 2043.60 2226.76 45.21
788 25.7200 1880.70 1963.55 43.37
789 25.7400 1821.30 1917.64 42.68
790 25.7600 2038.60 2091.30 45.15
791 25.7800 2339.50 2509.09 48.37
792 25.8000 2668.20 3115.29 51.65
793 25.8200 3327.70 3889.54 57.69
794 25.8400 3548.80 4390.16 59.57
795 25.8600 3428.30 4038.04 58.55
796 25.8800 3055.60 3435.39 55.28
797 25.9000 2642.80 3013.59 51.41
798 25.9200 2184.50 2464.27 46.74
799 25.9400 1728.40 1838.95 41.57
800 25.9600 1329.70 1382.18 36.47
801 25.9800 1089.80 1121.53 33.01
802 26.0000 976.10 985.45 31.24
803 26.0200 883.30 909.02 29.72
804 26.0400 824.80 859.04 28.72
805 26.0600 830.90 822.52 28.83
806 26.0800 822.70 794.28 28.68
807 26.1000 801.50 771.69 28.31
808 26.1200 766.70 753.14 27.69
809 26.1400 720.30 741.26 26.84
810 26.1600 705.80 682.33 26.57
811 26.1800 712.60 673.93 26.69
812 26.2000 704.90 666.76 26.55
813 26.2200 674.90 667.31 25.98
814 26.2400 710.70 640.70 26.66
815 26.2600 674.40 637.76 25.97
816 26.2800 656.30 635.32 25.62
817 26.3000 668.80 633.34 25.86
818 26.3200 638.40 631.76 25.27
819 26.3400 645.10 630.58 25.40
820 26.3600 640.70 629.78 25.31
821 26.3800 629.50 629.36 25.09
822 26.4000 644.70 629.35 25.39
823 26.4200 643.90 629.77 25.38
824 26.4400 649.90 630.68 25.49
825 26.4600 649.60 632.16 25.49
826 26.4800 620.60 627.31 24.91
827 26.5000 628.90 630.67 25.08
828 26.5200 663.90 635.00 25.77
829 26.5400 690.40 637.05 26.28
830 26.5600 679.30 644.47 26.06
831 26.5800 713.60 654.07 26.71
832 26.6000 707.00 666.70 26.59
833 26.6200 719.20 683.66 26.82
834 26.6400 775.90 707.17 27.85
835 26.6600 794.90 741.61 28.19
836 26.6800 838.00 797.37 28.95
837 26.7000 938.00 898.78 30.63
838 26.7200 1113.30 1092.58 33.37
839 26.7400 1388.20 1445.31 37.26
840 26.7600 1861.40 1992.56 43.14
841 26.7800 2459.40 2678.78 49.59
842 26.8000 3065.80 3423.93 55.37
843 26.8200 3429.80 3694.26 58.56
844 26.8400 2968.10 3275.17 54.48
845 26.8600 2549.20 2808.24 50.49
846 26.8800 2218.00 2476.20 47.10
847 26.9000 1892.80 1986.20 43.51
848 26.9200 1351.90 1458.10 36.77
849 26.9400 1021.40 1088.32 31.96
850 26.9600 843.40 883.14 29.04
851 26.9800 740.10 779.12 27.20
852 27.0000 647.20 722.87 25.44
853 27.0200 624.30 687.67 24.99
854 27.0400 616.80 663.04 24.84
855 27.0600 593.70 644.77 24.37
856 27.0800 589.80 630.72 24.29
857 27.1000 564.10 619.62 23.75
858 27.1200 561.50 610.65 23.70
859 27.1400 583.80 603.24 24.16
860 27.1600 556.40 597.03 23.59
861 27.1800 557.80 591.74 23.62
862 27.2000 566.20 587.16 23.80
863 27.2200 573.20 583.16 23.94
864 27.2400 569.40 579.62 23.86
865 27.2600 573.10 576.45 23.94
866 27.2800 564.70 573.59 23.76
867 27.3000 557.40 570.98 23.61
868 27.3200 577.20 568.60 24.02
869 27.3400 560.40 566.39 23.67
870 27.3600 548.10 564.34 23.41
871 27.3800 554.80 562.43 23.55
872 27.4000 591.10 560.62 24.31
873 27.4200 550.70 558.92 23.47
874 27.4400 556.30 557.30 23.59
875 27.4600 552.30 549.18 23.50
876 27.4800 510.40 548.09 22.59
877 27.5000 527.10 547.03 22.96
878 27.5200 568.50 545.99 23.84
879 27.5400 574.10 541.84 23.96
880 27.5600 533.40 541.02 23.10
881 27.5800 521.90 540.20 22.85
882 27.6000 532.70 539.38 23.08
883 27.6200 555.40 538.57 23.57
884 27.6400 571.30 537.76 23.90
885 27.6600 534.00 536.95 23.11
886 27.6800 522.50 536.14 22.86
887 27.7000 542.40 535.34 23.29
888 27.7200 561.70 534.53 23.70
889 27.7400 522.80 533.73 22.86
890 27.7600 503.60 532.93 22.44
891 27.7800 518.40 532.13 22.77
892 27.8000 543.70 531.34 23.32
893 27.8200 552.30 530.54 23.50
894 27.8400 577.50 529.75 24.03
895 27.8600 559.90 528.96 23.66
896 27.8800 539.20 528.17 23.22
897 27.9000 537.80 527.39 23.19
898 27.9200 482.20 526.60 21.96
899 27.9400 484.70 525.82 22.02
900 27.9600 495.70 525.04 22.26
901 27.9800 498.10 524.27 22.32
902 28.0000 520.90 523.49 22.82
903 28.0200 528.80 522.72 23.00
904 28.0400 526.00 521.95 22.93
905 28.0600 514.70 521.18 22.69
906 28.0800 498.00 520.41 22.32
907 28.1000 532.30 519.65 23.07
908 28.1200 539.10 518.88 23.22
909 28.1400 524.80 518.12 22.91
910 28.1600 524.00 517.37 22.89
911 28.1800 485.20 516.61 22.03
912 28.2000 479.10 515.86 21.89
913 28.2200 501.40 515.10 22.39
914 28.2400 539.80 514.36 23.23
915 28.2600 509.40 513.61 22.57
916 28.2800 520.60 512.86 22.82
917 28.3000 531.80 512.12 23.06
918 28.3200 514.00 511.38 22.67
919 28.3400 514.00 510.64 22.67
920 28.3600 498.50 509.91 22.33
921 28.3800 487.30 509.17 22.07
922 28.4000 485.10 508.44 22.02
923 28.4200 462.20 507.71 21.50
924 28.4400 474.70 506.99 21.79
925 28.4600 498.70 506.26 22.33
926 28.4800 515.30 505.54 22.70
927 28.5000 484.80 504.82 22.02
928 28.5200 505.70 504.10 22.49
929 28.5400 524.00 503.39 22.89
930 28.5600 532.90 502.68 23.08
931 28.5800 536.80 501.97 23.17
932 28.6000 514.20 501.26 22.68
933 28.6200 498.80 500.55 22.33
934 28.6400 502.20 499.85 22.41
935 28.6600 534.90 499.15 23.13
936 28.6800 497.00 498.45 22.29
937 28.7000 477.20 497.75 21.84
938 28.7200 465.80 497.06 21.58
939 28.7400 456.90 496.37 21.38
940 28.7600 490.40 495.68 22.15
941 28.7800 493.90 494.99 22.22
942 28.8000 482.10 494.31 21.96
943 28.8200 469.10 493.63 21.66
944 28.8400 495.00 492.95 22.25
945 28.8600 469.90 492.27 21.68
946 28.8800 480.30 491.60 21.92
947 28.9000 527.90 490.92 22.98
948 28.9200 521.80 490.25 22.84
949 28.9400 511.10 489.59 22.61
950 28.9600 509.80 488.92 22.58
951 28.9800 509.90 488.26 22.58
952 29.0000 488.50 487.60 22.10
953 29.0200 515.30 486.94 22.70
954 29.0400 565.80 486.29 23.79
955 29.0600 584.30 485.63 24.17
956 29.0800 499.00 484.98 22.34
957 29.1000 477.70 484.34 21.86
958 29.1200 488.00 483.69 22.09
959 29.1400 503.70 483.05 22.44
960 29.1600 505.00 482.41 22.47
961 29.1800 544.60 481.77 23.34
962 29.2000 524.70 481.14 22.91
963 29.2200 515.50 480.50 22.70
964 29.2400 540.60 479.87 23.25
965 29.2600 491.90 479.24 22.18
966 29.2800 504.50 478.62 22.46
967 29.3000 508.30 478.00 22.55
968 29.3200 495.50 477.38 22.26
969 29.3400 527.50 476.76 22.97
970 29.3600 528.70 476.14 22.99
971 29.3800 510.00 475.53 22.58
972 29.4000 484.40 474.92 22.01
973 29.4200 477.60 474.31 21.85
974 29.4400 500.80 473.71 22.38
975 29.4600 517.90 473.11 22.76
976 29.4800 514.80 472.51 22.69
977 29.5000 476.80 471.91 21.84
978 29.5200 485.70 471.31 22.04
979 29.5400 487.50 470.72 22.08
980 29.5600 485.20 470.13 22.03
981 29.5800 484.20 469.54 22.00
982 29.6000 512.30 468.96 22.63
983 29.6200 487.80 468.51 22.09
984 29.6400 460.70 467.94 21.46
985 29.6600 458.50 467.37 21.41
986 29.6800 463.90 466.81 21.54
987 29.7000 460.20 471.31 21.45
988 29.7200 466.80 481.50 21.61
989 29.7400 482.50 482.38 21.97
990 29.7600 473.40 482.99 21.76
991 29.7800 516.00 483.72 22.72
992 29.8000 529.80 486.08 23.02
993 29.8200 513.50 487.21 22.66
994 29.8400 506.60 488.55 22.51
995 29.8600 483.10 490.12 21.98
996 29.8800 493.50 491.95 22.21
997 29.9000 507.80 494.11 22.53
998 29.9200 472.00 496.64 21.73
999 29.9400 483.60 499.61 21.99
1000 29.9600 496.00 503.12 22.27
1001 29.9800 513.50 507.29 22.66
1002 30.0000 539.60 512.25 23.23
1003 30.0200 527.40 518.20 22.97
1004 30.0400 557.40 525.40 23.61
1005 30.0600 569.20 534.20 23.86
1006 30.0800 537.40 545.04 23.18
1007 30.1000 574.00 558.61 23.96
1008 30.1200 579.60 575.84 24.07
1009 30.1400 597.90 598.15 24.45
1010 30.1600 641.80 627.72 25.33
1011 30.1800 692.00 668.37 26.31
1012 30.2000 771.10 727.83 27.77
1013 30.2200 910.80 823.75 30.18
1014 30.2400 1126.90 995.25 33.57
1015 30.2600 1442.20 1314.82 37.98
1016 30.2800 1959.50 1880.51 44.27
1017 30.3000 2683.10 2731.22 51.80
1018 30.3200 3496.60 3726.40 59.13
1019 30.3400 4208.70 4557.95 64.87
1020 30.3600 4187.30 4621.88 64.71
1021 30.3800 3804.60 4101.97 61.68
1022 30.4000 3325.70 3701.60 57.67
1023 30.4200 3007.60 3487.42 54.84
1024 30.4400 2576.60 3025.28 50.76
1025 30.4600 2001.50 2305.18 44.74
1026 30.4800 1476.00 1693.53 38.42
1027 30.5000 1131.70 1316.57 33.64
1028 30.5200 975.60 1092.14 31.23
1029 30.5400 835.90 917.19 28.91
1030 30.5600 727.70 780.49 26.98
1031 30.5800 649.90 686.91 25.49
1032 30.6000 566.90 627.40 23.81
1033 30.6200 537.80 589.43 23.19
1034 30.6400 531.40 563.52 23.05
1035 30.6600 538.90 544.40 23.21
1036 30.6800 558.00 529.54 23.62
1037 30.7000 508.90 517.61 22.56
1038 30.7200 479.30 507.85 21.89
1039 30.7400 471.00 499.73 21.70
1040 30.7600 467.20 492.87 21.61
1041 30.7800 488.10 487.01 22.09
1042 30.8000 500.90 481.95 22.38
1043 30.8200 502.70 477.55 22.42
1044 30.8400 492.60 473.67 22.19
1045 30.8600 467.50 470.23 21.62
1046 30.8800 471.80 467.16 21.72
1047 30.9000 482.00 464.40 21.95
1048 30.9200 481.50 461.90 21.94
1049 30.9400 475.40 459.64 21.80
1050 30.9600 474.00 457.56 21.77
1051 30.9800 466.80 458.60 21.61
1052 31.0000 456.60 457.01 21.37
1053 31.0200 482.50 455.44 21.97
1054 31.0400 488.90 445.17 22.11
1055 31.0600 478.30 449.70 21.87
1056 31.0800 462.30 449.40 21.50
1057 31.1000 473.70 449.15 21.76
1058 31.1200 473.70 444.66 21.76
1059 31.1400 478.70 443.80 21.88
1060 31.1600 488.00 444.22 22.09
1061 31.1800 495.60 444.75 22.26
1062 31.2000 478.70 445.40 21.88
1063 31.2200 483.60 445.63 21.99
1064 31.2400 505.50 446.61 22.48
1065 31.2600 535.60 447.77 23.14
1066 31.2800 616.30 449.16 24.83
1067 31.3000 672.20 450.82 25.93
1068 31.3200 726.10 452.79 26.95
1069 31.3400 792.50 455.16 28.15
1070 31.3600 829.00 458.02 28.79
1071 31.3800 820.70 461.48 28.65
1072 31.4000 815.40 465.72 28.56
1073 31.4200 818.60 470.94 28.61
1074 31.4400 730.30 477.47 27.02
1075 31.4600 681.70 485.73 26.11
1076 31.4800 642.50 496.36 25.35
1077 31.5000 604.60 510.33 24.59
1078 31.5200 571.10 529.23 23.90
1079 31.5400 621.10 556.03 24.92
1080 31.5600 682.80 597.25 26.13
1081 31.5800 768.00 667.82 27.71
1082 31.6000 923.30 798.23 30.39
1083 31.6200 1090.10 1037.98 33.02
1084 31.6400 1378.10 1433.42 37.12
1085 31.6600 1723.80 1954.34 41.52
1086 31.6800 2037.60 2464.93 45.14
1087 31.7000 2258.60 2682.41 47.52
1088 31.7200 2101.40 2445.47 45.84
1089 31.7400 1820.80 2116.76 42.67
1090 31.7600 1628.80 1918.95 40.36
1091 31.7800 1508.50 1737.05 38.84
1092 31.8000 1257.40 1412.99 35.46
1093 31.8200 988.30 1068.07 31.44
1094 31.8400 766.90 823.89 27.69
1095 31.8600 641.20 677.04 25.32
1096 31.8800 569.00 597.60 23.85
1097 31.9000 548.40 553.43 23.42
1098 31.9200 555.40 528.13 23.57
1099 31.9400 508.20 509.27 22.54
1100 31.9600 504.60 495.46 22.46
1101 31.9800 489.90 485.02 22.13
1102 32.0000 465.80 476.97 21.58
1103 32.0200 456.60 470.68 21.37
1104 32.0400 486.40 465.74 22.05
1105 32.0600 483.50 464.86 21.99
1106 32.0800 463.90 462.00 21.54
1107 32.1000 457.10 459.87 21.38
1108 32.1200 484.10 458.38 22.00
1109 32.1400 466.20 463.75 21.59
1110 32.1600 453.20 463.75 21.29
1111 32.1800 484.20 464.31 22.00
1112 32.2000 468.20 465.46 21.64
1113 32.2200 460.60 467.24 21.46
1114 32.2400 450.20 469.72 21.22
1115 32.2600 437.10 473.00 20.91
1116 32.2800 464.50 477.24 21.55
1117 32.3000 468.80 482.66 21.65
1118 32.3200 486.10 489.56 22.05
1119 32.3400 513.70 498.38 22.67
1120 32.3600 494.70 509.78 22.24
1121 32.3800 504.40 524.74 22.46
1122 32.4000 515.60 544.94 22.71
1123 32.4200 535.20 568.79 23.13
1124 32.4400 591.50 613.36 24.32
1125 32.4600 643.00 689.58 25.36
1126 32.4800 728.70 828.40 26.99
1127 32.5000 901.30 1072.95 30.02
1128 32.5200 1228.00 1458.90 35.04
1129 32.5400 1600.40 1932.11 40.01
1130 32.5600 1936.40 2343.50 44.00
1131 32.5800 2023.70 2427.99 44.99
1132 32.6000 1701.00 2182.46 41.24
1133 32.6200 1536.50 1945.82 39.20
1134 32.6400 1463.70 1833.49 38.26
1135 32.6600 1376.30 1715.92 37.10
1136 32.6800 1226.10 1506.20 35.02
1137 32.7000 1121.00 1358.17 33.48
1138 32.7200 1174.90 1411.89 34.28
1139 32.7400 1414.50 1723.01 37.61
1140 32.7600 1833.10 2247.71 42.81
1141 32.7800 2362.40 2810.89 48.60
1142 32.8000 2608.30 3098.98 51.07
1143 32.8200 2408.20 2864.59 49.07
1144 32.8400 1945.50 2465.43 44.11
1145 32.8600 1748.30 2212.98 41.81
1146 32.8800 1658.00 2037.41 40.72
1147 32.9000 1447.50 1716.87 38.05
1148 32.9200 1141.00 1309.00 33.78
1149 32.9400 812.80 982.37 28.51
1150 32.9600 706.20 775.43 26.57
1151 32.9800 645.90 658.81 25.41
1152 33.0000 578.50 593.77 24.05
1153 33.0200 464.00 554.14 21.54
1154 33.0400 492.10 527.09 22.18
1155 33.0600 481.90 507.17 21.95
1156 33.0800 466.10 493.61 21.59
1157 33.1000 462.10 481.61 21.50
1158 33.1200 442.30 471.95 21.03
1159 33.1400 455.30 464.05 21.34
1160 33.1600 479.50 461.12 21.90
1161 33.1800 492.30 455.84 22.19
1162 33.2000 429.80 451.42 20.73
1163 33.2200 449.50 447.71 21.20
1164 33.2400 462.00 444.58 21.49
1165 33.2600 448.90 441.94 21.19
1166 33.2800 416.10 439.73 20.40
1167 33.3000 402.70 433.59 20.07
1168 33.3200 411.10 432.32 20.28
1169 33.3400 429.80 431.33 20.73
1170 33.3600 439.70 430.62 20.97
1171 33.3800 432.70 428.04 20.80
1172 33.4000 416.60 427.99 20.41
1173 33.4200 410.70 428.22 20.27
1174 33.4400 433.00 428.74 20.81
1175 33.4600 434.60 429.59 20.85
1176 33.4800 444.80 430.83 21.09
1177 33.5000 439.90 432.50 20.97
1178 33.5200 412.40 428.83 20.31
1179 33.5400 440.60 432.01 20.99
1180 33.5600 471.70 436.01 21.72
1181 33.5800 473.90 441.08 21.77
1182 33.6000 444.90 447.58 21.09
1183 33.6200 437.30 453.28 20.91
1184 33.6400 450.00 464.73 21.21
1185 33.6600 489.80 480.50 22.13
1186 33.6800 543.10 503.67 23.30
1187 33.7000 567.50 541.14 23.82
1188 33.7200 629.30 607.79 25.09
1189 33.7400 772.30 730.36 27.79
1190 33.7600 992.50 942.80 31.50
1191 33.7800 1272.80 1255.33 35.68
1192 33.8000 1673.20 1605.25 40.90
1193 33.8200 1851.80 1849.06 43.03
1194 33.8400 1816.30 1806.35 42.62
1195 33.8600 1601.90 1587.03 40.02
1196 33.8800 1365.80 1421.42 36.96
1197 33.9000 1276.70 1334.61 35.73
1198 33.9200 1199.20 1208.96 34.63
1199 33.9400 1039.70 994.17 32.24
1200 33.9600 831.00 786.50 28.83
1201 33.9800 674.20 641.24 25.97
1202 34.0000 573.60 555.09 23.95
1203 34.0200 526.90 507.38 22.95
1204 34.0400 511.60 479.98 22.62
1205 34.0600 521.00 462.49 22.83
1206 34.0800 511.20 450.17 22.61
1207 34.1000 478.30 440.95 21.87
1208 34.1200 444.80 433.82 21.09
1209 34.1400 441.70 428.17 21.02
1210 34.1600 436.30 423.61 20.89
1211 34.1800 426.80 419.87 20.66
1212 34.2000 418.40 416.75 20.45
1213 34.2200 425.90 414.12 20.64
1214 34.2400 433.40 411.88 20.82
1215 34.2600 440.50 409.94 20.99
1216 34.2800 447.80 408.26 21.16
1217 34.3000 428.00 406.79 20.69
1218 34.3200 402.90 405.49 20.07
1219 34.3400 391.20 404.33 19.78
1220 34.3600 404.80 403.29 20.12
1221 34.3800 416.20 402.36 20.40
1222 34.4000 404.60 401.51 20.11
1223 34.4200 392.00 400.74 19.80
1224 34.4400 388.50 400.03 19.71
1225 34.4600 392.30 399.38 19.81
1226 34.4800 384.30 398.79 19.60
1227 34.5000 385.90 398.23 19.64
1228 34.5200 401.80 397.71 20.04
1229 34.5400 426.90 397.23 20.66
1230 34.5600 407.90 393.43 20.20
1231 34.5800 394.80 393.18 19.87
1232 34.6000 390.50 392.94 19.76
1233 34.6200 384.40 392.71 19.61
1234 34.6400 419.80 392.49 20.49
1235 34.6600 422.10 390.67 20.55
1236 34.6800 408.80 390.55 20.22
1237 34.7000 408.00 390.43 20.20
1238 34.7200 417.10 390.31 20.42
1239 34.7400 410.10 390.18 20.25
1240 34.7600 400.40 393.36 20.01
1241 34.7800 399.20 393.42 19.98
1242 34.8000 403.00 393.50 20.07
1243 34.8200 416.00 393.59 20.40
1244 34.8400 409.40 393.70 20.23
1245 34.8600 380.20 400.03 19.50
1246 34.8800 398.50 400.55 19.96
1247 34.9000 382.90 401.13 19.57
1248 34.9200 380.40 401.78 19.50
1249 34.9400 393.80 402.51 19.84
1250 34.9600 381.60 403.32 19.53
1251 34.9800 379.30 404.23 19.48
1252 35.0000 393.00 405.26 19.82
1253 35.0200 410.00 406.42 20.25
1254 35.0400 401.60 407.73 20.04
1255 35.0600 420.10 409.22 20.50
1256 35.0800 403.10 410.92 20.08
1257 35.1000 388.50 412.88 19.71
1258 35.1200 432.60 415.12 20.80
1259 35.1400 411.80 417.72 20.29
1260 35.1600 422.60 420.76 20.56
1261 35.1800 435.90 424.32 20.88
1262 35.2000 427.00 428.53 20.66
1263 35.2200 408.00 433.55 20.20
1264 35.2400 395.10 439.62 19.88
1265 35.2600 413.10 447.01 20.32
1266 35.2800 466.20 456.16 21.59
1267 35.3000 494.40 467.65 22.24
1268 35.3200 500.00 482.34 22.36
1269 35.3400 518.90 501.57 22.78
1270 35.3600 558.50 527.58 23.63
1271 35.3800 601.10 564.80 24.52
1272 35.4000 687.70 622.93 26.22
1273 35.4200 791.40 723.10 28.13
1274 35.4400 939.50 904.89 30.65
1275 35.4600 1204.50 1226.23 34.71
1276 35.4800 1646.60 1719.65 40.58
1277 35.5000 2082.70 2322.35 45.64
1278 35.5200 2436.70 2820.32 49.36
1279 35.5400 2627.90 2893.52 51.26
1280 35.5600 2295.40 2554.28 47.91
1281 35.5800 1970.10 2217.87 44.39
1282 35.6000 1745.60 2051.05 41.78
1283 35.6200 1684.00 1922.86 41.04
1284 35.6400 1527.10 1639.51 39.08
1285 35.6600 1187.50 1265.56 34.46
1286 35.6800 882.20 956.65 29.70
1287 35.7000 723.80 754.07 26.90
1288 35.7200 617.10 636.47 24.84
1289 35.7400 528.60 570.40 22.99
1290 35.7600 470.40 531.03 21.69
1291 35.7800 444.90 505.09 21.09
1292 35.8000 444.10 486.61 21.07
1293 35.8200 433.00 472.88 20.81
1294 35.8400 431.90 462.85 20.78
1295 35.8600 437.60 454.92 20.92
1296 35.8800 431.50 448.90 20.77
1297 35.9000 447.00 444.42 21.14
1298 35.9200 429.70 441.23 20.73
1299 35.9400 410.90 440.60 20.27
1300 35.9600 445.10 441.95 21.10
1301 35.9800 408.90 442.37 20.22
1302 36.0000 394.50 444.05 19.86
1303 36.0200 411.60 447.21 20.29
1304 36.0400 461.40 452.25 21.48
1305 36.0600 415.70 464.81 20.39
1306 36.0800 443.70 476.58 21.06
1307 36.1000 473.60 495.20 21.76
1308 36.1200 475.90 527.09 21.82
1309 36.1400 577.90 584.95 24.04
1310 36.1600 666.30 688.23 25.81
1311 36.1800 822.20 854.90 28.67
1312 36.2000 1063.70 1075.02 32.61
1313 36.2200 1334.00 1283.91 36.52
1314 36.2400 1441.00 1366.44 37.96
1315 36.2600 1364.40 1269.67 36.94
1316 36.2800 1170.80 1130.36 34.22
1317 36.3000 1042.10 1046.49 32.28
1318 36.3200 1043.10 1009.26 32.30
1319 36.3400 962.30 934.44 31.02
1320 36.3600 819.10 804.22 28.62
1321 36.3800 683.50 677.51 26.14
1322 36.4000 603.20 590.80 24.56
1323 36.4200 524.70 540.99 22.91
1324 36.4400 483.60 516.81 21.99
1325 36.4600 513.00 508.07 22.65
1326 36.4800 474.90 509.78 21.79
1327 36.5000 547.80 520.02 23.41
1328 36.5200 630.50 542.44 25.11
1329 36.5400 672.10 584.41 25.92
1330 36.5600 820.60 656.41 28.65
1331 36.5800 1041.20 765.28 32.27
1332 36.6000 1306.90 900.21 36.15
1333 36.6200 1572.40 1027.20 39.65
1334 36.6400 1675.20 1104.92 40.93
1335 36.6600 1688.20 1174.91 41.09
1336 36.6800 1890.50 1351.56 43.48
1337 36.7000 2286.00 1688.65 47.81
1338 36.7200 2699.50 2118.42 51.96
1339 36.7400 3009.20 2445.72 54.86
1340 36.7600 2985.70 2444.82 54.64
1341 36.7800 2692.30 2138.60 51.89
1342 36.8000 2287.90 1842.08 47.83
1343 36.8200 2082.00 1691.45 45.63
1344 36.8400 1948.60 1603.62 44.14
1345 36.8600 1764.40 1422.87 42.00
1346 36.8800 1407.70 1147.63 37.52
1347 36.9000 1075.60 899.98 32.80
1348 36.9200 840.30 728.99 28.99
1349 36.9400 709.40 626.51 26.63
1350 36.9600 674.30 569.20 25.97
1351 36.9800 602.70 537.05 24.55
1352 37.0000 545.10 518.48 23.35
1353 37.0200 523.30 506.30 22.88
1354 37.0400 531.40 503.58 23.05
1355 37.0600 491.80 509.64 22.18
1356 37.0800 515.90 529.32 22.71
1357 37.1000 575.20 569.91 23.98
1358 37.1200 656.10 642.19 25.61
1359 37.1400 740.60 742.90 27.21
1360 37.1600 836.60 844.69 28.92
1361 37.1800 881.10 894.78 29.68
1362 37.2000 860.60 858.75 29.34
1363 37.2200 767.70 792.36 27.71
1364 37.2400 704.40 753.91 26.54
1365 37.2600 709.60 743.39 26.64
1366 37.2800 732.10 727.57 27.06
1367 37.3000 710.30 688.67 26.65
1368 37.3200 646.30 656.00 25.42
1369 37.3400 644.00 657.78 25.38
1370 37.3600 683.90 701.27 26.15
1371 37.3800 747.80 775.93 27.35
1372 37.4000 800.30 857.46 28.29
1373 37.4200 878.30 923.30 29.64
1374 37.4400 973.80 1004.45 31.21
1375 37.4600 1089.10 1150.55 33.00
1376 37.4800 1255.90 1352.12 35.44
1377 37.5000 1399.60 1532.05 37.41
1378 37.5200 1486.10 1610.32 38.55
1379 37.5400 1532.20 1622.74 39.14
1380 37.5600 1621.30 1613.47 40.27
1381 37.5800 1508.60 1525.33 38.84
1382 37.6000 1333.50 1369.82 36.52
1383 37.6200 1152.80 1207.43 33.95
1384 37.6400 1034.00 1072.01 32.16
1385 37.6600 959.60 959.11 30.98
1386 37.6800 849.30 828.09 29.14
1387 37.7000 720.80 696.60 26.85
1388 37.7200 602.80 595.76 24.55
1389 37.7400 529.70 532.02 23.02
1390 37.7600 473.90 491.67 21.77
1391 37.7800 438.00 467.30 20.93
1392 37.8000 421.90 451.74 20.54
1393 37.8200 405.20 440.98 20.13
1394 37.8400 414.70 440.38 20.36
1395 37.8600 423.70 434.84 20.58
1396 37.8800 419.00 430.75 20.47
1397 37.9000 403.00 427.80 20.07
1398 37.9200 414.80 425.77 20.37
1399 37.9400 409.60 424.54 20.24
1400 37.9600 389.80 422.96 19.74
1401 37.9800 410.40 423.16 20.26
1402 38.0000 397.70 424.02 19.94
1403 38.0200 384.00 425.57 19.60
1404 38.0400 377.30 427.86 19.42
1405 38.0600 382.60 430.48 19.56
1406 38.0800 410.00 434.65 20.25
1407 38.1000 402.10 440.06 20.05
1408 38.1200 391.50 447.04 19.79
1409 38.1400 425.80 456.12 20.63
1410 38.1600 451.00 468.16 21.24
1411 38.1800 470.90 484.77 21.70
1412 38.2000 497.10 508.73 22.30
1413 38.2200 540.00 548.56 23.24
1414 38.2400 613.10 616.92 24.76
1415 38.2600 703.20 732.80 26.52
1416 38.2800 856.30 911.57 29.26
1417 38.3000 1090.90 1138.05 33.03
1418 38.3200 1366.60 1346.75 36.97
1419 38.3400 1455.20 1422.33 38.15
1420 38.3600 1387.90 1332.88 37.25
1421 38.3800 1235.00 1219.95 35.14
1422 38.4000 1218.30 1181.01 34.90
1423 38.4200 1318.60 1209.29 36.31
1424 38.4400 1410.10 1248.84 37.55
1425 38.4600 1499.70 1299.35 38.73
1426 38.4800 1654.30 1464.65 40.67
1427 38.5000 2086.30 1827.49 45.68
1428 38.5200 2608.90 2360.54 51.08
1429 38.5400 3067.80 2870.83 55.39
1430 38.5600 3275.00 3035.84 57.23
1431 38.5800 2922.30 2740.83 54.06
1432 38.6000 2543.90 2342.62 50.44
1433 38.6200 2245.10 2117.38 47.38
1434 38.6400 2103.40 2031.84 45.86
1435 38.6600 1961.00 1886.61 44.28
1436 38.6800 1627.60 1568.22 40.34
1437 38.7000 1255.80 1206.85 35.44
1438 38.7200 942.70 923.37 30.70
1439 38.7400 763.00 737.68 27.62
1440 38.7600 668.50 626.97 25.86
1441 38.7800 585.90 562.02 24.21
1442 38.8000 501.60 521.47 22.40
1443 38.8200 463.50 493.70 21.53
1444 38.8400 448.90 473.19 21.19
1445 38.8600 444.80 457.37 21.09
1446 38.8800 444.40 444.81 21.08
1447 38.9000 437.60 434.65 20.92
1448 38.9200 421.00 426.29 20.52
1449 38.9400 408.50 419.31 20.21
1450 38.9600 395.60 413.42 19.89
1451 38.9800 373.50 408.39 19.33
1452 39.0000 416.10 404.05 20.40
1453 39.0200 408.80 400.28 20.22
1454 39.0400 385.40 396.97 19.63
1455 39.0600 381.20 394.15 19.52
1456 39.0800 386.50 391.56 19.66
1457 39.1000 371.40 389.25 19.27
1458 39.1200 358.90 387.17 18.94
1459 39.1400 361.80 383.11 19.02
1460 39.1600 370.20 381.51 19.24
1461 39.1800 398.30 380.10 19.96
1462 39.2000 409.50 378.77 20.24
1463 39.2200 399.20 377.54 19.98
1464 39.2400 406.80 375.34 20.17
1465 39.2600 389.30 374.35 19.73
1466 39.2800 392.40 373.43 19.81
1467 39.3000 407.30 372.57 20.18
1468 39.3200 386.00 371.77 19.65
1469 39.3400 376.40 371.03 19.40
1470 39.3600 371.20 364.29 19.27
1471 39.3800 359.60 363.92 18.96
1472 39.4000 326.10 363.56 18.06
1473 39.4200 381.10 363.65 19.52
1474 39.4400 394.00 363.35 19.85
1475 39.4600 381.00 360.08 19.52
1476 39.4800 364.40 359.96 19.09
1477 39.5000 377.30 359.85 19.42
1478 39.5200 369.00 361.04 19.21
1479 39.5400 369.70 361.01 19.23
1480 39.5600 392.90 361.01 19.82
1481 39.5800 380.70 361.03 19.51
1482 39.6000 383.90 361.08 19.59
1483 39.6200 380.90 361.17 19.52
1484 39.6400 367.70 361.29 19.18
1485 39.6600 365.40 361.48 19.12
1486 39.6800 359.30 361.73 18.96
1487 39.7000 361.20 362.09 19.01
1488 39.7200 368.80 362.58 19.20
1489 39.7400 368.10 363.29 19.19
1490 39.7600 369.40 364.39 19.22
1491 39.7800 389.20 366.21 19.73
1492 39.8000 408.00 369.34 20.20
1493 39.8200 389.70 374.59 19.74
1494 39.8400 411.70 382.49 20.29
1495 39.8600 415.10 392.30 20.37
1496 39.8800 418.90 400.80 20.47
1497 39.9000 444.40 403.13 21.08
1498 39.9200 414.70 398.73 20.36
1499 39.9400 407.10 393.55 20.18
1500 39.9600 410.10 391.37 20.25
1501 39.9800 416.90 391.62 20.42
1502 40.0000 440.50 391.29 20.99
1503 40.0200 441.90 388.61 21.02
1504 40.0400 427.90 385.61 20.69
1505 40.0600 410.40 384.64 20.26
1506 40.0800 434.00 386.23 20.83
1507 40.1000 427.30 390.99 20.67
1508 40.1200 424.10 400.10 20.59
1509 40.1400 441.20 417.70 21.00
1510 40.1600 501.40 447.35 22.39
1511 40.1800 571.80 498.24 23.91
1512 40.2000 646.00 576.65 25.42
1513 40.2200 734.60 676.30 27.10
1514 40.2400 858.00 765.63 29.29
1515 40.2600 929.20 798.77 30.48
1516 40.2800 878.10 750.11 29.63
1517 40.3000 767.80 686.29 27.71
1518 40.3200 675.90 650.73 26.00
1519 40.3400 670.60 639.85 25.90
1520 40.3600 653.60 624.35 25.57
1521 40.3800 613.20 581.51 24.76
1522 40.4000 542.90 522.83 23.30
1523 40.4200 459.10 473.34 21.43
1524 40.4400 414.10 439.70 20.35
1525 40.4600 406.60 419.56 20.16
1526 40.4800 422.60 408.36 20.56
1527 40.5000 389.90 406.72 19.75
1528 40.5200 374.00 403.71 19.34
1529 40.5400 374.60 402.43 19.35
1530 40.5600 379.60 402.39 19.48
1531 40.5800 352.20 403.36 18.77
1532 40.6000 403.40 405.27 20.08
1533 40.6200 410.10 408.16 20.25
1534 40.6400 386.10 412.17 19.65
1535 40.6600 394.50 417.64 19.86
1536 40.6800 399.30 425.20 19.98
1537 40.7000 395.20 435.80 19.88
1538 40.7200 404.00 450.40 20.10
1539 40.7400 451.00 469.59 21.24
1540 40.7600 454.10 491.58 21.31
1541 40.7800 512.40 512.17 22.64
1542 40.8000 560.00 529.11 23.66
1543 40.8200 547.90 546.46 23.41
1544 40.8400 515.90 574.82 22.71
1545 40.8600 612.80 622.71 24.75
1546 40.8800 711.40 700.72 26.67
1547 40.9000 771.40 828.06 27.77
1548 40.9200 926.00 1027.68 30.43
1549 40.9400 1193.30 1323.88 34.54
1550 40.9600 1508.60 1704.03 38.84
1551 40.9800 1847.40 2097.58 42.98
1552 41.0000 2192.40 2424.33 46.82
1553 41.0200 2461.60 2681.78 49.61
1554 41.0400 2629.70 2837.08 51.28
1555 41.0600 2623.40 2763.09 51.22
1556 41.0800 2302.00 2515.23 47.98
1557 41.1000 2039.00 2283.28 45.16
1558 41.1200 2039.50 2141.78 45.16
1559 41.1400 2187.10 2113.26 46.77
1560 41.1600 2310.40 2132.96 48.07
1561 41.1800 2298.10 2172.96 47.94
1562 41.2000 2417.20 2278.18 49.17
1563 41.2200 2524.00 2371.26 50.24
1564 41.2400 2488.20 2272.17 49.88
1565 41.2600 2172.90 1977.01 46.61
1566 41.2800 1854.80 1696.92 43.07
1567 41.3000 1662.20 1550.37 40.77
1568 41.3200 1637.40 1500.78 40.46
1569 41.3400 1615.30 1426.39 40.19
1570 41.3600 1378.80 1247.12 37.13
1571 41.3800 1127.20 1025.83 33.57
1572 41.4000 934.60 842.14 30.57
1573 41.4200 837.10 717.41 28.93
1574 41.4400 704.70 643.04 26.55
1575 41.4600 651.80 603.24 25.53
1576 41.4800 657.60 585.45 25.64
1577 41.5000 631.00 583.50 25.12
1578 41.5200 617.00 597.72 24.84
1579 41.5400 642.80 634.22 25.35
1580 41.5600 696.50 703.31 26.39
1581 41.5800 758.20 814.30 27.54
1582 41.6000 904.80 962.39 30.08
1583 41.6200 1011.00 1109.64 31.80
1584 41.6400 1066.50 1185.59 32.66
1585 41.6600 1065.50 1156.56 32.64
1586 41.6800 1013.70 1097.11 31.84
1587 41.7000 1018.50 1090.44 31.91
1588 41.7200 1102.10 1163.67 33.20
1589 41.7400 1267.20 1311.33 35.60
1590 41.7600 1443.10 1535.09 37.99
1591 41.7800 1735.40 1889.55 41.66
1592 41.8000 2143.60 2429.52 46.30
1593 41.8200 2655.60 3078.36 51.53
1594 41.8400 3224.50 3587.15 56.78
1595 41.8600 3353.00 3694.14 57.91
1596 41.8800 3366.80 3505.47 58.02
1597 41.9000 3297.10 3273.34 57.42
1598 41.9200 3063.30 3052.72 55.35
1599 41.9400 2712.70 2844.96 52.08
1600 41.9600 2454.90 2587.10 49.55
1601 41.9800 2218.70 2234.07 47.10
1602 42.0000 1871.40 1865.68 43.26
1603 42.0200 1648.60 1517.23 40.60
1604 42.0400 1292.20 1195.56 35.95
1605 42.0600 945.90 941.53 30.76
1606 42.0800 746.90 761.97 27.33
1607 42.1000 619.00 648.10 24.88
1608 42.1200 559.70 575.45 23.66
1609 42.1400 519.50 527.70 22.79
1610 42.1600 475.10 494.38 21.80
1611 42.1800 475.80 467.73 21.81
1612 42.2000 449.60 448.53 21.20
1613 42.2200 426.60 433.15 20.65
1614 42.2400 409.60 420.57 20.24
1615 42.2600 363.90 410.11 19.08
1616 42.2800 385.40 401.32 19.63
1617 42.3000 394.50 393.83 19.86
1618 42.3200 382.30 387.40 19.55
1619 42.3400 370.10 381.82 19.24
1620 42.3600 354.50 376.94 18.83
1621 42.3800 368.90 372.64 19.21
1622 42.4000 381.30 368.83 19.53
1623 42.4200 336.30 365.43 18.34
1624 42.4400 344.60 362.38 18.56
1625 42.4600 342.00 359.62 18.49
1626 42.4800 330.80 355.61 18.19
1627 42.5000 316.00 353.41 17.78
1628 42.5200 317.60 351.40 17.82
1629 42.5400 330.00 349.55 18.17
1630 42.5600 332.90 347.86 18.25
1631 42.5800 318.50 346.28 17.85
1632 42.6000 335.30 344.10 18.31
1633 42.6200 337.20 342.77 18.36
1634 42.6400 323.60 341.53 17.99
1635 42.6600 305.40 340.38 17.48
1636 42.6800 334.40 339.29 18.29
1637 42.7000 341.60 332.03 18.48
1638 42.7200 323.70 331.35 17.99
1639 42.7400 302.00 330.69 17.38
1640 42.7600 334.80 327.59 18.30
1641 42.7800 315.40 327.11 17.76
1642 42.8000 329.60 323.49 18.15
1643 42.8200 348.50 323.18 18.67
1644 42.8400 306.60 322.88 17.51
1645 42.8600 310.90 321.33 17.63
1646 42.8800 325.40 321.09 18.04
1647 42.9000 327.50 320.86 18.10
1648 42.9200 297.30 320.62 17.24
1649 42.9400 311.80 320.39 17.66
1650 42.9600 303.00 320.15 17.41
1651 42.9800 299.90 319.91 17.32
1652 43.0000 318.40 319.68 17.84
1653 43.0200 323.80 319.44 17.99
1654 43.0400 332.60 319.21 18.24
1655 43.0600 330.70 318.97 18.19
1656 43.0800 317.80 318.74 17.83
1657 43.1000 323.10 318.51 17.98
1658 43.1200 333.50 318.27 18.26
1659 43.1400 331.10 318.04 18.20
1660 43.1600 321.30 317.80 17.92
1661 43.1800 332.80 317.57 18.24
1662 43.2000 324.50 317.33 18.01
1663 43.2200 307.20 317.17 17.53
1664 43.2400 299.10 316.94 17.29
1665 43.2600 329.60 316.71 18.15
1666 43.2800 312.90 316.48 17.69
1667 43.3000 308.40 316.26 17.56
1668 43.3200 316.00 316.03 17.78
1669 43.3400 330.70 316.54 18.19
1670 43.3600 308.60 317.63 17.57
1671 43.3800 291.90 317.52 17.09
1672 43.4000 285.70 317.41 16.90
1673 43.4200 291.00 317.31 17.06
1674 43.4400 278.10 317.22 16.68
1675 43.4600 317.40 317.15 17.82
1676 43.4800 332.60 317.09 18.24
1677 43.5000 303.80 317.49 17.43
1678 43.5200 309.90 317.49 17.60
1679 43.5400 284.00 317.51 16.85
1680 43.5600 289.70 317.56 17.02
1681 43.5800 320.60 317.63 17.91
1682 43.6000 303.00 319.33 17.41
1683 43.6200 294.30 319.56 17.16
1684 43.6400 298.00 319.83 17.26
1685 43.6600 311.10 321.43 17.64
1686 43.6800 327.10 321.89 18.09
1687 43.7000 328.00 322.45 18.11
1688 43.7200 308.80 323.09 17.57
1689 43.7400 294.60 323.86 17.16
1690 43.7600 314.90 324.77 17.75
1691 43.7800 304.30 325.85 17.44
1692 43.8000 320.50 327.13 17.90
1693 43.8200 337.10 328.67 18.36
1694 43.8400 334.20 330.54 18.28
1695 43.8600 322.80 332.82 17.97
1696 43.8800 322.90 335.62 17.97
1697 43.9000 325.30 339.13 18.04
1698 43.9200 326.90 343.60 18.08
1699 43.9400 333.70 349.46 18.27
1700 43.9600 346.20 357.51 18.61
1701 43.9800 343.80 369.34 18.54
1702 44.0000 346.50 388.15 18.61
1703 44.0200 439.40 419.44 20.96
1704 44.0400 480.30 470.83 21.92
1705 44.0600 559.70 548.98 23.66
1706 44.0800 665.60 652.12 25.80
1707 44.1000 744.00 756.87 27.28
1708 44.1200 811.00 814.27 28.48
1709 44.1400 813.70 789.73 28.53
1710 44.1600 769.90 720.19 27.75
1711 44.1800 708.20 665.71 26.61
1712 44.2000 701.90 648.19 26.49
1713 44.2200 695.80 654.60 26.38
1714 44.2400 690.60 652.51 26.28
1715 44.2600 685.50 626.43 26.18
1716 44.2800 660.40 599.41 25.70
1717 44.3000 621.70 600.89 24.93
1718 44.3200 643.70 646.32 25.37
1719 44.3400 753.70 733.09 27.45
1720 44.3600 877.10 834.63 29.62
1721 44.3800 988.20 918.95 31.44
1722 44.4000 1042.60 975.36 32.29
1723 44.4200 1049.30 1016.43 32.39
1724 44.4400 1089.60 1023.67 33.01
1725 44.4600 979.50 974.19 31.30
1726 44.4800 896.80 896.70 29.95
1727 44.5000 847.60 822.08 29.11
1728 44.5200 775.20 762.53 27.84
1729 44.5400 734.70 718.11 27.11
1730 44.5600 680.20 666.55 26.08
1731 44.5800 605.10 594.62 24.60
1732 44.6000 506.10 520.63 22.50
1733 44.6200 433.50 461.84 20.82
1734 44.6400 397.10 421.30 19.93
1735 44.6600 386.40 395.54 19.66
1736 44.6800 389.70 379.80 19.74
1737 44.7000 382.80 370.18 19.57
1738 44.7200 366.40 364.17 19.14
1739 44.7400 342.10 360.45 18.50
1740 44.7600 320.60 358.38 17.91
1741 44.7800 370.80 357.66 19.26
1742 44.8000 390.70 358.17 19.77
1743 44.8200 387.40 359.90 19.68
1744 44.8400 374.30 362.94 19.35
1745 44.8600 393.30 367.47 19.83
1746 44.8800 384.20 373.82 19.60
1747 44.9000 379.70 382.48 19.49
1748 44.9200 383.80 394.33 19.59
1749 44.9400 391.40 410.86 19.78
1750 44.9600 434.00 435.10 20.83
1751 44.9800 508.80 473.08 22.56
1752 45.0000 604.00 535.04 24.58
1753 45.0200 703.10 640.34 26.52
1754 45.0400 881.20 807.73 29.68
1755 45.0600 1071.10 1045.93 32.73
1756 45.0800 1293.10 1328.48 35.96
1757 45.1000 1557.10 1561.88 39.46
1758 45.1200 1655.30 1622.76 40.69
1759 45.1400 1584.90 1517.13 39.81
1760 45.1600 1458.90 1386.49 38.20
1761 45.1800 1351.00 1311.49 36.76
1762 45.2000 1311.40 1278.76 36.21
1763 45.2200 1269.30 1237.82 35.63
1764 45.2400 1200.20 1137.17 34.64
1765 45.2600 1088.30 981.27 32.99
1766 45.2800 906.30 829.34 30.10
1767 45.3000 787.10 707.02 28.06
1768 45.3200 655.60 605.51 25.60
1769 45.3400 531.00 524.29 23.04
1770 45.3600 499.80 464.22 22.36
1771 45.3800 433.90 422.27 20.83
1772 45.4000 405.10 394.28 20.13
1773 45.4200 389.00 375.37 19.72
1774 45.4400 336.50 361.66 18.34
1775 45.4600 352.80 352.12 18.78
1776 45.4800 361.50 344.88 19.01
1777 45.5000 357.20 339.21 18.90
1778 45.5200 338.30 334.69 18.39
1779 45.5400 349.00 331.08 18.68
1780 45.5600 348.70 328.18 18.67
1781 45.5800 338.30 325.89 18.39
1782 45.6000 321.60 324.13 17.93
1783 45.6200 328.50 322.85 18.12
1784 45.6400 324.10 322.02 18.00
1785 45.6600 318.60 321.64 17.85
1786 45.6800 316.40 321.75 17.79
1787 45.7000 318.60 322.40 17.85
1788 45.7200 323.50 323.71 17.99
1789 45.7400 321.20 325.85 17.92
1790 45.7600 317.90 329.14 17.83
1791 45.7800 336.20 334.24 18.34
1792 45.8000 355.90 344.60 18.87
1793 45.8200 351.00 358.48 18.74
1794 45.8400 348.90 381.92 18.68
1795 45.8600 399.20 419.83 19.98
1796 45.8800 492.00 475.60 22.18
1797 45.9000 595.30 545.64 24.40
1798 45.9200 682.90 615.15 26.13
1799 45.9400 728.00 641.40 26.98
1800 45.9600 686.10 615.97 26.19
1801 45.9800 598.20 573.63 24.46
1802 46.0000 539.50 548.49 23.23
1803 46.0200 555.10 551.69 23.56
1804 46.0400 591.70 578.61 24.32
1805 46.0600 581.80 602.11 24.12
1806 46.0800 551.90 598.60 23.49
1807 46.1000 509.30 567.35 22.57
1808 46.1200 436.20 516.16 20.89
1809 46.1400 399.30 467.83 19.98
1810 46.1600 370.70 437.53 19.25
1811 46.1800 351.20 424.01 18.74
1812 46.2000 361.90 418.72 19.02
1813 46.2200 334.40 410.67 18.29
1814 46.2400 332.50 394.68 18.23
1815 46.2600 343.30 376.41 18.53
1816 46.2800 329.60 361.53 18.15
1817 46.3000 338.50 351.59 18.40
1818 46.3200 352.30 346.06 18.77
1819 46.3400 358.70 343.81 18.94
1820 46.3600 345.40 343.85 18.58
1821 46.3800 308.90 345.55 17.58
1822 46.4000 308.20 348.62 17.56
1823 46.4200 328.60 353.04 18.13
1824 46.4400 356.50 358.95 18.88
1825 46.4600 363.40 366.60 19.06
1826 46.4800 370.20 376.43 19.24
1827 46.5000 376.70 389.10 19.41
1828 46.5200 386.20 405.65 19.65
1829 46.5400 416.70 427.93 20.41
1830 46.5600 463.50 459.51 21.53
1831 46.5800 510.20 507.51 22.59
1832 46.6000 559.70 585.06 23.66
1833 46.6200 633.50 712.77 25.17
1834 46.6400 901.70 915.12 30.03
1835 46.6600 1189.70 1207.75 34.49
1836 46.6800 1535.80 1568.51 39.19
1837 46.7000 2059.00 1893.98 45.38
1838 46.7200 2203.80 2010.83 46.94
1839 46.7400 2056.50 1862.41 45.35
1840 46.7600 1738.50 1620.98 41.70
1841 46.7800 1393.20 1462.77 37.33
1842 46.8000 1417.60 1443.93 37.65
1843 46.8200 1523.40 1525.79 39.03
1844 46.8400 1626.40 1607.85 40.33
1845 46.8600 1651.70 1619.82 40.64
1846 46.8800 1472.00 1581.13 38.37
1847 46.9000 1312.40 1496.83 36.23
1848 46.9200 1153.20 1333.06 33.96
1849 46.9400 986.00 1128.62 31.40
1850 46.9600 816.20 964.02 28.57
1851 46.9800 751.40 873.93 27.41
1852 47.0000 710.70 843.34 26.66
1853 47.0200 679.70 826.19 26.07
1854 47.0400 688.90 770.98 26.25
1855 47.0600 620.50 675.24 24.91
1856 47.0800 515.50 575.68 22.70
1857 47.1000 415.50 495.79 20.38
1858 47.1200 389.60 438.97 19.74
1859 47.1400 393.00 401.49 19.82
1860 47.1600 368.80 377.07 19.20
1861 47.1800 332.60 360.61 18.24
1862 47.2000 309.00 348.77 17.58
1863 47.2200 331.80 340.08 18.22
1864 47.2400 325.40 332.88 18.04
1865 47.2600 319.20 326.98 17.87
1866 47.2800 333.70 322.06 18.27
1867 47.3000 311.60 317.90 17.65
1868 47.3200 306.00 314.34 17.49
1869 47.3400 307.00 311.63 17.52
1870 47.3600 310.70 308.96 17.63
1871 47.3800 325.20 306.63 18.03
1872 47.4000 307.10 304.58 17.52
1873 47.4200 300.80 302.75 17.34
1874 47.4400 307.80 301.13 17.54
1875 47.4600 285.00 300.54 16.88
1876 47.4800 294.60 299.29 17.16
1877 47.5000 309.90 298.17 17.60
1878 47.5200 316.80 297.18 17.80
1879 47.5400 295.50 296.30 17.19
1880 47.5600 308.20 295.52 17.56
1881 47.5800 294.70 294.84 17.17
1882 47.6000 277.20 294.25 16.65
1883 47.6200 290.90 293.75 17.06
1884 47.6400 309.90 289.34 17.60
1885 47.6600 290.70 289.18 17.05
1886 47.6800 270.30 289.10 16.44
1887 47.7000 279.20 289.11 16.71
1888 47.7200 282.20 289.22 16.80
1889 47.7400 300.40 289.45 17.33
1890 47.7600 307.20 287.81 17.53
1891 47.7800 294.90 288.41 17.17
1892 47.8000 311.60 289.20 17.65
1893 47.8200 285.80 288.34 16.91
1894 47.8400 278.90 289.80 16.70
1895 47.8600 300.50 291.75 17.33
1896 47.8800 308.80 294.49 17.57
1897 47.9000 309.30 298.58 17.59
1898 47.9200 309.00 305.07 17.58
1899 47.9400 317.70 315.46 17.82
1900 47.9600 355.10 330.61 18.84
1901 47.9800 383.30 353.34 19.58
1902 48.0000 410.70 380.83 20.27
1903 48.0200 435.40 405.78 20.87
1904 48.0400 453.70 414.62 21.30
1905 48.0600 437.50 404.63 20.92
1906 48.0800 420.80 388.52 20.51
1907 48.1000 408.90 378.85 20.22
1908 48.1200 405.10 380.04 20.13
1909 48.1400 383.00 390.63 19.57
1910 48.1600 409.20 407.36 20.23
1911 48.1800 462.00 425.80 21.49
1912 48.2000 520.60 451.81 22.82
1913 48.2200 525.90 493.24 22.93
1914 48.2400 602.30 545.17 24.54
1915 48.2600 646.90 584.78 25.43
1916 48.2800 631.70 583.28 25.13
1917 48.3000 593.60 543.08 24.36
1918 48.3200 544.50 496.93 23.33
1919 48.3400 513.20 467.84 22.65
1920 48.3600 499.20 459.56 22.34
1921 48.3800 487.10 461.58 22.07
1922 48.4000 474.20 454.90 21.78
1923 48.4200 438.90 429.22 20.95
1924 48.4400 399.50 394.28 19.99
1925 48.4600 387.30 362.74 19.68
1926 48.4800 351.40 339.29 18.75
1927 48.5000 327.40 323.67 18.09
1928 48.5200 323.40 313.97 17.98
1929 48.5400 342.90 308.13 18.52
1930 48.5600 310.90 304.80 17.63
1931 48.5800 297.10 302.71 17.24
1932 48.6000 298.00 301.57 17.26
1933 48.6200 307.40 301.14 17.53
1934 48.6400 290.60 301.32 17.05
1935 48.6600 304.90 302.08 17.46
1936 48.6800 308.40 303.45 17.56
1937 48.7000 295.70 305.57 17.20
1938 48.7200 313.30 308.36 17.70
1939 48.7400 337.20 312.10 18.36
1940 48.7600 342.10 317.05 18.50
1941 48.7800 334.50 323.66 18.29
1942 48.8000 345.90 334.04 18.60
1943 48.8200 353.20 347.06 18.79
1944 48.8400 364.10 366.85 19.08
1945 48.8600 402.20 398.48 20.05
1946 48.8800 503.50 449.62 22.44
1947 48.9000 564.30 529.48 23.75
1948 48.9200 677.40 644.36 26.03
1949 48.9400 829.60 790.10 28.80
1950 48.9600 1001.50 929.30 31.65
1951 48.9800 1134.00 1005.25 33.67
1952 49.0000 1142.70 985.70 33.80
1953 49.0200 1054.60 894.09 32.47
1954 49.0400 901.50 798.66 30.02
1955 49.0600 803.20 743.03 28.34
1956 49.0800 802.20 728.73 28.32
1957 49.1000 813.10 725.91 28.51
1958 49.1200 793.80 697.91 28.17
1959 49.1400 711.60 633.26 26.68
1960 49.1600 634.40 551.59 25.19
1961 49.1800 547.90 477.56 23.41
1962 49.2000 459.80 421.95 21.44
1963 49.2200 401.10 383.72 20.03
1964 49.2400 378.60 359.95 19.46
1965 49.2600 352.80 345.29 18.78
1966 49.2800 326.70 336.18 18.07
1967 49.3000 314.50 330.46 17.73
1968 49.3200 306.70 326.96 17.51
1969 49.3400 309.90 324.80 17.60
1970 49.3600 313.00 324.53 17.69
1971 49.3800 303.80 325.94 17.43
1972 49.4000 293.90 329.52 17.14
1973 49.4200 306.00 336.10 17.49
1974 49.4400 321.70 346.65 17.94
1975 49.4600 328.70 361.81 18.13
1976 49.4800 337.90 381.88 18.38
1977 49.5000 375.60 400.38 19.38
1978 49.5200 390.70 411.27 19.77
1979 49.5400 375.00 411.94 19.36
1980 49.5600 404.00 409.55 20.10
1981 49.5800 387.60 412.54 19.69
1982 49.6000 386.30 427.77 19.65
1983 49.6200 412.10 452.32 20.30
1984 49.6400 452.50 489.66 21.27
1985 49.6600 534.70 543.23 23.12
1986 49.6800 607.90 623.12 24.66
1987 49.7000 725.80 742.95 26.94
1988 49.7200 1000.80 908.06 31.64
1989 49.7400 1282.90 1101.27 35.82
1990 49.7600 1469.70 1279.26 38.34
1991 49.7800 1563.20 1415.60 39.54
1992 49.8000 1576.30 1516.88 39.70
1993 49.8200 1613.70 1553.10 40.17
1994 49.8400 1533.30 1482.11 39.16
1995 49.8600 1411.10 1349.82 37.56
1996 49.8800 1307.70 1230.35 36.16
1997 49.9000 1246.00 1142.76 35.30
1998 49.9200 1104.70 1084.43 33.24
1999 49.9400 1007.30 1042.88 31.74
2000 49.9600 985.10 977.62 31.39
2001 49.9800 886.90 864.80 29.78
2002 50.0000 733.20 732.50 27.08
2003 50.0200 592.20 615.60 24.34
2004 50.0400 491.60 528.54 22.17
2005 50.0600 458.10 470.42 21.40
2006 50.0800 409.20 434.87 20.23
2007 50.1000 382.30 413.85 19.55
2008 50.1200 375.60 399.05 19.38
2009 50.1400 374.10 386.08 19.34
2010 50.1600 358.30 375.03 18.93
2011 50.1800 352.00 367.15 18.76
2012 50.2000 352.20 362.93 18.77
2013 50.2200 353.00 362.35 18.79
2014 50.2400 355.30 365.47 18.85
2015 50.2600 378.50 372.77 19.46
2016 50.2800 411.00 385.71 20.27
2017 50.3000 442.70 407.55 21.04
2018 50.3200 470.90 444.32 21.70
2019 50.3400 565.80 505.30 23.79
2020 50.3600 677.40 601.44 26.03
2021 50.3800 791.40 740.40 28.13
2022 50.4000 974.20 915.57 31.21
2023 50.4200 1111.30 1086.54 33.34
2024 50.4400 1193.90 1172.38 34.55
2025 50.4600 1201.00 1121.21 34.66
2026 50.4800 1070.00 990.21 32.71
2027 50.5000 939.60 871.75 30.65
2028 50.5200 865.00 809.82 29.41
2029 50.5400 850.40 803.39 29.16
2030 50.5600 884.60 817.78 29.74
2031 50.5800 826.70 800.47 28.75
2032 50.6000 760.10 731.06 27.57
2033 50.6200 665.80 642.55 25.80
2034 50.6400 511.20 571.15 22.61
2035 50.6600 504.00 529.90 22.45
2036 50.6800 485.40 515.61 22.03
2037 50.7000 469.40 513.59 21.67
2038 50.7200 466.90 501.65 21.61
2039 50.7400 446.30 473.50 21.13
2040 50.7600 408.30 439.31 20.21
2041 50.7800 372.60 410.33 19.30
2042 50.8000 351.70 396.03 18.75
2043 50.8200 357.80 391.79 18.92
2044 50.8400 373.00 389.76 19.31
2045 50.8600 367.10 379.80 19.16
2046 50.8800 338.40 361.58 18.40
2047 50.9000 317.80 341.00 17.83
2048 50.9200 307.80 322.23 17.54
2049 50.9400 311.10 309.02 17.64
2050 50.9600 315.20 299.66 17.75
2051 50.9800 290.90 293.36 17.06
2052 51.0000 261.60 289.00 16.17
2053 51.0200 268.60 285.82 16.39
2054 51.0400 282.10 283.36 16.80
2055 51.0600 255.40 281.38 15.98
2056 51.0800 274.50 279.67 16.57
2057 51.1000 281.00 278.27 16.76
2058 51.1200 281.00 277.06 16.76
2059 51.1400 281.50 276.00 16.78
2060 51.1600 292.10 275.07 17.09
2061 51.1800 272.70 274.24 16.51
2062 51.2000 264.90 273.51 16.28
2063 51.2200 287.00 272.84 16.94
2064 51.2400 296.90 272.23 17.23
2065 51.2600 267.60 271.69 16.36
2066 51.2800 258.70 271.18 16.08
2067 51.3000 274.30 270.72 16.56
2068 51.3200 246.10 270.29 15.69
2069 51.3400 230.30 269.90 15.18
2070 51.3600 238.40 269.53 15.44
2071 51.3800 258.10 269.19 16.07
2072 51.4000 254.30 268.87 15.95
2073 51.4200 263.80 266.42 16.24
2074 51.4400 290.00 266.22 17.03
2075 51.4600 316.20 266.03 17.78
2076 51.4800 317.00 265.99 17.80
2077 51.5000 301.40 265.83 17.36
2078 51.5200 292.00 265.67 17.09
2079 51.5400 287.50 265.52 16.96
2080 51.5600 285.50 264.33 16.90
2081 51.5800 272.60 264.24 16.51
2082 51.6000 282.20 264.15 16.80
2083 51.6200 298.30 264.40 17.27
2084 51.6400 308.90 264.64 17.58
2085 51.6600 297.50 264.59 17.25
2086 51.6800 298.00 264.54 17.26
2087 51.7000 305.40 264.11 17.48
2088 51.7200 316.60 264.09 17.79
2089 51.7400 326.50 264.07 18.07
2090 51.7600 350.50 264.06 18.72
2091 51.7800 344.00 264.59 18.55
2092 51.8000 310.00 264.61 17.61
2093 51.8200 282.60 264.64 16.81
2094 51.8400 266.20 264.49 16.32
2095 51.8600 271.70 264.60 16.48
2096 51.8800 284.50 264.66 16.87
2097 51.9000 279.20 264.74 16.71
2098 51.9200 277.50 264.83 16.66
2099 51.9400 266.00 264.93 16.31
2100 51.9600 254.00 265.05 15.94
2101 51.9800 251.70 265.18 15.87
2102 52.0000 275.30 265.60 16.59
2103 52.0200 258.60 265.79 16.08
2104 52.0400 243.30 266.01 15.60
2105 52.0600 253.30 266.26 15.92
2106 52.0800 256.30 266.55 16.01
2107 52.1000 250.50 266.88 15.83
2108 52.1200 249.90 267.27 15.81
2109 52.1400 258.40 267.87 16.07
2110 52.1600 267.50 268.40 16.36
2111 52.1800 249.90 269.03 15.81
2112 52.2000 241.00 269.77 15.52
2113 52.2200 248.30 270.67 15.76
2114 52.2400 268.90 271.74 16.40
2115 52.2600 261.40 273.06 16.17
2116 52.2800 253.00 275.33 15.91
2117 52.3000 252.10 277.48 15.88
2118 52.3200 267.40 281.05 16.35
2119 52.3400 273.10 285.19 16.53
2120 52.3600 295.20 291.35 17.18
2121 52.3800 316.00 300.72 17.78
2122 52.4000 316.50 314.64 17.79
2123 52.4200 340.10 334.10 18.44
2124 52.4400 367.40 358.74 19.17
2125 52.4600 405.40 383.68 20.13
2126 52.4800 458.00 400.15 21.40
2127 52.5000 520.50 403.86 22.81
2128 52.5200 478.30 399.77 21.87
2129 52.5400 432.50 402.62 20.80
2130 52.5600 432.40 420.51 20.79
2131 52.5800 506.30 454.64 22.50
2132 52.6000 573.20 497.57 23.94
2133 52.6200 630.50 529.98 25.11
2134 52.6400 660.00 531.86 25.69
2135 52.6600 610.50 499.42 24.71
2136 52.6800 501.40 458.23 22.39
2137 52.7000 445.00 427.17 21.09
2138 52.7200 439.20 412.57 20.96
2139 52.7400 451.40 412.26 21.25
2140 52.7600 472.30 417.76 21.73
2141 52.7800 481.00 418.11 21.93
2142 52.8000 458.10 410.42 21.40
2143 52.8200 385.30 401.65 19.63
2144 52.8400 408.90 396.48 20.22
2145 52.8600 397.90 391.84 19.95
2146 52.8800 371.70 381.98 19.28
2147 52.9000 347.50 367.55 18.64
2148 52.9200 355.20 354.56 18.85
2149 52.9400 322.30 347.07 17.95
2150 52.9600 305.10 345.95 17.47
2151 52.9800 324.50 349.94 18.01
2152 53.0000 351.20 356.07 18.74
2153 53.0200 359.10 361.60 18.95
2154 53.0400 355.20 367.98 18.85
2155 53.0600 351.50 380.50 18.75
2156 53.0800 379.60 404.06 19.48
2157 53.1000 415.90 441.11 20.39
2158 53.1200 471.30 489.68 21.71
2159 53.1400 531.70 541.10 23.06
2160 53.1600 566.00 583.50 23.79
2161 53.1800 641.10 605.32 25.32
2162 53.2000 665.70 598.76 25.80
2163 53.2200 649.50 572.44 25.49
2164 53.2400 612.90 549.77 24.76
2165 53.2600 589.30 546.14 24.28
2166 53.2800 620.90 562.68 24.92
2167 53.3000 664.30 592.58 25.77
2168 53.3200 684.70 624.85 26.17
2169 53.3400 679.30 647.52 26.06
2170 53.3600 682.60 650.97 26.13
2171 53.3800 691.30 640.57 26.29
2172 53.4000 707.10 639.01 26.59
2173 53.4200 748.20 671.09 27.35
2174 53.4400 800.50 750.24 28.29
2175 53.4600 904.30 874.78 30.07
2176 53.4800 1049.60 1018.47 32.40
2177 53.5000 1160.80 1119.09 34.07
2178 53.5200 1125.20 1108.74 33.54
2179 53.5400 1028.90 998.55 32.08
2180 53.5600 899.60 866.29 29.99
2181 53.5800 764.10 769.27 27.64
2182 53.6000 708.80 724.62 26.62
2183 53.6200 702.80 721.93 26.51
2184 53.6400 720.50 728.19 26.84
2185 53.6600 731.90 702.89 27.05
2186 53.6800 648.00 634.62 25.46
2187 53.7000 575.40 550.09 23.99
2188 53.7200 493.50 474.48 22.21
2189 53.7400 390.90 416.65 19.77
2190 53.7600 370.30 376.12 19.24
2191 53.7800 339.60 348.88 18.43
2192 53.8000 332.40 331.13 18.23
2193 53.8200 351.90 319.19 18.76
2194 53.8400 299.40 310.79 17.30
2195 53.8600 308.60 304.63 17.57
2196 53.8800 302.30 299.82 17.39
2197 53.9000 272.20 296.36 16.50
2198 53.9200 279.10 293.84 16.71
2199 53.9400 278.70 292.16 16.69
2200 53.9600 283.50 291.30 16.84
2201 53.9800 286.50 291.34 16.93
2202 54.0000 267.40 292.48 16.35
2203 54.0200 275.20 295.13 16.59
2204 54.0400 291.60 300.37 17.08
2205 54.0600 312.10 309.59 17.67
2206 54.0800 332.70 324.74 18.24
2207 54.1000 344.30 347.75 18.56
2208 54.1200 373.60 379.30 19.33
2209 54.1400 421.80 416.34 20.54
2210 54.1600 483.70 447.97 21.99
2211 54.1800 454.70 458.10 21.32
2212 54.2000 431.40 440.53 20.77
2213 54.2200 408.40 411.08 20.21
2214 54.2400 385.90 385.85 19.64
2215 54.2600 385.20 372.06 19.63
2216 54.2800 366.20 369.74 19.14
2217 54.3000 353.60 373.10 18.80
2218 54.3200 355.80 372.29 18.86
2219 54.3400 372.60 359.77 19.30
2220 54.3600 335.30 339.49 18.31
2221 54.3800 299.50 318.56 17.31
2222 54.4000 277.40 301.65 16.66
2223 54.4200 270.60 289.27 16.45
2224 54.4400 256.70 280.75 16.02
2225 54.4600 250.50 275.04 15.83
2226 54.4800 244.50 271.18 15.64
2227 54.5000 225.40 268.45 15.01
2228 54.5200 227.20 264.30 15.07
2229 54.5400 243.70 262.76 15.61
2230 54.5600 260.10 261.52 16.13
2231 54.5800 262.90 260.67 16.21
2232 54.6000 260.60 259.81 16.14
2233 54.6200 242.30 259.07 15.57
2234 54.6400 231.80 258.43 15.23
2235 54.6600 240.90 257.88 15.52
2236 54.6800 250.00 256.47 15.81
2237 54.7000 241.80 256.07 15.55
2238 54.7200 235.70 255.81 15.35
2239 54.7400 238.90 255.50 15.46
2240 54.7600 251.10 255.23 15.85
2241 54.7800 258.80 254.99 16.09
2242 54.8000 252.20 254.77 15.88
2243 54.8200 242.00 254.58 15.56
2244 54.8400 260.30 254.41 16.13
2245 54.8600 237.80 254.30 15.42
2246 54.8800 230.20 254.18 15.17
2247 54.9000 237.40 254.09 15.41
2248 54.9200 249.60 254.02 15.80
2249 54.9400 272.10 253.98 16.50
2250 54.9600 261.50 253.96 16.17
2251 54.9800 239.60 253.99 15.48
2252 55.0000 230.50 254.07 15.18
2253 55.0200 245.70 254.19 15.67
2254 55.0400 253.30 254.37 15.92
2255 55.0600 252.00 254.65 15.87
2256 55.0800 242.30 255.04 15.57
2257 55.1000 234.70 255.63 15.32
2258 55.1200 227.70 256.60 15.09
2259 55.1400 231.80 258.01 15.23
2260 55.1600 246.90 260.25 15.71
2261 55.1800 253.00 263.69 15.91
2262 55.2000 235.50 268.21 15.35
2263 55.2200 225.00 274.83 15.00
2264 55.2400 234.20 282.27 15.30
2265 55.2600 277.60 288.25 16.66
2266 55.2800 251.20 290.34 15.85
2267 55.3000 244.10 286.77 15.62
2268 55.3200 249.90 281.31 15.81
2269 55.3400 238.50 276.94 15.44
2270 55.3600 246.00 276.65 15.68
2271 55.3800 242.60 276.98 15.58
2272 55.4000 244.40 279.12 15.63
2273 55.4200 268.70 280.23 16.39
2274 55.4400 253.40 279.30 15.92
2275 55.4600 250.10 277.26 15.81
2276 55.4800 252.50 275.93 15.89
2277 55.5000 256.30 276.67 16.01
2278 55.5200 260.10 280.36 16.13
2279 55.5400 283.80 287.61 16.85
2280 55.5600 309.70 298.50 17.60
2281 55.5800 331.60 312.02 18.21
2282 55.6000 356.70 324.45 18.89
2283 55.6200 376.80 329.81 19.41
2284 55.6400 374.60 325.12 19.35
2285 55.6600 346.30 314.85 18.61
2286 55.6800 293.70 305.31 17.14
2287 55.7000 288.70 300.37 16.99
2288 55.7200 304.00 299.36 17.44
2289 55.7400 327.40 301.46 18.09
2290 55.7600 344.20 303.51 18.55
2291 55.7800 309.50 302.22 17.59
2292 55.8000 298.90 297.54 17.29
2293 55.8200 304.50 292.26 17.45
2294 55.8400 312.00 291.03 17.66
2295 55.8600 309.70 290.06 17.60
2296 55.8800 290.30 289.97 17.04
2297 55.9000 275.20 290.09 16.59
2298 55.9200 279.80 289.80 16.73
2299 55.9400 305.00 289.72 17.46
2300 55.9600 289.00 290.71 17.00
2301 55.9800 280.50 293.26 16.75
2302 56.0000 295.30 297.58 17.18
2303 56.0200 297.60 305.22 17.25
2304 56.0400 311.80 313.52 17.66
2305 56.0600 316.10 324.35 17.78
2306 56.0800 309.60 339.48 17.60
2307 56.1000 307.30 360.89 17.53
2308 56.1200 374.20 391.43 19.34
2309 56.1400 410.90 433.13 20.27
2310 56.1600 428.50 486.13 20.70
2311 56.1800 477.20 548.58 21.84
2312 56.2000 520.20 621.52 22.81
2313 56.2200 589.80 708.19 24.29
2314 56.2400 683.50 801.05 26.14
2315 56.2600 795.40 877.00 28.20
2316 56.2800 879.10 919.05 29.65
2317 56.3000 940.30 917.60 30.66
2318 56.3200 936.00 870.94 30.59
2319 56.3400 836.80 800.98 28.93
2320 56.3600 679.90 738.96 26.07
2321 56.3800 623.20 701.76 24.96
2322 56.4000 620.00 684.55 24.90
2323 56.4200 641.10 672.77 25.32
2324 56.4400 649.40 654.20 25.48
2325 56.4600 628.10 619.45 25.06
2326 56.4800 583.90 568.20 24.16
2327 56.5000 523.00 512.42 22.87
2328 56.5200 459.10 464.77 21.43
2329 56.5400 427.70 431.47 20.68
2330 56.5600 394.60 412.39 19.86
2331 56.5800 368.50 406.96 19.20
2332 56.6000 378.40 414.78 19.45
2333 56.6200 455.20 437.30 21.34
2334 56.6400 543.30 478.39 23.31
2335 56.6600 612.40 543.68 24.75
2336 56.6800 629.90 638.48 25.10
2337 56.7000 769.50 760.75 27.74
2338 56.7200 936.70 891.83 30.61
2339 56.7400 1076.80 986.50 32.81
2340 56.7600 1135.80 996.93 33.70
2341 56.7800 973.60 931.61 31.20
2342 56.8000 892.90 850.09 29.88
2343 56.8200 834.80 802.36 28.89
2344 56.8400 789.20 810.15 28.09
2345 56.8600 892.80 873.64 29.88
2346 56.8800 1023.30 971.87 31.99
2347 56.9000 1151.80 1058.46 33.94
2348 56.9200 1243.60 1077.55 35.26
2349 56.9400 1207.80 1007.90 34.75
2350 56.9600 1002.60 884.50 31.66
2351 56.9800 832.90 761.93 28.86
2352 57.0000 722.70 673.15 26.88
2353 57.0200 641.90 627.50 25.34
2354 57.0400 637.40 620.65 25.25
2355 57.0600 676.30 637.79 26.01
2356 57.0800 718.20 655.71 26.80
2357 57.1000 712.10 656.90 26.69
2358 57.1200 709.00 641.71 26.63
2359 57.1400 671.50 612.57 25.91
2360 57.1600 611.10 566.77 24.72
2361 57.1800 540.50 511.83 23.25
2362 57.2000 487.90 462.76 22.09
2363 57.2200 459.40 429.03 21.43
2364 57.2400 430.00 410.64 20.74
2365 57.2600 390.80 405.69 19.77
2366 57.2800 380.20 407.45 19.50
2367 57.3000 390.10 406.80 19.75
2368 57.3200 398.70 397.92 19.97
2369 57.3400 399.90 386.86 20.00
2370 57.3600 399.10 380.12 19.98
2371 57.3800 390.50 384.13 19.76
2372 57.4000 397.60 397.87 19.94
2373 57.4200 416.30 416.13 20.40
2374 57.4400 426.20 427.41 20.64
2375 57.4600 422.10 420.34 20.55
2376 57.4800 397.40 398.07 19.93
2377 57.5000 365.70 372.65 19.12
2378 57.5200 347.40 352.86 18.64
2379 57.5400 330.60 342.64 18.18
2380 57.5600 335.10 340.89 18.31
2381 57.5800 343.70 343.25 18.54
2382 57.6000 340.60 342.58 18.46
2383 57.6200 355.00 333.48 18.84
2384 57.6400 325.20 317.91 18.03
2385 57.6600 293.30 301.42 17.13
2386 57.6800 280.10 287.37 16.74
2387 57.7000 251.10 277.43 15.85
2388 57.7200 266.00 269.82 16.31
2389 57.7400 265.20 264.56 16.28
2390 57.7600 239.10 260.93 15.46
2391 57.7800 239.90 258.37 15.49
2392 57.8000 232.90 256.49 15.26
2393 57.8200 232.70 253.32 15.25
2394 57.8400 236.00 252.28 15.36
2395 57.8600 226.80 252.28 15.06
2396 57.8800 236.40 251.73 15.38
2397 57.9000 236.50 251.37 15.38
2398 57.9200 235.50 251.18 15.35
2399 57.9400 251.50 251.16 15.86
2400 57.9600 257.90 250.83 16.06
2401 57.9800 271.00 250.81 16.46
2402 58.0000 275.40 251.36 16.60
2403 58.0200 256.50 252.27 16.02
2404 58.0400 241.30 253.47 15.53
2405 58.0600 260.50 255.41 16.14
2406 58.0800 278.50 257.45 16.69
2407 58.1000 275.20 260.12 16.59
2408 58.1200 277.50 263.73 16.66
2409 58.1400 278.60 268.82 16.69
2410 58.1600 283.30 275.75 16.83
2411 58.1800 292.50 287.14 17.10
2412 58.2000 302.40 305.06 17.39
2413 58.2200 336.60 329.91 18.35
2414 58.2400 374.30 364.76 19.35
2415 58.2600 425.30 408.11 20.62
2416 58.2800 529.70 452.95 23.02
2417 58.3000 562.60 483.30 23.72
2418 58.3200 557.80 483.31 23.62
2419 58.3400 514.70 456.05 22.69
2420 58.3600 426.40 421.33 20.65
2421 58.3800 416.40 394.16 20.41
2422 58.4000 398.20 380.81 19.95
2423 58.4200 388.40 380.56 19.71
2424 58.4400 406.80 387.89 20.17
2425 58.4600 397.70 392.45 19.94
2426 58.4800 408.50 384.72 20.21
2427 58.5000 403.40 365.66 20.08
2428 58.5200 361.60 343.48 19.02
2429 58.5400 321.30 325.28 17.92
2430 58.5600 292.00 312.94 17.09
2431 58.5800 283.60 306.61 16.84
2432 58.6000 293.70 305.38 17.14
2433 58.6200 291.40 308.37 17.07
2434 58.6400 298.00 315.10 17.26
2435 58.6600 304.00 326.40 17.44
2436 58.6800 311.90 344.58 17.66
2437 58.7000 335.50 373.27 18.32
2438 58.7200 404.60 414.14 20.11
2439 58.7400 491.20 467.32 22.16
2440 58.7600 577.40 526.75 24.03
2441 58.7800 639.10 576.70 25.28
2442 58.8000 703.00 599.18 26.51
2443 58.8200 669.90 596.71 25.88
2444 58.8400 605.80 593.39 24.61
2445 58.8600 591.20 610.20 24.31
2446 58.8800 671.90 653.01 25.92
2447 58.9000 772.90 710.85 27.80
2448 58.9200 866.90 756.51 29.44
2449 58.9400 923.90 763.53 30.40
2450 58.9600 829.40 730.03 28.80
2451 58.9800 722.80 674.80 26.88
2452 59.0000 641.50 619.91 25.33
2453 59.0200 603.00 582.28 24.56
2454 59.0400 610.70 570.61 24.71
2455 59.0600 591.30 580.40 24.32
2456 59.0800 582.10 598.81 24.13
2457 59.1000 592.90 611.14 24.35
2458 59.1200 622.60 609.74 24.95
2459 59.1400 576.20 589.21 24.00
2460 59.1600 536.30 550.12 23.16
2461 59.1800 497.90 506.33 22.31
2462 59.2000 427.80 473.78 20.68
2463 59.2200 411.00 454.86 20.27
2464 59.2400 403.60 446.81 20.09
2465 59.2600 408.80 441.32 20.22
2466 59.2800 432.90 432.20 20.81
2467 59.3000 412.30 416.10 20.31
2468 59.3200 376.40 393.25 19.40
2469 59.3400 347.40 369.29 18.64
2470 59.3600 339.30 349.99 18.42
2471 59.3800 314.20 336.97 17.73
2472 59.4000 291.30 327.48 17.07
2473 59.4200 286.70 319.25 16.93
2474 59.4400 302.40 310.10 17.39
2475 59.4600 305.40 301.11 17.48
2476 59.4800 293.60 293.82 17.13
2477 59.5000 273.80 289.09 16.55
2478 59.5200 257.60 287.07 16.05
2479 59.5400 276.60 287.62 16.63
2480 59.5600 279.00 290.76 16.70
2481 59.5800 292.30 297.45 17.10
2482 59.6000 311.10 306.43 17.64
2483 59.6200 315.70 314.53 17.77
2484 59.6400 319.60 316.98 17.88
2485 59.6600 317.20 311.77 17.81
2486 59.6800 306.60 302.61 17.51
2487 59.7000 286.10 293.11 16.91
2488 59.7200 273.10 286.31 16.53
2489 59.7400 264.30 283.11 16.26
2490 59.7600 267.10 283.17 16.34
2491 59.7800 286.10 284.76 16.91
2492 59.8000 305.20 285.13 17.47
2493 59.8200 283.30 282.52 16.83
2494 59.8400 263.70 279.37 16.24
2495 59.8600 264.80 275.00 16.27
2496 59.8800 263.30 271.39 16.23
2497 59.9000 255.60 270.48 15.99
2498 59.9200 247.60 271.65 15.74
2499 59.9400 245.80 276.01 15.68
2500 59.9600 267.20 282.08 16.35
2501 59.9800 296.40 291.76 17.22
2502 60.0000 305.40 307.17 17.48
2503 60.0200 308.60 329.67 17.57
2504 60.0400 348.20 364.66 18.66
2505 60.0600 418.20 414.20 20.45
2506 60.0800 469.40 480.12 21.67
2507 60.1000 535.10 557.74 23.13
2508 60.1200 664.60 629.97 25.78
2509 60.1400 771.50 667.07 27.78
2510 60.1600 771.00 650.24 27.77
2511 60.1800 699.30 595.72 26.44
2512 60.2000 593.30 536.12 24.36
2513 60.2200 499.60 491.91 22.35
2514 60.2400 467.10 470.02 21.61
2515 60.2600 475.90 469.88 21.82
2516 60.2800 511.80 481.26 22.62
2517 60.3000 555.20 486.80 23.56
2518 60.3200 531.20 471.16 23.05
2519 60.3400 482.70 435.90 21.97
2520 60.3600 421.10 394.15 20.52
2521 60.3800 334.30 356.65 18.28
2522 60.4000 316.80 326.98 17.80
2523 60.4200 301.50 305.83 17.36
2524 60.4400 275.80 292.00 16.61
2525 60.4600 240.80 282.97 15.52
2526 60.4800 260.40 277.55 16.14
2527 60.5000 261.20 274.61 16.16
2528 60.5200 253.00 273.38 15.91
2529 60.5400 259.90 273.72 16.12
2530 60.5600 283.20 275.43 16.83
2531 60.5800 289.00 278.67 17.00
2532 60.6000 284.80 284.15 16.88
2533 60.6200 278.60 292.27 16.69
2534 60.6400 269.50 304.08 16.42
2535 60.6600 287.00 321.92 16.94
2536 60.6800 326.10 348.47 18.06
2537 60.7000 377.40 386.71 19.43
2538 60.7200 391.10 438.91 19.78
2539 60.7400 465.50 504.54 21.58
2540 60.7600 560.20 576.76 23.67
2541 60.7800 646.10 637.76 25.42
2542 60.8000 665.20 669.73 25.79
2543 60.8200 664.80 677.57 25.78
2544 60.8400 639.30 684.34 25.28
2545 60.8600 616.40 703.21 24.83
2546 60.8800 667.50 726.32 25.84
2547 60.9000 644.90 736.63 25.39
2548 60.9200 625.30 728.86 25.01
2549 60.9400 611.70 706.73 24.73
2550 60.9600 596.40 668.41 24.42
2551 60.9800 544.90 617.51 23.34
2552 61.0000 525.00 568.94 22.91
2553 61.0200 509.60 533.75 22.57
2554 61.0400 471.10 509.88 21.70
2555 61.0600 445.20 486.77 21.10
2556 61.0800 414.40 457.67 20.36
2557 61.1000 385.40 424.13 19.63
2558 61.1200 360.20 390.13 18.98
2559 61.1400 319.80 358.65 17.88
2560 61.1600 292.60 330.82 17.11
2561 61.1800 285.30 308.86 16.89
2562 61.2000 292.60 293.63 17.11
2563 61.2200 277.40 282.46 16.66
2564 61.2400 271.20 274.47 16.47
2565 61.2600 269.00 267.91 16.40
2566 61.2800 270.20 264.27 16.44
2567 61.3000 275.50 261.93 16.60
2568 61.3200 267.10 260.70 16.34
2569 61.3400 254.50 260.46 15.95
2570 61.3600 246.70 261.25 15.71
2571 61.3800 256.60 263.29 16.02
2572 61.4000 249.70 268.05 15.80
2573 61.4200 264.30 273.89 16.26
2574 61.4400 292.30 284.14 17.10
2575 61.4600 322.40 299.85 17.96
2576 61.4800 339.20 322.79 18.42
2577 61.5000 354.30 353.92 18.82
2578 61.5200 390.00 392.09 19.75
2579 61.5400 453.50 431.19 21.30
2580 61.5600 471.00 458.58 21.70
2581 61.5800 493.80 460.45 22.22
2582 61.6000 483.90 438.28 22.00
2583 61.6200 434.90 406.70 20.85
2584 61.6400 393.00 379.39 19.82
2585 61.6600 366.30 362.82 19.14
2586 61.6800 366.10 358.00 19.13
2587 61.7000 384.40 362.19 19.61
2588 61.7200 391.30 368.78 19.78
2589 61.7400 379.10 369.90 19.47
2590 61.7600 370.80 358.56 19.26
2591 61.7800 360.80 339.49 18.99
2592 61.8000 334.20 319.92 18.28
2593 61.8200 303.20 303.32 17.41
2594 61.8400 280.70 291.36 16.75
2595 61.8600 276.80 283.93 16.64
2596 61.8800 299.70 280.49 17.31
2597 61.9000 279.90 280.28 16.73
2598 61.9200 285.20 282.22 16.89
2599 61.9400 308.70 288.06 17.57
2600 61.9600 340.90 297.37 18.46
2601 61.9800 340.20 310.96 18.44
2602 62.0000 369.10 329.95 19.21
2603 62.0200 395.80 354.81 19.89
2604 62.0400 418.60 387.92 20.46
2605 62.0600 502.30 428.40 22.41
2606 62.0800 569.80 476.28 23.87
2607 62.1000 641.20 530.57 25.32
2608 62.1200 718.20 583.70 26.80
2609 62.1400 789.80 624.12 28.10
2610 62.1600 801.40 636.73 28.31
2611 62.1800 765.90 615.72 27.67
2612 62.2000 698.60 577.59 26.43
2613 62.2200 624.00 544.40 24.98
2614 62.2400 607.00 529.35 24.64
2615 62.2600 575.50 537.43 23.99
2616 62.2800 564.60 567.17 23.76
2617 62.3000 619.60 612.76 24.89
2618 62.3200 698.80 661.89 26.43
2619 62.3400 749.50 696.30 27.38
2620 62.3600 761.40 697.58 27.59
2621 62.3800 727.00 659.49 26.96
2622 62.4000 640.20 595.72 25.30
2623 62.4200 554.00 530.56 23.54
2624 62.4400 481.40 480.14 21.94
2625 62.4600 431.10 450.02 20.76
2626 62.4800 416.70 439.39 20.41
2627 62.5000 415.20 443.57 20.38
2628 62.5200 407.60 452.96 20.19
2629 62.5400 402.10 456.08 20.05
2630 62.5600 444.80 447.90 21.09
2631 62.5800 432.00 435.68 20.78
2632 62.6000 424.70 430.61 20.61
2633 62.6200 433.70 440.07 20.83
2634 62.6400 460.40 466.98 21.46
2635 62.6600 519.20 509.89 22.79
2636 62.6800 595.80 560.68 24.41
2637 62.7000 675.20 600.37 25.98
2638 62.7200 740.00 612.42 27.20
2639 62.7400 639.50 597.17 25.29
2640 62.7600 591.30 569.61 24.32
2641 62.7800 555.00 539.26 23.56
2642 62.8000 501.60 510.20 22.40
2643 62.8200 495.50 488.55 22.26
2644 62.8400 490.00 478.73 22.14
2645 62.8600 482.00 477.57 21.95
2646 62.8800 471.40 475.04 21.71
2647 62.9000 466.90 464.40 21.61
2648 62.9200 450.60 446.94 21.23
2649 62.9400 436.10 429.09 20.88
2650 62.9600 430.40 412.94 20.75
2651 62.9800 443.30 399.21 21.05
2652 63.0000 419.20 388.88 20.47
2653 63.0200 401.30 380.27 20.03
2654 63.0400 391.10 369.99 19.78
2655 63.0600 375.10 358.08 19.37
2656 63.0800 349.20 347.66 18.69
2657 63.1000 336.20 340.82 18.34
2658 63.1200 330.70 337.69 18.19
2659 63.1400 323.10 337.30 17.98
2660 63.1600 343.40 337.85 18.53
2661 63.1800 352.10 338.27 18.76
2662 63.2000 358.40 338.41 18.93
2663 63.2200 370.10 338.93 19.24
2664 63.2400 372.40 341.43 19.30
2665 63.2600 401.70 346.94 20.04
2666 63.2800 426.30 354.77 20.65
2667 63.3000 431.70 361.80 20.78
2668 63.3200 437.80 368.22 20.92
2669 63.3400 454.80 370.82 21.33
2670 63.3600 465.40 365.92 21.57
2671 63.3800 452.40 353.25 21.27
2672 63.4000 373.90 337.73 19.34
2673 63.4200 355.80 324.80 18.86
2674 63.4400 366.20 316.59 19.14
2675 63.4600 381.90 312.90 19.54
2676 63.4800 364.40 312.17 19.09
2677 63.5000 352.50 314.51 18.77
2678 63.5200 356.30 317.48 18.88
2679 63.5400 367.30 320.96 19.17
2680 63.5600 371.90 324.73 19.28
2681 63.5800 366.00 331.49 19.13
2682 63.6000 367.60 343.55 19.17
2683 63.6200 375.10 359.95 19.37
2684 63.6400 386.10 375.36 19.65
2685 63.6600 389.20 381.31 19.73
2686 63.6800 391.10 373.74 19.78
2687 63.7000 380.60 358.01 19.51
2688 63.7200 353.30 343.93 18.80
2689 63.7400 327.40 337.42 18.09
2690 63.7600 319.00 340.92 17.86
2691 63.7800 334.50 355.75 18.29
2692 63.8000 370.90 381.24 19.26
2693 63.8200 406.70 413.88 20.17
2694 63.8400 401.60 447.10 20.04
2695 63.8600 420.20 471.95 20.50
2696 63.8800 455.50 480.59 21.34
2697 63.9000 457.80 465.46 21.40
2698 63.9200 435.10 432.23 20.86
2699 63.9400 396.70 394.91 19.92
2700 63.9600 355.40 365.01 18.85
2701 63.9800 328.70 346.05 18.13
2702 64.0000 332.50 338.42 18.23
2703 64.0200 337.00 339.67 18.36
2704 64.0400 342.10 344.10 18.50
2705 64.0600 346.90 344.58 18.63
2706 64.0800 316.50 334.96 17.79
2707 64.1000 326.70 317.07 18.07
2708 64.1200 312.70 296.84 17.68
2709 64.1400 250.80 279.70 15.84
2710 64.1600 280.50 265.40 16.75
2711 64.1800 254.80 254.72 15.96
2712 64.2000 232.60 246.91 15.25
2713 64.2200 233.20 241.55 15.27
2714 64.2400 240.80 238.23 15.52
2715 64.2600 224.70 235.47 14.99
2716 64.2800 204.10 233.45 14.29
2717 64.3000 193.50 231.90 13.91
2718 64.3200 218.60 230.60 14.79
2719 64.3400 212.00 229.79 14.56
2720 64.3600 206.60 228.98 14.37
2721 64.3800 211.20 228.44 14.53
2722 64.4000 233.20 228.07 15.27
2723 64.4200 227.40 227.85 15.08
2724 64.4400 223.00 227.76 14.93
2725 64.4600 220.70 227.76 14.86
2726 64.4800 220.10 228.01 14.84
2727 64.5000 225.50 228.42 15.02
2728 64.5200 229.70 229.23 15.16
2729 64.5400 233.50 230.28 15.28
2730 64.5600 237.10 231.82 15.40
2731 64.5800 237.80 234.10 15.42
2732 64.6000 245.10 237.48 15.66
2733 64.6200 243.00 242.43 15.59
2734 64.6400 232.70 249.66 15.25
2735 64.6600 251.00 259.14 15.84
2736 64.6800 275.00 270.96 16.58
2737 64.7000 282.20 283.78 16.80
2738 64.7200 281.20 294.58 16.77
2739 64.7400 310.90 298.72 17.63
2740 64.7600 311.30 294.58 17.64
2741 64.7800 307.30 285.65 17.53
2742 64.8000 296.20 276.64 17.21
2743 64.8200 267.20 271.13 16.35
2744 64.8400 268.20 268.23 16.38
2745 64.8600 272.90 269.25 16.52
2746 64.8800 272.70 272.85 16.51
2747 64.9000 260.30 277.02 16.13
2748 64.9200 274.70 279.20 16.57
2749 64.9400 277.90 278.45 16.67
2750 64.9600 272.80 276.38 16.52
2751 64.9800 263.60 275.67 16.24
2752 65.0000 271.20 278.33 16.47
2753 65.0200 288.20 285.73 16.98
2754 65.0400 292.10 299.22 17.09
2755 65.0600 285.50 319.08 16.90
2756 65.0800 332.00 346.64 18.22
2757 65.1000 385.30 379.63 19.63
2758 65.1200 423.30 412.54 20.57
2759 65.1400 441.80 436.25 21.02
2760 65.1600 445.60 445.83 21.11
2761 65.1800 427.10 447.39 20.67
2762 65.2000 428.50 451.21 20.70
2763 65.2200 443.20 460.35 21.05
2764 65.2400 447.80 469.33 21.16
2765 65.2600 448.70 469.89 21.18
2766 65.2800 451.90 459.75 21.26
2767 65.3000 447.10 444.21 21.14
2768 65.3200 422.90 426.67 20.56
2769 65.3400 414.50 407.82 20.36
2770 65.3600 400.30 390.80 20.01
2771 65.3800 368.10 379.97 19.19
2772 65.4000 316.50 376.87 17.79
2773 65.4200 337.80 377.78 18.38
2774 65.4400 364.90 378.17 19.10
2775 65.4600 380.30 376.48 19.50
2776 65.4800 377.30 375.25 19.42
2777 65.5000 364.40 375.72 19.09
2778 65.5200 388.80 375.13 19.72
2779 65.5400 388.80 366.56 19.72
2780 65.5600 361.70 350.54 19.02
2781 65.5800 354.80 332.80 18.84
2782 65.6000 333.90 317.89 18.27
2783 65.6200 321.40 308.68 17.93
2784 65.6400 318.00 305.87 17.83
2785 65.6600 318.00 309.15 17.83
2786 65.6800 352.40 317.36 18.77
2787 65.7000 366.50 328.29 19.14
2788 65.7200 359.80 340.20 18.97
2789 65.7400 337.00 352.25 18.36
2790 65.7600 377.40 368.14 19.43
2791 65.7800 401.00 390.23 20.02
2792 65.8000 420.40 416.61 20.50
2793 65.8200 445.80 439.22 21.11
2794 65.8400 475.50 446.58 21.81
2795 65.8600 459.60 434.76 21.44
2796 65.8800 433.40 412.65 20.82
2797 65.9000 413.60 392.09 20.34
2798 65.9200 393.80 379.35 19.84
2799 65.9400 384.40 375.58 19.61
2800 65.9600 389.70 377.55 19.74
2801 65.9800 406.90 380.96 20.17
2802 66.0000 422.90 382.07 20.56
2803 66.0200 405.10 376.95 20.13
2804 66.0400 393.70 363.78 19.84
2805 66.0600 383.20 346.25 19.58
2806 66.0800 347.40 330.23 18.64
2807 66.1000 337.20 319.35 18.36
2808 66.1200 324.10 314.27 18.00
2809 66.1400 312.50 314.05 17.68
2810 66.1600 311.00 316.82 17.64
2811 66.1800 323.90 321.44 18.00
2812 66.2000 331.60 326.49 18.21
2813 66.2200 325.80 328.65 18.05
2814 66.2400 302.20 324.61 17.38
2815 66.2600 305.20 315.22 17.47
2816 66.2800 287.40 304.77 16.95
2817 66.3000 278.20 296.98 16.68
2818 66.3200 289.10 293.68 17.00
2819 66.3400 289.80 295.07 17.02
2820 66.3600 279.60 302.02 16.72
2821 66.3800 283.00 313.45 16.82
2822 66.4000 300.00 327.87 17.32
2823 66.4200 300.00 343.71 17.32
2824 66.4400 348.60 361.71 18.67
2825 66.4600 383.20 384.63 19.58
2826 66.4800 404.50 415.54 20.11
2827 66.5000 440.30 451.74 20.98
2828 66.5200 485.20 483.94 22.03
2829 66.5400 532.30 499.81 23.07
2830 66.5600 542.00 494.45 23.28
2831 66.5800 461.30 476.47 21.48
2832 66.6000 443.50 457.01 21.06
2833 66.6200 439.00 442.97 20.95
2834 66.6400 436.20 439.29 20.89
2835 66.6600 426.20 449.91 20.64
2836 66.6800 431.60 473.93 20.77
2837 66.7000 456.40 503.98 21.36
2838 66.7200 493.50 525.26 22.21
2839 66.7400 529.10 522.48 23.00
2840 66.7600 492.60 494.57 22.19
2841 66.7800 427.60 453.38 20.68
2842 66.8000 382.00 411.64 19.54
2843 66.8200 361.90 376.72 19.02
2844 66.8400 325.30 351.91 18.04
2845 66.8600 308.30 337.61 17.56
2846 66.8800 303.60 331.81 17.42
2847 66.9000 306.70 330.08 17.51
2848 66.9200 309.70 326.10 17.60
2849 66.9400 316.30 315.71 17.78
2850 66.9600 295.60 299.86 17.19
2851 66.9800 261.80 282.70 16.18
2852 67.0000 240.50 267.27 15.51
2853 67.0200 253.40 255.43 15.92
2854 67.0400 239.80 245.26 15.49
2855 67.0600 218.00 238.09 14.76
2856 67.0800 207.70 232.81 14.41
2857 67.1000 227.50 228.90 15.08
2858 67.1200 224.70 225.92 14.99
2859 67.1400 215.80 223.58 14.69
2860 67.1600 212.70 221.68 14.58
2861 67.1800 230.20 219.96 15.17
2862 67.2000 229.20 218.97 15.14
2863 67.2200 213.40 217.84 14.61
2864 67.2400 192.40 216.58 13.87
2865 67.2600 201.60 215.71 14.20
2866 67.2800 200.40 214.93 14.16
2867 67.3000 198.60 214.24 14.09
2868 67.3200 198.70 213.62 14.10
2869 67.3400 201.70 213.07 14.20
2870 67.3600 184.10 212.51 13.57
2871 67.3800 185.90 212.07 13.63
2872 67.4000 196.90 211.66 14.03
2873 67.4200 193.10 211.49 13.90
2874 67.4400 204.00 210.98 14.28
2875 67.4600 212.50 210.69 14.58
2876 67.4800 209.70 210.44 14.48
2877 67.5000 188.90 210.22 13.74
2878 67.5200 185.90 210.03 13.63
2879 67.5400 185.00 210.20 13.60
2880 67.5600 196.30 210.08 14.01
2881 67.5800 223.00 209.98 14.93
2882 67.6000 234.40 209.90 15.31
2883 67.6200 224.00 209.86 14.97
2884 67.6400 211.50 209.73 14.54
2885 67.6600 205.00 209.79 14.32
2886 67.6800 205.00 209.85 14.32
2887 67.7000 212.60 209.95 14.58
2888 67.7200 214.20 210.11 14.64
2889 67.7400 211.80 210.47 14.55
2890 67.7600 220.10 210.12 14.84
2891 67.7800 228.50 210.43 15.12
2892 67.8000 223.10 210.81 14.94
2893 67.8200 206.40 211.13 14.37
2894 67.8400 185.80 211.68 13.63
2895 67.8600 206.90 212.33 14.38
2896 67.8800 214.00 213.10 14.63
2897 67.9000 215.80 214.02 14.69
2898 67.9200 223.80 215.57 14.96
2899 67.9400 213.10 216.61 14.60
2900 67.9600 218.10 217.80 14.77
2901 67.9800 221.10 219.88 14.87
2902 68.0000 212.20 222.35 14.57
2903 68.0200 214.50 225.51 14.65
2904 68.0400 217.90 229.59 14.76
2905 68.0600 210.30 235.10 14.50
2906 68.0800 193.90 242.80 13.92
2907 68.1000 207.60 253.77 14.41
2908 68.1200 224.50 269.48 14.98
2909 68.1400 244.80 291.40 15.65
2910 68.1600 271.60 320.65 16.48
2911 68.1800 314.30 357.88 17.73
2912 68.2000 382.70 400.48 19.56
2913 68.2200 443.70 440.76 21.06
2914 68.2400 484.20 465.04 22.00
2915 68.2600 488.80 462.34 22.11
2916 68.2800 434.00 436.61 20.83
2917 68.3000 380.00 402.67 19.49
2918 68.3200 328.00 373.40 18.11
2919 68.3400 276.10 354.05 16.62
2920 68.3600 282.20 346.71 16.80
2921 68.3800 313.20 350.50 17.70
2922 68.4000 352.20 362.13 18.77
2923 68.4200 386.60 375.14 19.66
2924 68.4400 423.20 381.08 20.57
2925 68.4600 383.40 376.23 19.58
2926 68.4800 342.60 362.92 18.51
2927 68.5000 330.60 349.47 18.18
2928 68.5200 319.90 341.25 17.89
2929 68.5400 318.60 339.78 17.85
2930 68.5600 330.60 342.98 18.18
2931 68.5800 348.40 345.50 18.67
2932 68.6000 345.40 341.61 18.58
2933 68.6200 334.30 330.47 18.28
2934 68.6400 342.40 316.36 18.50
2935 68.6600 348.70 303.89 18.67
2936 68.6800 304.60 294.85 17.45
2937 68.7000 271.20 290.06 16.47
2938 68.7200 264.30 289.18 16.26
2939 68.7400 281.30 291.28 16.77
2940 68.7600 317.10 294.47 17.81
2941 68.7800 339.10 295.77 18.41
2942 68.8000 319.20 293.02 17.87
2943 68.8200 298.70 287.67 17.28
2944 68.8400 305.70 283.22 17.48
2945 68.8600 269.10 282.61 16.40
2946 68.8800 271.40 287.38 16.47
2947 68.9000 287.00 298.06 16.94
2948 68.9200 304.40 314.30 17.45
2949 68.9400 331.80 334.40 18.22
2950 68.9600 346.30 353.90 18.61
2951 68.9800 363.80 366.07 19.07
2952 69.0000 377.80 364.99 19.44
2953 69.0200 349.60 353.96 18.70
2954 69.0400 349.30 338.83 18.69
2955 69.0600 370.20 324.35 19.24
2956 69.0800 377.40 312.42 19.43
2957 69.1000 302.00 304.19 17.38
2958 69.1200 300.60 300.60 17.34
2959 69.1400 294.90 301.22 17.17
2960 69.1600 297.50 303.40 17.25
2961 69.1800 331.80 303.18 18.22
2962 69.2000 294.10 298.30 17.15
2963 69.2200 292.90 290.18 17.11
2964 69.2400 297.10 281.91 17.24
2965 69.2600 283.10 274.46 16.83
2966 69.2800 303.70 268.76 17.43
2967 69.3000 288.60 265.38 16.99
2968 69.3200 275.60 264.95 16.60
2969 69.3400 279.50 267.66 16.72
2970 69.3600 266.50 273.11 16.32
2971 69.3800 269.50 280.71 16.42
2972 69.4000 280.80 290.81 16.76
2973 69.4200 297.40 305.19 17.25
2974 69.4400 316.40 325.98 17.79
2975 69.4600 369.00 353.98 19.21
2976 69.4800 408.00 387.33 20.20
2977 69.5000 433.60 418.87 20.82
2978 69.5200 465.60 438.73 21.58
2979 69.5400 466.60 437.32 21.60
2980 69.5600 436.60 417.65 20.90
2981 69.5800 397.10 391.27 19.93
2982 69.6000 377.30 368.23 19.42
2983 69.6200 356.00 354.21 18.87
2984 69.6400 352.60 351.38 18.78
2985 69.6600 362.30 359.24 19.03
2986 69.6800 381.90 374.46 19.54
2987 69.7000 443.60 389.39 21.06
2988 69.7200 471.20 394.46 21.71
2989 69.7400 459.50 383.20 21.44
2990 69.7600 413.80 359.48 20.34
2991 69.7800 393.20 332.51 19.83
2992 69.8000 344.20 308.58 18.55
2993 69.8200 307.70 290.67 17.54
2994 69.8400 295.10 279.08 17.18
2995 69.8600 295.90 273.79 17.20
2996 69.8800 302.50 273.29 17.39
2997 69.9000 308.90 275.72 17.58
2998 69.9200 311.10 279.17 17.64
2999 69.9400 302.70 283.17 17.40
3000 69.9600 301.30 289.28 17.36
3001 69.9800 292.30 299.70 17.10
3002 70.0000 290.20 315.25 17.04
3003 70.0200 318.40 334.86 17.84
3004 70.0400 329.40 355.21 18.15
3005 70.0600 324.40 372.30 18.01
3006 70.0800 323.50 381.21 17.99
3007 70.1000 343.60 377.77 18.54
3008 70.1200 332.90 362.63 18.25
3009 70.1400 302.90 342.76 17.40
3010 70.1600 287.30 325.72 16.95
3011 70.1800 300.80 315.99 17.34
3012 70.2000 299.30 314.68 17.30
3013 70.2200 316.40 321.64 17.79
3014 70.2400 317.50 333.69 17.82
3015 70.2600 309.60 348.69 17.60
3016 70.2800 375.90 361.76 19.39
3017 70.3000 377.00 366.89 19.42
3018 70.3200 380.10 359.59 19.50
3019 70.3400 380.50 340.58 19.51
3020 70.3600 328.80 316.11 18.13
3021 70.3800 299.80 292.52 17.31
3022 70.4000 285.40 273.40 16.89
3023 70.4200 275.40 259.99 16.60
3024 70.4400 255.60 251.91 15.99
3025 70.4600 229.90 248.65 15.16
3026 70.4800 260.50 248.47 16.14
3027 70.5000 288.80 249.15 16.99
3028 70.5200 256.20 247.53 16.01
3029 70.5400 230.30 242.34 15.18
3030 70.5600 227.90 234.59 15.10
3031 70.5800 225.50 226.33 15.02
3032 70.6000 210.80 218.97 14.52
3033 70.6200 208.50 213.02 14.44
3034 70.6400 213.90 208.49 14.63
3035 70.6600 210.20 205.37 14.50
3036 70.6800 198.50 203.39 14.09
3037 70.7000 215.30 202.43 14.67
3038 70.7200 218.60 202.75 14.79
3039 70.7400 224.20 203.73 14.97
3040 70.7600 231.70 205.79 15.22
3041 70.7800 230.20 209.00 15.17
3042 70.8000 232.10 212.75 15.23
3043 70.8200 234.30 217.89 15.31
3044 70.8400 242.70 222.81 15.58
3045 70.8600 267.00 226.71 16.34
3046 70.8800 262.10 226.61 16.19
3047 70.9000 247.20 223.69 15.72
3048 70.9200 224.80 219.79 14.99
3049 70.9400 198.30 216.55 14.08
3050 70.9600 212.00 214.87 14.56
3051 70.9800 210.60 215.07 14.51
3052 71.0000 216.20 217.08 14.70
3053 71.0200 240.20 220.61 15.50
3054 71.0400 242.50 224.68 15.57
3055 71.0600 254.70 228.47 15.96
3056 71.0800 258.80 230.16 16.09
3057 71.1000 249.00 230.75 15.78
3058 71.1200 235.30 231.69 15.34
3059 71.1400 239.30 234.06 15.47
3060 71.1600 242.20 238.12 15.56
3061 71.1800 247.10 243.52 15.72
3062 71.2000 276.80 249.96 16.64
3063 71.2200 237.20 257.72 15.40
3064 71.2400 246.10 266.55 15.69
3065 71.2600 285.20 275.22 16.89
3066 71.2800 293.60 281.86 17.13
3067 71.3000 285.30 285.17 16.89
3068 71.3200 283.00 285.23 16.82
3069 71.3400 283.80 284.29 16.85
3070 71.3600 283.00 284.39 16.82
3071 71.3800 279.90 285.40 16.73
3072 71.4000 288.10 286.20 16.97
3073 71.4200 297.50 284.22 17.25
3074 71.4400 299.60 279.35 17.31
3075 71.4600 281.40 273.44 16.77
3076 71.4800 268.90 267.27 16.40
3077 71.5000 266.10 261.26 16.31
3078 71.5200 273.30 255.31 16.53
3079 71.5400 283.20 250.14 16.83
3080 71.5600 266.20 246.58 16.32
3081 71.5800 253.80 244.70 15.93
3082 71.6000 249.80 243.81 15.81
3083 71.6200 238.30 243.07 15.44
3084 71.6400 238.30 242.01 15.44
3085 71.6600 252.00 242.26 15.87
3086 71.6800 270.00 244.44 16.43
3087 71.7000 273.80 250.10 16.55
3088 71.7200 266.10 259.79 16.31
3089 71.7400 275.00 273.43 16.58
3090 71.7600 296.20 289.86 17.21
3091 71.7800 322.10 306.11 17.95
3092 71.8000 349.50 317.63 18.69
3093 71.8200 343.80 322.19 18.54
3094 71.8400 330.70 322.43 18.19
3095 71.8600 331.10 324.04 18.20
3096 71.8800 347.90 331.43 18.65
3097 71.9000 366.90 346.11 19.15
3098 71.9200 386.70 366.66 19.66
3099 71.9400 405.90 388.18 20.15
3100 71.9600 421.20 403.68 20.52
3101 71.9800 425.20 408.95 20.62
3102 72.0000 420.70 406.04 20.51
3103 72.0200 411.00 400.52 20.27
3104 72.0400 405.70 398.18 20.14
3105 72.0600 405.00 403.33 20.12
3106 72.0800 411.40 416.84 20.28
3107 72.1000 425.70 435.59 20.63
3108 72.1200 448.50 453.30 21.18
3109 72.1400 448.60 462.86 21.18
3110 72.1600 455.60 457.14 21.34
3111 72.1800 449.40 434.46 21.20
3112 72.2000 402.20 401.53 20.05
3113 72.2200 357.20 368.26 18.90
3114 72.2400 340.90 341.41 18.46
3115 72.2600 338.40 323.45 18.40
3116 72.2800 335.70 313.88 18.32
3117 72.3000 313.70 310.20 17.71
3118 72.3200 304.00 308.82 17.44
3119 72.3400 313.50 306.20 17.71
3120 72.3600 334.70 299.38 18.29
3121 72.3800 298.10 287.32 17.27
3122 72.4000 270.80 271.73 16.46
3123 72.4200 258.00 255.83 16.06
3124 72.4400 256.80 241.86 16.02
3125 72.4600 249.90 230.68 15.81
3126 72.4800 241.10 222.26 15.53
3127 72.5000 231.10 216.37 15.20
3128 72.5200 224.50 212.51 14.98
3129 72.5400 230.60 210.35 15.19
3130 72.5600 218.30 209.60 14.77
3131 72.5800 216.30 210.39 14.71
3132 72.6000 218.60 212.71 14.79
3133 72.6200 214.10 217.22 14.63
3134 72.6400 207.20 224.38 14.39
3135 72.6600 209.10 234.85 14.46
3136 72.6800 224.60 249.16 14.99
3137 72.7000 255.10 267.62 15.97
3138 72.7200 258.20 288.77 16.07
3139 72.7400 288.10 309.80 16.97
3140 72.7600 306.20 324.45 17.50
3141 72.7800 294.20 326.44 17.15
3142 72.8000 277.40 315.36 16.66
3143 72.8200 277.00 297.13 16.64
3144 72.8400 263.90 278.70 16.25
3145 72.8600 241.20 264.08 15.53
3146 72.8800 260.30 254.90 16.13
3147 72.9000 262.30 251.43 16.20
3148 72.9200 258.30 252.71 16.07
3149 72.9400 251.60 257.28 15.86
3150 72.9600 245.50 262.04 15.67
3151 72.9800 249.90 263.07 15.81
3152 73.0000 240.90 258.50 15.52
3153 73.0200 225.80 248.82 15.03
3154 73.0400 218.20 238.48 14.77
3155 73.0600 225.50 228.63 15.02
3156 73.0800 216.80 221.40 14.72
3157 73.1000 210.60 216.73 14.51
3158 73.1200 222.00 214.48 14.90
3159 73.1400 197.70 214.83 14.06
3160 73.1600 218.10 216.82 14.77
3161 73.1800 238.10 219.26 15.43
3162 73.2000 232.20 220.44 15.24
3163 73.2200 213.90 218.99 14.63
3164 73.2400 226.20 215.28 15.04
3165 73.2600 221.10 210.31 14.87
3166 73.2800 193.10 205.45 13.90
3167 73.3000 193.90 201.98 13.92
3168 73.3200 197.20 199.72 14.04
3169 73.3400 194.90 198.90 13.96
3170 73.3600 187.30 199.18 13.69
3171 73.3800 179.70 200.15 13.41
3172 73.4000 194.20 201.06 13.94
3173 73.4200 199.60 200.87 14.13
3174 73.4400 199.90 199.54 14.14
3175 73.4600 206.80 197.27 14.38
3176 73.4800 206.30 194.22 14.36
3177 73.5000 204.00 192.12 14.28
3178 73.5200 204.60 190.43 14.30
3179 73.5400 211.50 189.27 14.54
3180 73.5600 194.70 188.62 13.95
3181 73.5800 180.70 188.40 13.44
3182 73.6000 175.80 188.59 13.26
3183 73.6200 183.60 189.17 13.55
3184 73.6400 200.30 190.08 14.15
3185 73.6600 211.10 191.59 14.53
3186 73.6800 214.60 193.54 14.65
3187 73.7000 212.50 196.50 14.58
3188 73.7200 215.50 200.77 14.68
3189 73.7400 194.20 205.82 13.94
3190 73.7600 198.50 211.92 14.09
3191 73.7800 231.80 218.67 15.23
3192 73.8000 272.90 225.00 16.52
3193 73.8200 258.50 229.28 16.08
3194 73.8400 254.00 230.44 15.94
3195 73.8600 252.70 229.16 15.90
3196 73.8800 229.90 227.32 15.16
3197 73.9000 218.00 226.74 14.76
3198 73.9200 213.50 228.17 14.61
3199 73.9400 221.50 232.27 14.88
3200 73.9600 246.00 239.36 15.68
3201 73.9800 247.60 249.53 15.74
3202 74.0000 248.00 262.52 15.75
3203 74.0200 252.20 277.63 15.88
3204 74.0400 265.00 294.52 16.28
3205 74.0600 300.80 314.04 17.34
3206 74.0800 332.50 338.07 18.23
3207 74.1000 349.70 367.26 18.70
3208 74.1200 362.30 399.82 19.03
3209 74.1400 439.90 429.61 20.97
3210 74.1600 447.30 447.82 21.15
3211 74.1800 448.70 447.81 21.18
3212 74.2000 444.60 431.02 21.09
3213 74.2200 389.00 405.57 19.72
3214 74.2400 349.70 380.07 18.70
3215 74.2600 331.40 361.13 18.20
3216 74.2800 335.30 350.92 18.31
3217 74.3000 362.70 350.84 19.04
3218 74.3200 351.70 359.26 18.75
3219 74.3400 364.60 372.42 19.09
3220 74.3600 385.70 383.18 19.64
3221 74.3800 393.90 383.90 19.85
3222 74.4000 388.60 371.20 19.71
3223 74.4200 361.90 348.55 19.02
3224 74.4400 327.90 322.33 18.11
3225 74.4600 297.20 297.70 17.24
3226 74.4800 272.80 277.46 16.52
3227 74.5000 249.00 262.49 15.78
3228 74.5200 242.20 252.56 15.56
3229 74.5400 252.60 246.60 15.89
3230 74.5600 242.70 243.25 15.58
3231 74.5800 249.20 240.47 15.79
3232 74.6000 237.30 236.72 15.40
3233 74.6200 216.70 231.80 14.72
3234 74.6400 245.70 226.68 15.67
3235 74.6600 220.00 222.42 14.83
3236 74.6800 209.50 219.64 14.47
3237 74.7000 214.60 218.73 14.65
3238 74.7200 216.90 219.93 14.73
3239 74.7400 209.10 223.43 14.46
3240 74.7600 207.00 229.32 14.39
3241 74.7800 209.50 237.63 14.47
3242 74.8000 214.10 247.82 14.63
3243 74.8200 230.90 258.40 15.20
3244 74.8400 228.10 266.62 15.10
3245 74.8600 219.60 269.41 14.82
3246 74.8800 216.80 266.15 14.72
3247 74.9000 229.00 259.44 15.13
3248 74.9200 219.90 252.82 14.83
3249 74.9400 213.00 248.66 14.59
3250 74.9600 219.60 248.05 14.82
3251 74.9800 240.20 251.14 15.50
3252 75.0000 235.30 257.25 15.34
3253 75.0200 246.40 264.64 15.70
3254 75.0400 274.30 270.54 16.56
3255 75.0600 281.20 272.21 16.77
3256 75.0800 264.70 268.75 16.27
3257 75.1000 250.90 261.62 15.84
3258 75.1200 246.30 253.49 15.69
3259 75.1400 255.40 246.55 15.98
3260 75.1600 213.90 241.90 14.63
3261 75.1800 219.30 239.71 14.81
3262 75.2000 240.40 240.14 15.50
3263 75.2200 229.00 242.88 15.13
3264 75.2400 249.50 247.51 15.80
3265 75.2600 265.90 253.61 16.31
3266 75.2800 275.80 261.38 16.61
3267 75.3000 279.20 271.92 16.71
3268 75.3200 299.00 286.48 17.29
3269 75.3400 328.40 305.41 18.12
3270 75.3600 354.20 327.12 18.82
3271 75.3800 369.60 346.96 19.23
3272 75.4000 375.00 357.98 19.36
3273 75.4200 366.20 354.68 19.14
3274 75.4400 356.20 338.69 18.87
3275 75.4600 344.20 317.02 18.55
3276 75.4800 312.20 296.13 17.67
3277 75.5000 288.80 279.80 16.99
3278 75.5200 276.00 268.85 16.61
3279 75.5400 271.30 264.50 16.47
3280 75.5600 268.20 265.42 16.38
3281 75.5800 276.50 270.08 16.63
3282 75.6000 276.30 275.46 16.62
3283 75.6200 274.80 277.61 16.58
3284 75.6400 283.90 273.46 16.85
3285 75.6600 280.20 263.55 16.74
3286 75.6800 263.50 251.01 16.23
3287 75.7000 244.60 238.71 15.64
3288 75.7200 232.80 227.94 15.26
3289 75.7400 229.80 218.98 15.16
3290 75.7600 219.50 211.90 14.82
3291 75.7800 215.90 206.10 14.69
3292 75.8000 222.00 201.43 14.90
3293 75.8200 203.70 197.74 14.27
3294 75.8400 193.90 194.90 13.92
3295 75.8600 193.00 192.75 13.89
3296 75.8800 198.30 191.15 14.08
3297 75.9000 199.80 189.97 14.14
3298 75.9200 182.30 189.11 13.50
3299 75.9400 174.20 188.38 13.20
3300 75.9600 178.30 187.76 13.35
3301 75.9800 188.20 187.06 13.72
3302 76.0000 193.90 186.21 13.92
3303 76.0200 184.40 185.28 13.58
3304 76.0400 174.80 184.39 13.22
3305 76.0600 187.80 183.58 13.70
3306 76.0800 200.70 182.87 14.17
3307 76.1000 208.60 182.30 14.44
3308 76.1200 207.90 181.78 14.42
3309 76.1400 196.90 181.33 14.03
3310 76.1600 193.80 180.95 13.92
3311 76.1800 177.50 180.60 13.32
3312 76.2000 169.80 180.29 13.03
3313 76.2200 177.70 179.81 13.33
3314 76.2400 154.80 179.55 12.44
3315 76.2600 171.10 179.31 13.08
3316 76.2800 183.20 179.08 13.54
3317 76.3000 179.80 178.87 13.41
3318 76.3200 178.20 178.87 13.35
3319 76.3400 176.70 178.78 13.29
3320 76.3600 171.90 178.60 13.11
3321 76.3800 164.80 178.43 12.84
3322 76.4000 159.50 178.27 12.63
3323 76.4200 163.20 178.01 12.77
3324 76.4400 173.70 177.77 13.18
3325 76.4600 184.70 177.63 13.59
3326 76.4800 186.90 177.73 13.67
3327 76.5000 192.20 177.87 13.86
3328 76.5200 186.50 177.78 13.66
3329 76.5400 177.40 177.68 13.32
3330 76.5600 173.40 177.61 13.17
3331 76.5800 185.60 177.55 13.62
3332 76.6000 183.50 177.49 13.55
3333 76.6200 184.30 177.47 13.58
3334 76.6400 194.70 177.79 13.95
3335 76.6600 181.00 177.88 13.45
3336 76.6800 179.80 177.96 13.41
3337 76.7000 183.50 178.10 13.55
3338 76.7200 187.10 178.57 13.68
3339 76.7400 181.00 178.90 13.45
3340 76.7600 205.00 179.37 14.32
3341 76.7800 202.90 179.61 14.24
3342 76.8000 177.80 180.62 13.33
3343 76.8200 172.50 181.99 13.13
3344 76.8400 205.00 184.19 14.32
3345 76.8600 213.30 186.46 14.60
3346 76.8800 200.40 189.07 14.16
3347 76.9000 183.60 191.70 13.55
3348 76.9200 194.70 193.71 13.95
3349 76.9400 205.90 194.36 14.35
3350 76.9600 208.10 193.44 14.43
3351 76.9800 194.30 191.45 13.94
3352 77.0000 204.90 189.11 14.31
3353 77.0200 183.10 187.18 13.53
3354 77.0400 175.10 185.82 13.23
3355 77.0600 205.70 185.36 14.34
3356 77.0800 213.30 185.38 14.60
3357 77.1000 193.20 185.89 13.90
3358 77.1200 185.00 186.75 13.60
3359 77.1400 195.50 187.62 13.98
3360 77.1600 178.80 188.11 13.37
3361 77.1800 193.10 187.95 13.90
3362 77.2000 193.50 187.71 13.91
3363 77.2200 179.80 186.91 13.41
3364 77.2400 183.60 186.30 13.55
3365 77.2600 178.50 186.06 13.36
3366 77.2800 172.50 186.41 13.13
3367 77.3000 169.00 187.23 13.00
3368 77.3200 172.80 188.71 13.15
3369 77.3400 188.30 191.00 13.72
3370 77.3600 191.60 194.27 13.84
3371 77.3800 190.30 198.92 13.79
3372 77.4000 193.90 204.79 13.92
3373 77.4200 187.80 212.16 13.70
3374 77.4400 199.90 220.88 14.14
3375 77.4600 220.60 230.30 14.85
3376 77.4800 241.90 239.12 15.55
3377 77.5000 254.10 245.72 15.94
3378 77.5200 253.50 249.42 15.92
3379 77.5400 260.60 251.22 16.14
3380 77.5600 274.90 253.35 16.58
3381 77.5800 245.20 257.86 15.66
3382 77.6000 264.50 265.81 16.26
3383 77.6200 285.60 277.00 16.90
3384 77.6400 298.10 289.77 17.27
3385 77.6600 308.80 301.22 17.57
3386 77.6800 332.90 308.94 18.25
3387 77.7000 349.20 313.04 18.69
3388 77.7200 351.20 315.78 18.74
3389 77.7400 333.00 319.51 18.25
3390 77.7600 339.20 325.67 18.42
3391 77.7800 338.60 334.19 18.40
3392 77.8000 333.00 343.34 18.25
3393 77.8200 327.20 350.13 18.09
3394 77.8400 355.40 352.70 18.85
3395 77.8600 382.50 351.52 19.56
3396 77.8800 400.20 348.21 20.00
3397 77.9000 401.60 344.33 20.04
3398 77.9200 381.80 340.89 19.54
3399 77.9400 369.50 340.44 19.22
3400 77.9600 380.50 344.59 19.51
3401 77.9800 410.50 352.62 20.26
3402 78.0000 391.50 360.82 19.79
3403 78.0200 391.70 364.03 19.79
3404 78.0400 384.80 359.32 19.62
3405 78.0600 364.50 347.86 19.09
3406 78.0800 335.50 333.62 18.32
3407 78.1000 328.70 320.63 18.13
3408 78.1200 313.20 311.64 17.70
3409 78.1400 289.10 308.05 17.00
3410 78.1600 265.40 310.06 16.29
3411 78.1800 319.00 316.74 17.86
3412 78.2000 332.90 326.05 18.25
3413 78.2200 324.00 335.07 18.00
3414 78.2400 324.00 340.35 18.00
3415 78.2600 307.30 339.43 17.53
3416 78.2800 303.60 333.07 17.42
3417 78.3000 293.90 324.92 17.14
3418 78.3200 267.10 318.65 16.34
3419 78.3400 285.40 315.64 16.89
3420 78.3600 279.80 314.72 16.73
3421 78.3800 272.30 313.01 16.50
3422 78.4000 273.00 308.83 16.52
3423 78.4200 273.00 302.91 16.52
3424 78.4400 261.30 296.99 16.16
3425 78.4600 254.00 292.05 15.94
3426 78.4800 253.30 288.04 15.92
3427 78.5000 249.50 284.81 15.80
3428 78.5200 259.60 282.48 16.11
3429 78.5400 262.00 280.86 16.19
3430 78.5600 258.20 278.70 16.07
3431 78.5800 258.90 274.32 16.09
3432 78.6000 237.00 266.81 15.39
3433 78.6200 241.20 256.48 15.53
3434 78.6400 245.80 244.59 15.68
3435 78.6600 212.30 233.01 14.57
3436 78.6800 222.60 223.09 14.92
3437 78.7000 216.20 215.37 14.70
3438 78.7200 208.40 209.81 14.44
3439 78.7400 212.70 206.19 14.58
3440 78.7600 225.60 204.22 15.02
3441 78.7800 219.40 202.64 14.81
3442 78.8000 200.00 200.60 14.14
3443 78.8200 177.70 197.72 13.33
3444 78.8400 201.30 194.17 14.19
3445 78.8600 198.10 190.85 14.07
3446 78.8800 195.60 188.35 13.99
3447 78.9000 198.80 186.83 14.10
3448 78.9200 192.00 186.26 13.86
3449 78.9400 198.90 186.46 14.10
3450 78.9600 212.60 187.06 14.58
3451 78.9800 220.10 188.13 14.84
3452 79.0000 195.00 189.89 13.96
3453 79.0200 195.10 192.67 13.97
3454 79.0400 202.50 196.45 14.23
3455 79.0600 212.70 200.73 14.58
3456 79.0800 221.80 204.30 14.89
3457 79.1000 223.50 206.71 14.95
3458 79.1200 225.50 207.80 15.02
3459 79.1400 218.00 208.72 14.76
3460 79.1600 194.50 210.32 13.95
3461 79.1800 205.10 213.33 14.32
3462 79.2000 223.00 216.94 14.93
3463 79.2200 239.80 220.16 15.49
3464 79.2400 248.40 221.25 15.76
3465 79.2600 233.20 219.71 15.27
3466 79.2800 234.80 216.17 15.32
3467 79.3000 230.00 211.86 15.17
3468 79.3200 215.40 207.12 14.68
3469 79.3400 211.60 202.64 14.55
3470 79.3600 200.00 198.60 14.14
3471 79.3800 187.40 195.51 13.69
3472 79.4000 178.50 193.76 13.36
3473 79.4200 180.80 193.30 13.45
3474 79.4400 203.30 193.53 14.26
3475 79.4600 204.80 193.82 14.31
3476 79.4800 199.80 193.30 14.14
3477 79.5000 216.60 191.66 14.72
3478 79.5200 212.50 189.07 14.58
3479 79.5400 203.40 186.29 14.26
3480 79.5600 198.10 183.96 14.07
3481 79.5800 203.70 182.31 14.27
3482 79.6000 196.10 181.39 14.00
3483 79.6200 191.80 181.23 13.85
3484 79.6400 182.20 181.79 13.50
3485 79.6600 164.70 182.99 12.83
3486 79.6800 161.70 184.85 12.72
3487 79.7000 172.90 187.49 13.15
3488 79.7200 185.70 190.99 13.63
3489 79.7400 192.40 195.18 13.87
3490 79.7600 182.50 199.84 13.51
3491 79.7800 199.60 204.54 14.13
3492 79.8000 217.70 208.47 14.75
3493 79.8200 224.40 211.75 14.98
3494 79.8400 203.00 214.49 14.25
3495 79.8600 213.40 217.58 14.61
3496 79.8800 210.40 221.64 14.51
3497 79.9000 204.50 227.13 14.30
3498 79.9200 220.50 234.31 14.85
3499 79.9400 229.10 241.97 15.14
loop_
_pd_proc_info_excluded_regions
'from 2 to 10.000'
loop_
_restr_distance_atom_site_label_1
_restr_distance_site_symmetry_1
_restr_distance_atom_site_label_2
_restr_distance_site_symmetry_2
_restr_distance_target
_restr_distance_target_weight_param
C5 . C4 . 1.52 0.005
C4 . C1 . 1.4 0.005
C1 . C2 . 1.4 0.005
C2 . C1 4_575 1.4 0.005
C1 4_575 C4 4_575 1.4 0.005
C4 4_575 C6 . 1.4 0.005
C6 . C4 . 1.4 0.005
N1 . C5 . 1.45 0.005
S1 . O3 . 1.44 0.005
S1 . O3 4_565 1.44 0.005
S1 . O1 . 1.48 0.005
S1 . O2 2_465 1.48 0.005
loop_
_restr_angle_atom_site_label_1
_restr_angle_site_symmetry_1
_restr_angle_atom_site_label_2
_restr_angle_site_symmetry_2
_restr_angle_atom_site_label_3
_restr_angle_site_symmetry_3
_restr_angle_target
_restr_angle_target_weight_param
C4 . C1 . C2 . 120 0.01
C1 . C2 . C1 4_575 120 0.01
C2 . C1 4_575 C4 4_575 120 0.01
C1 4_575 C4 4_575 C6 . 120 0.01
C6 . C4 . C1 . 120 0.01
C5 . C4 . C1 . 120 0.01
C5 . C4 . C6 . 120 0.01
N1 . C5 . C4 . 109.47 0.01
loop_
_restr_torsion_atom_site_label_1
_restr_torsion_atom_site_label_2
_restr_torsion_atom_site_label_3
_restr_torsion_site_symmetry_3
_restr_torsion_atom_site_label_4
_restr_torsion_site_symmetry_4
_restr_torsion_angle_target
_restr_torsion_weight_param
C5 C4 C1 . C2 . 180 0.01
C5 C4 C6 . C4 4_575 180 0.01
C4 C1 C2 . C1 4_575 0 0.01
C4 C6 C4 4_575 C1 4_575 0 0.01
loop_
_restr_equal_angle_atom_site_label_1
_restr_equal_angle_site_symmetry_1
_restr_equal_angle_atom_site_label_2
_restr_equal_angle_atom_site_label_3
_restr_equal_angle_site_symmetry_3
_restr_equal_angle_class_class_id
_restr_equal_angle_class_target_weight_param
O1 . S1 O2 2_465 0 0.01
O1 . S1 O3 . 0 0.01
O2 2_465 S1 O3 . 0 0.01
O3 . S1 O3 4_565 0 0.01
