#------------------------------------------------------------------------------
#$Date: 2019-11-17 13:37:03 +0200 (Sun, 17 Nov 2019) $
#$Revision: 230207 $
#$URL: file:///home/coder/svn-repositories/cod/cif/7/05/78/7057830.cif $
#------------------------------------------------------------------------------
#
# This file is available in the Crystallography Open Database (COD),
# http://www.crystallography.net/
#
# All data on this site have been placed in the public domain by the
# contributors.
#
data_7057830
loop_
_publ_author_name
'Luberda-Durna\'s, K.'
'Konieczny, P.'
'Pe\/lka, R.'
'Oszajca, M.'
'Gonzalez Guillen, A.'
'Korecki, J.'
'Ciesielska, Z.'
'\/Lasocha, W.'
_publ_section_title
;
 Two-step magnetic transition in hybrid organic--inorganic materials of
 the (m-xylylenediamine)MeSO4 (Me -- Mn, Fe, Co, Ni) type
;
_journal_issue                   22
_journal_name_full               'New Journal of Chemistry'
_journal_page_first              18225
_journal_paper_doi               10.1039/C8NJ04036B
_journal_volume                  42
_journal_year                    2018
_chemical_formula_moiety         NiSO4(C8H12N2)
_chemical_formula_sum            'C8 H12 N2 Ni O4 S'
_chemical_formula_weight         290.9
_chemical_name_systematic        NiSO4(MXDA)
_space_group_IT_number           26
_space_group_name_Hall           'P -2a 2a'
_space_group_name_H-M_alt        'P 21 m a'
_symmetry_cell_setting           orthorhombic
_symmetry_Int_Tables_number      26
_symmetry_space_group_name_Hall  'P -2a 2a'
_symmetry_space_group_name_H-M   'P 21 m a'
_audit_update_record
;
2018-07-19 deposited with the CCDC.
2018-10-10 downloaded from the CCDC.
;
_cell_angle_alpha                90
_cell_angle_beta                 90
_cell_angle_gamma                90
_cell_formula_units_Z            2
_cell_length_a                   9.6973(4)
_cell_length_b                   10.6875(3)
_cell_length_c                   4.8399(3)
_cell_measurement_temperature    293
_cell_volume                     501.61(4)
_diffrn_ambient_temperature      293
_diffrn_measurement_device_type  diffractometer
_diffrn_radiation_probe          x-ray
_diffrn_radiation_type           'Cu K\a'
_diffrn_radiation_wavelength     1.5418
_exptl_absorpt_coefficient_mu    4.792
_exptl_crystal_density_diffrn    1.9263
_exptl_crystal_F_000             300
_pd_char_colour                  green
_pd_instr_location               ' ?'
_pd_meas_2theta_range_inc        0.02
_pd_meas_2theta_range_max        84.980
_pd_meas_2theta_range_min        3.020
_pd_meas_number_of_points        4099
_pd_proc_2theta_range_inc        0.02
_pd_proc_2theta_range_max        84.98
_pd_proc_2theta_range_min        10.02
_pd_proc_ls_pref_orient_corr     'March & Dollase'
_pd_proc_ls_profile_function     Pseudo-Voigt
_pd_proc_ls_prof_R_factor        0.0666
_pd_proc_ls_prof_wR_expected     0.0108
_pd_proc_ls_prof_wR_factor       0.0954
_refine_ls_goodness_of_fit_all   8.83
_refine_ls_hydrogen_treatment    constr
_refine_ls_number_constraints    1
_refine_ls_number_parameters     35
_refine_ls_number_restraints     27
_refine_ls_R_factor_all          0.0921
_refine_ls_R_factor_gt           0.0921
_refine_ls_shift/su_max          0.0318
_refine_ls_shift/su_mean         0.0033
_refine_ls_weighting_scheme      sigma
_refine_ls_wR_factor_all         0.1114
_refine_ls_wR_factor_gt          0.1114
_cod_data_source_file            c8nj04036b2.cif
_cod_data_source_block           I_CCDC2
_cod_depositor_comments
;
The following automatic conversions were performed:

'_diffrn_radiation_probe' value 'X-ray' changed to 'x-ray' according
to
/home/data/users/saulius/crontab/automatic-downloads/rss-feeds/RSC/lib/dictionaries/cif_core.dic
dictionary named 'cif_core.dic' version 2.4.2 from 2011-04-26.

Automatic conversion script
Id: cif_fix_values 4973 2017-02-22 13:04:09Z antanas 

 Adding full bibliography for 7057828--7057831.cif.
;
_cod_original_sg_symbol_Hall     'P 2xa;-2y;-2za'
_cod_original_formula_sum        'C8 H12 N2 Ni1 O4 S1'
_cod_database_code               7057830
loop_
_space_group_symop_id
_space_group_symop_operation_xyz
1 x,y,z
2 x+1/2,-y,-z
3 x+1/2,y,-z
4 x,-y,z
loop_
_atom_site_label
_atom_site_type_symbol
_atom_site_fract_x
_atom_site_fract_y
_atom_site_fract_z
_atom_site_adp_type
_atom_site_U_iso_or_equiv
_atom_site_site_symmetry_multiplicity
_atom_site_occupancy
_atom_site_calc_flag
Ni1 Ni 0.1104(3) 0.5 0.1449(12) Uiso 0.067(2) 2 1 d
S1 S -0.1992(5) 0.5 0.4296(13) Uiso 0.004(2) 2 1 d
O1 O -0.0467(7) 0.5 0.457(2) Uiso 0.015(3) 2 1 d
O2 O 0.2632(11) 0.5 -0.1322(16) Uiso 0.015(3) 2 1 d
O3 O -0.2549(6) 0.6099(3) 0.5598(15) Uiso 0.015(3) 4 1 d
C2 C -0.1110(15) 1 -0.397(4) Uiso 0.067(2) 2 1 d
C4 C 0.0464(8) 0.8867(2) -0.095(2) Uiso 0.067(2) 4 1 d
N1 N 0.0187(11) 0.6605(5) -0.079(3) Uiso 0.067(2) 4 1 d
C1 C -0.0587(11) 0.8864(2) -0.297(3) Uiso 0.067(2) 4 1 d
C5 C 0.1039(10) 0.7634(4) 0.014(3) Uiso 0.067(2) 4 1 d
C6 C 0.0983(10) 1 0.004(3) Uiso 0.067(2) 2 1 d
H1c2 H -0.182555 1 -0.534542 Uiso 0.0804 2 1 d
H1c1 H -0.094341 0.808543 -0.365629 Uiso 0.0804 4 1 d
H1c5 H 0.196392 0.752165 -0.051857 Uiso 0.0804 4 1 d
H2c5 H 0.104773 0.765287 0.212801 Uiso 0.0804 4 1 d
H1c6 H 0.169777 1 0.141164 Uiso 0.0804 2 1 d
H1n1 H 0.029789 0.6501 -0.256137 Uiso 0.0804 4 1 d
H2n1 H -0.065713 0.671811 -0.02333 Uiso 0.0804 4 1 d
loop_
_atom_type_symbol
_atom_type_scat_dispersion_real
_atom_type_scat_dispersion_imag
_atom_type_scat_source
_atom_type_scat_Cromer_Mann_a1
_atom_type_scat_Cromer_Mann_b1
_atom_type_scat_Cromer_Mann_a2
_atom_type_scat_Cromer_Mann_b2
_atom_type_scat_Cromer_Mann_a3
_atom_type_scat_Cromer_Mann_b3
_atom_type_scat_Cromer_Mann_a4
_atom_type_scat_Cromer_Mann_b4
_atom_type_scat_Cromer_Mann_c
C 0.0181 0.0091 'International Tables Vol C tables 4.2.6.8 and 6.1.1.4' 2.31
20.843901 1.02 10.2075 1.5886 0.5687 0.865 51.651199 0.2156
H 0.0000 0.0000 'International Tables Vol C tables 4.2.6.8 and 6.1.1.4'
0.493002 10.5109 0.322912 26.1257 0.140191 3.14236 0.04081 57.799702 0.003038
N 0.0311 0.0180 'International Tables Vol C tables 4.2.6.8 and 6.1.1.4' 12.2126
0.0057 3.1322 9.8933 2.0125 28.997499 1.1663 0.5826 -11.529
Ni -3.0029 0.5091 'International Tables Vol C tables 4.2.6.8 and 6.1.1.4'
12.8376 3.8785 7.292 0.2565 4.4438 12.1763 2.38 66.342102 1.0341
O 0.0492 0.0322 'International Tables Vol C tables 4.2.6.8 and 6.1.1.4' 3.0485
13.2771 2.2868 5.7011 1.5463 0.3239 0.867 32.908901 0.2508
S 0.3331 0.5567 'International Tables Vol C tables 4.2.6.8 and 6.1.1.4' 6.9053
1.4679 5.2034 22.215099 1.4379 0.2536 1.5863 56.172001 0.8669
loop_
_geom_angle_atom_site_label_1
_geom_angle_atom_site_label_2
_geom_angle_atom_site_label_3
_geom_angle_site_symmetry_1
_geom_angle_site_symmetry_3
_geom_angle
O1 Ni1 O2 . . 177.3(4)
O1 Ni1 O3 . 2_566 88.0(3)
O1 Ni1 O3 . 3_556 88.0(3)
O1 Ni1 N1 . . 93.4(4)
O1 Ni1 N1 . 4_565 93.4(4)
O2 Ni1 O3 . 2_566 89.7(3)
O2 Ni1 O3 . 3_556 89.7(3)
O2 Ni1 N1 . . 88.2(4)
O2 Ni1 N1 . 4_565 88.2(4)
O3 Ni1 O3 2_566 3_556 62.5(2)
O3 Ni1 N1 2_566 . 160.4(3)
O3 Ni1 N1 2_566 4_565 98.0(3)
O3 Ni1 N1 3_556 . 98.0(3)
O3 Ni1 N1 3_556 4_565 160.4(3)
N1 Ni1 N1 . 4_565 101.4(4)
O1 S1 O2 . 2_465 109.4(7)
O1 S1 O3 . . 109.5(4)
O1 S1 O3 . 4_565 109.5(4)
O2 S1 O3 2_465 . 109.4(4)
O2 S1 O3 2_465 4_565 109.4(4)
O3 S1 O3 . 4_565 109.5(5)
Ni1 O1 S1 . . 130.0(7)
Ni1 O2 S1 . 2_565 146.3(7)
Ni1 O3 S1 2_466 . 94.0(3)
C1 C2 C1 . 4_575 119.9(13)
C1 C2 H1c2 . . 120.04
C1 C2 H1c2 4_575 . 120.04
C1 C4 C5 . . 120.2(5)
C1 C4 C6 . . 120.0(6)
C5 C4 C6 . . 119.8(9)
Ni1 N1 C5 . . 101.9(8)
Ni1 N1 H1n1 . . 109.48
Ni1 N1 H2n1 . . 109.47
C5 N1 H1n1 . . 109.48
C5 N1 H2n1 . . 109.47
H1n1 N1 H2n1 . . 116.13
C2 C1 C4 . . 119.9(7)
C2 C1 H1c1 . . 120.04
C4 C1 H1c1 . . 120.07
C4 C5 N1 . . 109.7(8)
C4 C5 H1c5 . . 109.47
C4 C5 H2c5 . . 109.47
N1 C5 H1c5 . . 109.46
N1 C5 H2c5 . . 109.47
H1c5 C5 H2c5 . . 109.22
C4 C6 C4 . 4_575 120.2(10)
C4 C6 H1c6 . . 119.9
C4 C6 H1c6 4_575 . 119.9
loop_
_geom_bond_atom_site_label_1
_geom_bond_atom_site_label_2
_geom_bond_site_symmetry_2
_geom_bond_distance
Ni1 O1 . 2.147(10)
Ni1 O2 . 1.999(10)
Ni1 O3 2_566 2.265(7)
Ni1 O3 3_556 2.265(7)
Ni1 N1 . 2.215(10)
Ni1 N1 4_565 2.215(10)
S1 O1 . 1.485(8)
S1 O2 2_465 1.485(10)
S1 O3 . 1.438(6)
S1 O3 4_565 1.438(6)
C2 C1 . 1.402(10)
C2 C1 4_575 1.402(10)
C2 H1c2 . 0.9602
C4 C1 . 1.411(16)
C4 C5 . 1.527(9)
C4 C6 . 1.396(8)
N1 C5 . 1.449(11)
N1 H1n1 . 0.8701
N1 H2n1 . 0.8702
C1 H1c1 . 0.9601
C5 H1c5 . 0.9598
C5 H2c5 . 0.9601
C6 H1c6 . 0.9599
loop_
_geom_hbond_atom_site_label_D
_geom_hbond_atom_site_label_H
_geom_hbond_atom_site_label_A
_geom_hbond_site_symmetry_A
_geom_hbond_distance_DH
_geom_hbond_distance_HA
_geom_hbond_distance_DA
_geom_hbond_angle_DHA
C1 H1c1 N1 . 0.96 2.37 2.740(10) 102.14
C5 H2c5 O3 3_556 0.96 2.41 2.968(12) 116.51
C6 H1c6 C2 2_575 0.96 2.46 3.402(19) 166.52
N1 H1n1 O1 1_554 0.87 2.25 2.893(15) 131.09
loop_
_pd_proc_point_id
_pd_proc_2theta_corrected
_pd_proc_intensity_net
_pd_calc_intensity_net
_pd_proc_ls_weight
1 9.9200 10918.60 10593.00 104.49
2 9.9400 10734.30 10605.10 103.61
3 9.9600 10738.80 10616.60 103.63
4 9.9800 10749.20 10627.60 103.68
5 10.0000 10786.40 10637.90 103.86
6 10.0200 10778.60 10647.80 103.82
7 10.0400 10847.60 10657.00 104.15
8 10.0600 10830.30 10665.80 104.07
9 10.0800 10799.60 10674.00 103.92
10 10.1000 10728.40 10681.80 103.58
11 10.1200 10717.40 10689.00 103.53
12 10.1400 10864.80 10695.80 104.23
13 10.1600 10776.50 10702.10 103.81
14 10.1800 10471.10 10707.90 102.33
15 10.2000 10747.80 10713.30 103.67
16 10.2200 10640.30 10718.30 103.15
17 10.2400 10661.40 10722.80 103.25
18 10.2600 10659.20 10726.90 103.24
19 10.2800 10762.40 10730.60 103.74
20 10.3000 10684.70 10734.00 103.37
21 10.3200 10663.90 10736.90 103.27
22 10.3400 10796.90 10739.50 103.91
23 10.3600 10691.70 10741.70 103.40
24 10.3800 10633.50 10743.50 103.12
25 10.4000 10637.60 10745.10 103.14
26 10.4200 10630.90 10746.30 103.11
27 10.4400 10695.80 10747.10 103.42
28 10.4600 10636.00 10747.70 103.13
29 10.4800 10715.20 10747.90 103.51
30 10.5000 10618.10 10747.90 103.04
31 10.5200 10703.00 10747.50 103.46
32 10.5400 10839.20 10746.90 104.11
33 10.5600 10809.30 10746.00 103.97
34 10.5800 10495.90 10744.90 102.45
35 10.6000 10663.60 10743.50 103.26
36 10.6200 10772.00 10741.90 103.79
37 10.6400 10655.40 10740.00 103.22
38 10.6600 10631.40 10737.90 103.11
39 10.6800 10582.90 10735.60 102.87
40 10.7000 10697.80 10733.10 103.43
41 10.7200 10816.10 10730.30 104.00
42 10.7400 10686.10 10727.40 103.37
43 10.7600 10752.40 10724.30 103.69
44 10.7800 10696.40 10721.00 103.42
45 10.8000 10719.80 10717.50 103.54
46 10.8200 10484.70 10713.80 102.39
47 10.8400 10724.80 10710.00 103.56
48 10.8600 10675.90 10706.00 103.32
49 10.8800 10651.60 10701.90 103.21
50 10.9000 10976.40 10697.60 104.77
51 10.9200 10654.90 10693.20 103.22
52 10.9400 10602.40 10688.70 102.97
53 10.9600 10579.40 10684.10 102.86
54 10.9800 10548.80 10679.30 102.71
55 11.0000 10483.50 10674.40 102.39
56 11.0200 10502.80 10669.40 102.48
57 11.0400 10620.40 10664.30 103.06
58 11.0600 10643.70 10659.10 103.17
59 11.0800 10686.70 10653.80 103.38
60 11.1000 10595.90 10648.50 102.94
61 11.1200 10623.10 10643.00 103.07
62 11.1400 10613.00 10637.50 103.02
63 11.1600 10518.10 10631.90 102.56
64 11.1800 10570.30 10626.30 102.81
65 11.2000 10637.60 10620.60 103.14
66 11.2200 10641.20 10614.80 103.16
67 11.2400 10538.70 10609.00 102.66
68 11.2600 10482.00 10603.10 102.38
69 11.2800 10571.10 10597.20 102.82
70 11.3000 10673.60 10591.30 103.31
71 11.3200 10612.80 10585.30 103.02
72 11.3400 10467.60 10579.30 102.31
73 11.3600 10496.30 10573.30 102.45
74 11.3800 10460.40 10567.30 102.28
75 11.4000 10656.10 10561.20 103.23
76 11.4200 10500.60 10555.10 102.47
77 11.4400 10484.00 10549.10 102.39
78 11.4600 10486.20 10543.00 102.40
79 11.4800 10406.40 10536.90 102.01
80 11.5000 10438.00 10530.80 102.17
81 11.5200 10306.00 10524.70 101.52
82 11.5400 10596.00 10518.70 102.94
83 11.5600 10410.20 10512.60 102.03
84 11.5800 10286.20 10506.60 101.42
85 11.6000 10345.40 10500.60 101.71
86 11.6200 10394.50 10494.60 101.95
87 11.6400 10352.60 10488.60 101.75
88 11.6600 10413.20 10482.70 102.04
89 11.6800 10274.60 10476.70 101.36
90 11.7000 10396.90 10470.90 101.96
91 11.7200 10397.20 10465.00 101.97
92 11.7400 10307.90 10459.20 101.53
93 11.7600 10322.10 10453.50 101.60
94 11.7800 10327.40 10447.70 101.62
95 11.8000 10488.90 10442.10 102.42
96 11.8200 10250.90 10436.40 101.25
97 11.8400 10405.20 10430.90 102.01
98 11.8600 10434.60 10425.30 102.15
99 11.8800 10440.10 10419.90 102.18
100 11.9000 10425.60 10414.50 102.11
101 11.9200 10364.60 10409.10 101.81
102 11.9400 10479.10 10403.80 102.37
103 11.9600 10316.10 10398.60 101.57
104 11.9800 10456.70 10393.50 102.26
105 12.0000 10440.10 10388.40 102.18
106 12.0200 10565.00 10383.40 102.79
107 12.0400 10409.00 10378.40 102.03
108 12.0600 10361.80 10373.50 101.79
109 12.0800 10497.00 10368.70 102.46
110 12.1000 10463.40 10364.00 102.29
111 12.1200 10523.50 10359.30 102.58
112 12.1400 10498.60 10354.80 102.46
113 12.1600 10565.40 10350.30 102.79
114 12.1800 10736.60 10345.90 103.62
115 12.2000 10492.60 10341.50 102.43
116 12.2200 10643.10 10337.30 103.17
117 12.2400 10377.80 10333.10 101.87
118 12.2600 10348.60 10329.10 101.73
119 12.2800 10502.10 10325.10 102.48
120 12.3000 10355.00 10321.20 101.76
121 12.3200 10427.80 10317.30 102.12
122 12.3400 10464.50 10313.60 102.30
123 12.3600 10507.70 10310.00 102.51
124 12.3800 10169.00 10306.50 100.84
125 12.4000 10390.60 10303.00 101.93
126 12.4200 10187.40 10299.60 100.93
127 12.4400 10379.60 10296.40 101.88
128 12.4600 10417.70 10293.20 102.07
129 12.4800 10397.70 10290.10 101.97
130 12.5000 10348.00 10287.20 101.72
131 12.5200 10511.80 10284.30 102.53
132 12.5400 10496.90 10281.50 102.45
133 12.5600 10394.90 10278.80 101.96
134 12.5800 10406.90 10276.20 102.01
135 12.6000 10281.40 10273.70 101.40
136 12.6200 10223.80 10271.30 101.11
137 12.6400 10216.50 10269.10 101.08
138 12.6600 10443.00 10266.90 102.19
139 12.6800 10349.50 10264.80 101.73
140 12.7000 10347.80 10262.80 101.72
141 12.7200 10475.50 10260.90 102.35
142 12.7400 10436.80 10259.10 102.16
143 12.7600 10399.20 10257.40 101.98
144 12.7800 10415.40 10255.80 102.06
145 12.8000 10385.00 10254.30 101.91
146 12.8200 10250.70 10252.90 101.25
147 12.8400 10492.20 10251.60 102.43
148 12.8600 10494.10 10250.40 102.44
149 12.8800 10366.50 10249.30 101.82
150 12.9000 10349.10 10248.30 101.73
151 12.9200 10421.10 10247.40 102.08
152 12.9400 10437.40 10246.60 102.16
153 12.9600 10326.20 10245.90 101.62
154 12.9800 10364.10 10245.40 101.80
155 13.0000 10367.90 10244.90 101.82
156 13.0200 10308.60 10244.50 101.53
157 13.0400 10270.80 10244.20 101.35
158 13.0600 10297.80 10244.00 101.48
159 13.0800 10362.20 10243.90 101.79
160 13.1000 10390.40 10243.90 101.93
161 13.1200 10335.30 10244.00 101.66
162 13.1400 10453.80 10244.20 102.24
163 13.1600 10349.00 10244.40 101.73
164 13.1800 10383.80 10244.80 101.90
165 13.2000 10448.30 10245.30 102.22
166 13.2200 10501.60 10245.90 102.48
167 13.2400 10589.20 10246.60 102.90
168 13.2600 10457.50 10247.30 102.26
169 13.2800 10447.40 10248.20 102.21
170 13.3000 10201.70 10249.10 101.00
171 13.3200 10339.40 10250.20 101.68
172 13.3400 10439.30 10251.30 102.17
173 13.3600 10481.80 10252.60 102.38
174 13.3800 10392.40 10253.90 101.94
175 13.4000 10431.60 10255.30 102.14
176 13.4200 10361.30 10256.80 101.79
177 13.4400 10335.10 10258.40 101.66
178 13.4600 10207.00 10260.10 101.03
179 13.4800 10308.30 10261.80 101.53
180 13.5000 10177.60 10263.70 100.88
181 13.5200 10018.00 10265.60 100.09
182 13.5400 10335.70 10267.60 101.67
183 13.5600 10195.50 10269.80 100.97
184 13.5800 10196.10 10271.90 100.98
185 13.6000 10235.40 10274.20 101.17
186 13.6200 10291.90 10276.60 101.45
187 13.6400 10281.50 10279.00 101.40
188 13.6600 10113.00 10281.50 100.56
189 13.6800 10427.90 10284.10 102.12
190 13.7000 10218.20 10286.80 101.08
191 13.7200 10085.30 10289.60 100.43
192 13.7400 10303.20 10292.40 101.50
193 13.7600 10154.60 10295.30 100.77
194 13.7800 10128.10 10298.30 100.64
195 13.8000 10157.50 10301.40 100.78
196 13.8200 10258.80 10304.50 101.29
197 13.8400 10292.50 10307.70 101.45
198 13.8600 10296.00 10311.00 101.47
199 13.8800 10096.60 10314.30 100.48
200 13.9000 10222.10 10317.70 101.10
201 13.9200 10218.90 10321.20 101.09
202 13.9400 10131.50 10324.80 100.65
203 13.9600 10244.90 10328.40 101.22
204 13.9800 10371.20 10332.10 101.84
205 14.0000 10508.20 10335.80 102.51
206 14.0200 10473.70 10339.70 102.34
207 14.0400 10659.80 10343.50 103.25
208 14.0600 10596.60 10347.50 102.94
209 14.0800 10817.00 10351.50 104.00
210 14.1000 11036.50 10355.50 105.06
211 14.1200 10943.70 10359.70 104.61
212 14.1400 10752.00 10363.80 103.69
213 14.1600 10794.00 10368.10 103.89
214 14.1800 10512.10 10372.40 102.53
215 14.2000 10320.40 10376.70 101.59
216 14.2200 10221.60 10381.10 101.10
217 14.2400 10227.70 10385.60 101.13
218 14.2600 10305.20 10390.10 101.51
219 14.2800 10197.60 10394.60 100.98
220 14.3000 10106.00 10399.20 100.53
221 14.3200 10103.20 10403.90 100.51
222 14.3400 10297.20 10408.60 101.47
223 14.3600 10359.20 10413.30 101.78
224 14.3800 10147.60 10418.10 100.74
225 14.4000 10135.30 10422.90 100.67
226 14.4200 10201.90 10427.80 101.00
227 14.4400 10030.30 10432.70 100.15
228 14.4600 10173.00 10437.70 100.86
229 14.4800 10239.50 10442.70 101.19
230 14.5000 10120.70 10447.70 100.60
231 14.5200 10097.00 10452.80 100.48
232 14.5400 10088.80 10457.90 100.44
233 14.5600 10129.80 10463.00 100.65
234 14.5800 10115.60 10468.20 100.58
235 14.6000 10268.70 10473.40 101.33
236 14.6200 10123.90 10478.70 100.62
237 14.6400 10066.80 10483.90 100.33
238 14.6600 10376.70 10489.20 101.87
239 14.6800 10222.60 10494.60 101.11
240 14.7000 10235.10 10499.90 101.17
241 14.7200 10215.80 10505.30 101.07
242 14.7400 10212.10 10510.70 101.06
243 14.7600 10338.40 10516.20 101.68
244 14.7800 10488.20 10521.60 102.41
245 14.8000 10642.50 10527.10 103.16
246 14.8200 10670.50 10532.60 103.30
247 14.8400 10551.20 10538.10 102.72
248 14.8600 10625.20 10543.70 103.08
249 14.8800 10479.30 10549.20 102.37
250 14.9000 10510.00 10554.80 102.52
251 14.9200 10505.90 10560.40 102.50
252 14.9400 10238.90 10566.00 101.19
253 14.9600 10163.40 10571.60 100.81
254 14.9800 10040.60 10577.30 100.20
255 15.0000 10141.60 10582.90 100.71
256 15.0200 10184.00 10588.60 100.92
257 15.0400 10134.70 10594.20 100.67
258 15.0600 10155.70 10599.90 100.78
259 15.0800 10148.20 10605.60 100.74
260 15.1000 10198.50 10611.30 100.99
261 15.1200 9931.10 10617.00 99.65
262 15.1400 10054.80 10622.70 100.27
263 15.1600 9965.20 10628.30 99.83
264 15.1800 10184.70 10634.00 100.92
265 15.2000 10193.50 10639.70 100.96
266 15.2200 10053.90 10645.40 100.27
267 15.2400 10017.20 10651.10 100.09
268 15.2600 10044.30 10656.80 100.22
269 15.2800 10208.80 10662.50 101.04
270 15.3000 10032.50 10668.20 100.16
271 15.3200 9891.20 10673.90 99.45
272 15.3400 10084.80 10679.60 100.42
273 15.3600 10208.30 10685.20 101.04
274 15.3800 10065.40 10690.90 100.33
275 15.4000 10286.50 10696.60 101.42
276 15.4200 10142.00 10702.20 100.71
277 15.4400 10323.70 10707.80 101.61
278 15.4600 10239.50 10713.40 101.19
279 15.4800 10182.60 10719.00 100.91
280 15.5000 10181.00 10724.60 100.90
281 15.5200 10263.20 10730.20 101.31
282 15.5400 10257.20 10735.80 101.28
283 15.5600 10354.20 10741.30 101.76
284 15.5800 10155.80 10746.80 100.78
285 15.6000 10180.70 10752.40 100.90
286 15.6200 10191.50 10757.80 100.95
287 15.6400 10316.50 10763.30 101.57
288 15.6600 10241.30 10768.70 101.20
289 15.6800 10289.10 10774.20 101.43
290 15.7000 10268.40 10779.60 101.33
291 15.7200 10350.00 10784.90 101.74
292 15.7400 10244.60 10790.30 101.22
293 15.7600 10440.50 10795.60 102.18
294 15.7800 10304.40 10800.90 101.51
295 15.8000 10567.70 10806.20 102.80
296 15.8200 10585.00 10811.40 102.88
297 15.8400 10617.30 10816.60 103.04
298 15.8600 10693.80 10821.80 103.41
299 15.8800 10830.80 10827.00 104.07
300 15.9000 10906.40 11148.20 104.43
301 15.9200 11149.00 11174.30 105.59
302 15.9400 11191.20 11202.50 105.79
303 15.9600 11609.20 11399.10 107.75
304 15.9800 11681.20 11443.90 108.08
305 16.0000 11765.70 11493.10 108.47
306 16.0200 11881.70 11547.50 109.00
307 16.0400 11903.50 11607.80 109.10
308 16.0600 11989.60 11675.20 109.50
309 16.0800 12011.40 11750.80 109.60
310 16.1000 11937.60 11836.30 109.26
311 16.1200 11818.50 11933.50 108.71
312 16.1400 11815.50 12044.90 108.70
313 16.1600 12020.20 12173.50 109.64
314 16.1800 12133.00 12323.40 110.15
315 16.2000 12480.80 12499.70 111.72
316 16.2200 12691.80 12709.40 112.66
317 16.2400 13027.30 12962.00 114.14
318 16.2600 13390.00 13270.30 115.71
319 16.2800 14240.30 13652.80 119.33
320 16.3000 15082.80 14136.30 122.81
321 16.3200 16123.50 14761.30 126.98
322 16.3400 17859.70 15592.20 133.64
323 16.3600 19961.80 16743.50 141.29
324 16.3800 22703.30 18474.20 150.68
325 16.4000 26577.00 21454.90 163.02
326 16.4200 32957.10 27178.60 181.54
327 16.4400 42548.00 38046.40 206.27
328 16.4600 57218.90 56214.40 239.21
329 16.4800 78673.90 81883.90 280.49
330 16.5000 110360.00 117467.00 332.20
331 16.5200 151282.00 151067.00 388.95
332 16.5400 186416.00 176531.00 431.76
333 16.5600 194858.00 187271.00 441.43
334 16.5800 168715.00 163286.00 410.75
335 16.6000 127014.00 124120.00 356.39
336 16.6200 84467.10 84337.60 290.63
337 16.6400 51968.00 52344.70 227.96
338 16.6600 33019.90 33787.00 181.71
339 16.6800 24261.90 24787.50 155.76
340 16.7000 19832.20 20503.60 140.83
341 16.7200 17697.40 18148.80 133.03
342 16.7400 16193.60 16629.00 127.25
343 16.7600 15405.10 15559.40 124.12
344 16.7800 14464.70 14772.90 120.27
345 16.8000 14152.80 14177.00 118.97
346 16.8200 13909.90 13714.60 117.94
347 16.8400 13746.90 13348.50 117.25
348 16.8600 13651.60 13053.80 116.84
349 16.8800 13321.20 12812.80 115.42
350 16.9000 12905.00 12613.50 113.60
351 16.9200 12986.20 12446.70 113.96
352 16.9400 12861.20 12305.70 113.41
353 16.9600 12944.00 12185.60 113.77
354 16.9800 13021.30 12082.30 114.11
355 17.0000 13267.90 11993.00 115.19
356 17.0200 13658.70 11915.30 116.87
357 17.0400 13992.70 11847.20 118.29
358 17.0600 14701.60 11787.20 121.25
359 17.0800 15136.80 11734.10 123.03
360 17.1000 15556.80 11686.90 124.73
361 17.1200 15685.00 11644.80 125.24
362 17.1400 15779.10 11257.00 125.61
363 17.1600 15429.10 11245.20 124.21
364 17.1800 15333.20 11060.50 123.83
365 17.2000 15945.10 11062.20 126.27
366 17.2200 16986.00 11063.70 130.33
367 17.2400 17959.60 11065.10 134.01
368 17.2600 19748.10 11066.50 140.53
369 17.2800 21264.10 11067.90 145.82
370 17.3000 21967.90 11069.10 148.22
371 17.3200 22120.80 11070.30 148.73
372 17.3400 21169.90 11071.40 145.50
373 17.3600 19546.80 11072.40 139.81
374 17.3800 17535.40 11073.40 132.42
375 17.4000 15657.20 11074.30 125.13
376 17.4200 14210.20 11075.10 119.21
377 17.4400 12953.20 11075.80 113.81
378 17.4600 12281.40 11076.50 110.82
379 17.4800 11923.30 11077.10 109.19
380 17.5000 11745.00 11077.60 108.37
381 17.5200 11676.70 11078.00 108.06
382 17.5400 11657.20 11078.40 107.97
383 17.5600 11583.30 11078.70 107.63
384 17.5800 11655.30 11078.90 107.96
385 17.6000 11240.30 11079.00 106.02
386 17.6200 11167.30 11079.10 105.68
387 17.6400 11009.00 11108.50 104.92
388 17.6600 10675.60 11110.40 103.32
389 17.6800 10516.40 11228.30 102.55
390 17.7000 10394.80 11238.70 101.96
391 17.7200 10496.30 11250.30 102.45
392 17.7400 10331.10 11263.10 101.64
393 17.7600 10312.70 11277.50 101.55
394 17.7800 10251.00 11293.70 101.25
395 17.8000 10317.20 11312.00 101.57
396 17.8200 10274.60 11332.80 101.36
397 17.8400 10057.00 11356.60 100.29
398 17.8600 10230.30 11384.10 101.14
399 17.8800 10089.10 11416.10 100.44
400 17.9000 9949.10 11453.60 99.75
401 17.9200 10276.50 11497.90 101.37
402 17.9400 10118.80 11550.80 100.59
403 17.9600 10132.70 11614.70 100.66
404 17.9800 10287.10 11693.00 101.43
405 18.0000 10418.00 11790.30 102.07
406 18.0200 10416.70 11913.30 102.06
407 18.0400 10611.80 12072.30 103.01
408 18.0600 10984.30 12283.20 104.81
409 18.0800 11256.00 12573.70 106.09
410 18.1000 11894.20 12999.40 109.06
411 18.1200 12720.30 13686.90 112.78
412 18.1400 14099.80 14904.60 118.74
413 18.1600 16428.20 17096.20 128.17
414 18.1800 19603.10 20624.20 140.01
415 18.2000 24111.90 25530.40 155.28
416 18.2200 30184.70 31804.40 173.74
417 18.2400 36350.00 36939.60 190.66
418 18.2600 40222.80 40863.90 200.56
419 18.2800 39850.00 40277.40 199.62
420 18.3000 35967.80 35284.50 189.65
421 18.3200 30135.90 29685.70 173.60
422 18.3400 23286.80 23817.30 152.60
423 18.3600 18155.70 19282.10 134.74
424 18.3800 14764.60 16438.80 121.51
425 18.4000 12626.00 14756.90 112.36
426 18.4200 11685.00 13732.50 108.10
427 18.4400 10903.20 13070.50 104.42
428 18.4600 10592.00 12621.90 102.92
429 18.4800 10405.90 12305.50 102.01
430 18.5000 10153.90 12074.00 100.77
431 18.5200 10064.50 11898.60 100.32
432 18.5400 9991.50 11761.90 99.96
433 18.5600 9848.60 11652.90 99.24
434 18.5800 9914.60 11564.40 99.57
435 18.6000 9788.60 11491.20 98.94
436 18.6200 9787.40 11429.90 98.93
437 18.6400 9901.10 11377.80 99.50
438 18.6600 9760.30 11333.10 98.79
439 18.6800 9749.30 11294.30 98.74
440 18.7000 9856.50 11260.30 99.28
441 18.7200 9876.10 11230.20 99.38
442 18.7400 10144.60 11203.30 100.72
443 18.7600 10208.10 11179.10 101.04
444 18.7800 10567.90 11157.20 102.80
445 18.8000 10657.60 11137.10 103.24
446 18.8200 11111.20 11118.70 105.41
447 18.8400 11008.30 11042.90 104.92
448 18.8600 10933.80 11030.80 104.57
449 18.8800 10831.30 10989.70 104.07
450 18.9000 10524.40 10980.80 102.59
451 18.9200 10270.20 10972.20 101.34
452 18.9400 10124.90 10963.90 100.62
453 18.9600 9954.80 10955.80 99.77
454 18.9800 9816.30 10947.80 99.08
455 19.0000 9788.50 10940.10 98.94
456 19.0200 9638.10 10932.40 98.17
457 19.0400 9650.60 10924.90 98.24
458 19.0600 9772.40 10917.50 98.86
459 19.0800 9686.70 10910.10 98.42
460 19.1000 9745.00 10902.80 98.72
461 19.1200 9484.80 10895.60 97.39
462 19.1400 9657.30 10888.40 98.27
463 19.1600 9774.60 10881.20 98.87
464 19.1800 9595.00 10874.10 97.95
465 19.2000 9633.40 10866.90 98.15
466 19.2200 9667.00 10859.80 98.32
467 19.2400 9857.50 10837.20 99.28
468 19.2600 9727.70 10830.70 98.63
469 19.2800 9603.60 10816.40 98.00
470 19.3000 9654.90 10810.10 98.26
471 19.3200 9646.90 10803.70 98.22
472 19.3400 9627.40 10797.30 98.12
473 19.3600 9626.90 10790.80 98.12
474 19.3800 9773.20 10784.20 98.86
475 19.4000 9665.40 10777.60 98.31
476 19.4200 9739.00 10770.80 98.69
477 19.4400 9517.30 10764.10 97.56
478 19.4600 9729.90 10757.20 98.64
479 19.4800 9830.90 10750.30 99.15
480 19.5000 9895.50 10743.40 99.48
481 19.5200 9828.30 10736.30 99.14
482 19.5400 10210.30 10729.20 101.05
483 19.5600 10142.30 10722.00 100.71
484 19.5800 10290.60 10714.80 101.44
485 19.6000 10608.40 10707.50 103.00
486 19.6200 10795.60 10700.20 103.90
487 19.6400 11029.90 10692.70 105.02
488 19.6600 11488.80 10775.40 107.19
489 19.6800 11937.50 10777.70 109.26
490 19.7000 12393.70 10781.70 111.33
491 19.7200 12632.60 11467.90 112.39
492 19.7400 12989.20 11557.00 113.97
493 19.7600 13503.20 11664.90 116.20
494 19.7800 13605.60 11796.90 116.64
495 19.8000 13791.20 11970.30 117.44
496 19.8200 13629.10 12176.50 116.74
497 19.8400 13605.00 12444.90 116.64
498 19.8600 13762.20 12789.40 117.31
499 19.8800 14315.00 13251.20 119.64
500 19.9000 15240.90 13892.60 123.45
501 19.9200 16831.70 14828.50 129.74
502 19.9400 19562.30 16293.00 139.87
503 19.9600 24014.50 18846.80 154.97
504 19.9800 31373.70 23985.90 177.13
505 20.0000 41332.10 34001.70 203.30
506 20.0200 54865.20 48955.10 234.23
507 20.0400 70194.40 64089.80 264.94
508 20.0600 82346.30 79700.50 286.96
509 20.0800 86159.50 89475.40 293.53
510 20.1000 80227.50 74957.90 283.24
511 20.1200 68096.10 60654.10 260.95
512 20.1400 53545.00 48043.50 231.40
513 20.1600 39500.50 32597.90 198.75
514 20.1800 28903.30 23697.50 170.01
515 20.2000 21976.70 19362.20 148.24
516 20.2200 17934.50 16903.80 133.92
517 20.2400 15721.00 15380.30 125.38
518 20.2600 14215.30 14396.50 119.23
519 20.2800 13420.80 13751.50 115.85
520 20.3000 12941.30 13340.60 113.76
521 20.3200 12506.80 13113.90 111.83
522 20.3400 12283.40 13060.30 110.83
523 20.3600 12253.10 13203.20 110.69
524 20.3800 12532.30 13590.30 111.95
525 20.4000 12641.50 14241.80 112.43
526 20.4200 12940.90 15126.70 113.76
527 20.4400 13270.50 16048.90 115.20
528 20.4600 13580.10 16817.00 116.53
529 20.4800 13286.50 16999.20 115.27
530 20.5000 13039.80 16293.60 114.19
531 20.5200 12770.50 15284.90 113.01
532 20.5400 12181.20 14207.20 110.37
533 20.5600 11620.10 13141.10 107.80
534 20.5800 11140.80 12335.80 105.55
535 20.6000 10975.90 11802.10 104.77
536 20.6200 10813.00 11451.20 103.99
537 20.6400 10563.40 11211.00 102.78
538 20.6600 10483.90 11038.20 102.39
539 20.6800 10487.20 10908.00 102.41
540 20.7000 10566.80 10721.40 102.79
541 20.7200 10643.40 10644.00 103.17
542 20.7400 10923.30 10580.30 104.51
543 20.7600 11003.10 10485.90 104.90
544 20.7800 11086.20 10442.10 105.29
545 20.8000 10806.90 10403.80 103.96
546 20.8200 10533.40 10369.90 102.63
547 20.8400 10560.00 10339.50 102.76
548 20.8600 10461.80 10311.80 102.28
549 20.8800 10321.10 10286.40 101.59
550 20.9000 10219.70 10262.90 101.09
551 20.9200 9946.30 10240.80 99.73
552 20.9400 9776.50 10220.00 98.88
553 20.9600 10012.30 10200.40 100.06
554 20.9800 9975.60 10181.60 99.88
555 21.0000 9927.70 10163.60 99.64
556 21.0200 10086.40 10146.30 100.43
557 21.0400 10107.30 10129.50 100.54
558 21.0600 10300.50 10113.20 101.49
559 21.0800 10567.30 10097.40 102.80
560 21.1000 10515.00 10062.70 102.54
561 21.1200 10998.20 10038.60 104.87
562 21.1400 11334.40 10025.10 106.46
563 21.1600 11595.10 9997.34 107.68
564 21.1800 11653.00 9984.78 107.95
565 21.2000 11628.60 9972.30 107.84
566 21.2200 11595.30 9959.90 107.68
567 21.2400 11494.20 9947.56 107.21
568 21.2600 11634.10 9935.27 107.86
569 21.2800 11359.50 9923.04 106.58
570 21.3000 11351.80 9910.84 106.54
571 21.3200 11374.10 9898.69 106.65
572 21.3400 11446.60 9886.56 106.99
573 21.3600 11382.70 9874.46 106.69
574 21.3800 11430.60 9972.73 106.91
575 21.4000 11477.50 9967.07 107.13
576 21.4200 11803.20 9962.00 108.64
577 21.4400 12211.10 10296.90 110.50
578 21.4600 12187.40 10314.00 110.40
579 21.4800 12526.30 10326.10 111.92
580 21.5000 12490.10 10349.40 111.76
581 21.5200 12506.10 10376.30 111.83
582 21.5400 12280.40 10403.50 110.82
583 21.5600 12501.50 10439.30 111.81
584 21.5800 12601.40 10480.50 112.26
585 21.6000 12812.10 10527.90 113.19
586 21.6200 13138.00 10582.50 114.62
587 21.6400 13505.80 10645.70 116.21
588 21.6600 13905.40 10718.90 117.92
589 21.6800 14057.70 10804.10 118.57
590 21.7000 14136.30 10903.50 118.90
591 21.7200 14122.00 11020.10 118.84
592 21.7400 13918.00 11157.70 117.97
593 21.7600 13916.50 11321.20 117.97
594 21.7800 14051.30 11516.80 118.54
595 21.8000 14144.50 11753.00 118.93
596 21.8200 14626.10 12041.00 120.94
597 21.8400 15199.50 12396.30 123.29
598 21.8600 15644.50 12840.50 125.08
599 21.8800 16389.50 13404.90 128.02
600 21.9000 17743.40 14135.30 133.20
601 21.9200 18820.70 15100.70 137.19
602 21.9400 20623.70 16409.40 143.61
603 21.9600 22697.80 18234.00 150.66
604 21.9800 25479.80 20855.70 159.62
605 22.0000 29058.70 24719.70 170.47
606 22.0200 33648.70 30433.50 183.44
607 22.0400 39733.60 38430.10 199.33
608 22.0600 47131.10 48455.00 217.10
609 22.0800 54068.40 59325.90 232.53
610 22.1000 59853.30 67440.00 244.65
611 22.1200 61918.20 69338.50 248.83
612 22.1400 59453.60 63869.50 243.83
613 22.1600 53310.20 55432.10 230.89
614 22.1800 46423.20 46178.10 215.46
615 22.2000 38835.40 36474.90 197.07
616 22.2200 31713.70 28695.10 178.08
617 22.2400 26886.90 23390.50 163.97
618 22.2600 23137.60 19865.30 152.11
619 22.2800 20437.30 17469.40 142.96
620 22.3000 18629.90 15785.30 136.49
621 22.3200 17225.80 14561.80 131.25
622 22.3400 16215.20 13646.50 127.34
623 22.3600 15295.50 12943.90 123.68
624 22.3800 14458.80 12392.50 120.25
625 22.4000 13861.80 11951.30 117.74
626 22.4200 13530.90 11592.40 116.32
627 22.4400 12999.40 11295.90 114.01
628 22.4600 12508.90 11047.80 111.84
629 22.4800 12231.00 10837.70 110.59
630 22.5000 11947.10 10657.90 109.30
631 22.5200 11621.40 10502.50 107.80
632 22.5400 11299.60 10366.90 106.30
633 22.5600 10980.30 10247.80 104.79
634 22.5800 10686.60 10142.20 103.38
635 22.6000 10361.60 10048.00 101.79
636 22.6200 10146.70 9963.46 100.73
637 22.6400 10076.00 9887.06 100.38
638 22.6600 9756.00 9817.65 98.77
639 22.6800 9971.20 9754.24 99.86
640 22.7000 9752.30 9696.04 98.75
641 22.7200 9644.50 9642.35 98.21
642 22.7400 9632.30 9592.61 98.14
643 22.7600 9450.60 9546.34 97.21
644 22.7800 9426.80 9503.13 97.09
645 22.8000 9466.20 9462.61 97.29
646 22.8200 9257.10 9314.82 96.21
647 22.8400 9251.00 9284.67 96.18
648 22.8600 9063.60 9199.33 95.20
649 22.8800 8991.10 9175.03 94.82
650 22.9000 8822.40 9151.66 93.93
651 22.9200 8875.20 9129.13 94.21
652 22.9400 8813.80 9107.37 93.88
653 22.9600 8858.60 9086.29 94.12
654 22.9800 8780.80 9065.84 93.71
655 23.0000 8702.10 9045.96 93.29
656 23.0200 8674.30 9026.61 93.14
657 23.0400 8709.10 9007.74 93.32
658 23.0600 8682.80 8989.31 93.18
659 23.0800 8729.40 8971.29 93.43
660 23.1000 8821.40 8953.64 93.92
661 23.1200 8820.80 8936.35 93.92
662 23.1400 8892.70 8919.37 94.30
663 23.1600 9016.90 8902.68 94.96
664 23.1800 9047.10 8811.76 95.12
665 23.2000 9330.20 8798.29 96.59
666 23.2200 9139.30 8746.98 95.60
667 23.2400 9147.20 8735.09 95.64
668 23.2600 9126.40 8723.21 95.53
669 23.2800 8970.00 8711.34 94.71
670 23.3000 8917.20 8699.49 94.43
671 23.3200 8936.10 8687.65 94.53
672 23.3400 8896.90 8675.83 94.32
673 23.3600 9103.20 8664.03 95.41
674 23.3800 9251.70 8652.24 96.19
675 23.4000 9211.60 8640.47 95.98
676 23.4200 9354.40 8628.71 96.72
677 23.4400 9720.60 8616.97 98.59
678 23.4600 9930.60 8605.25 99.65
679 23.4800 9919.50 8593.54 99.60
680 23.5000 9946.60 8581.86 99.73
681 23.5200 9814.90 8570.19 99.07
682 23.5400 9454.20 8558.54 97.23
683 23.5600 9213.30 8546.91 95.99
684 23.5800 9115.40 8535.30 95.47
685 23.6000 8896.70 8523.70 94.32
686 23.6200 8894.60 8512.13 94.31
687 23.6400 8757.60 8500.58 93.58
688 23.6600 8705.20 8489.05 93.30
689 23.6800 8751.80 8477.54 93.55
690 23.7000 8734.90 8466.05 93.46
691 23.7200 8484.80 8454.59 92.11
692 23.7400 8309.00 8443.14 91.15
693 23.7600 8402.30 8431.72 91.66
694 23.7800 8410.40 8420.32 91.71
695 23.8000 8325.90 8408.94 91.25
696 23.8200 8445.40 8397.58 91.90
697 23.8400 8471.50 8386.25 92.04
698 23.8600 8305.10 8374.94 91.13
699 23.8800 8135.40 8363.66 90.20
700 23.9000 8163.20 8352.40 90.35
701 23.9200 7821.40 8341.16 88.44
702 23.9400 8077.20 8329.95 89.87
703 23.9600 7858.60 8318.77 88.65
704 23.9800 7775.60 8307.60 88.18
705 24.0000 7767.90 8296.47 88.14
706 24.0200 7602.90 8285.36 87.19
707 24.0400 7746.70 8274.28 88.02
708 24.0600 7719.80 8263.22 87.86
709 24.0800 7609.80 8252.19 87.23
710 24.1000 7706.90 8241.19 87.79
711 24.1200 7785.10 8230.21 88.23
712 24.1400 7643.20 8219.26 87.43
713 24.1600 7711.60 8208.34 87.82
714 24.1800 7619.90 8197.45 87.29
715 24.2000 7626.50 8186.58 87.33
716 24.2200 7682.00 8175.75 87.65
717 24.2400 7898.30 8164.94 88.87
718 24.2600 7769.00 8154.16 88.14
719 24.2800 7721.40 8143.41 87.87
720 24.3000 7731.00 8132.69 87.93
721 24.3200 7700.30 8122.00 87.75
722 24.3400 7862.20 8111.34 88.67
723 24.3600 7724.00 8100.71 87.89
724 24.3800 7872.70 8090.11 88.73
725 24.4000 8081.30 8079.54 89.90
726 24.4200 8202.90 8069.00 90.57
727 24.4400 8243.30 8069.29 90.79
728 24.4600 8250.50 8060.40 90.83
729 24.4800 8417.40 8051.91 91.75
730 24.5000 8666.10 8950.09 93.09
731 24.5200 8840.80 9074.11 94.03
732 24.5400 8969.30 9231.11 94.71
733 24.5600 9303.80 9433.39 96.46
734 24.5800 9728.20 9700.00 98.63
735 24.6000 10278.60 10062.20 101.38
736 24.6200 10804.50 10573.70 103.94
737 24.6400 11823.90 11326.80 108.74
738 24.6600 13549.10 12485.00 116.40
739 24.6800 15701.80 14509.20 125.31
740 24.7000 18335.10 18612.90 135.41
741 24.7200 21734.10 24206.80 147.43
742 24.7400 25001.10 29954.70 158.12
743 24.7600 27054.00 35022.20 164.48
744 24.7800 27706.90 31876.70 166.45
745 24.8000 27001.10 28595.30 164.32
746 24.8200 25852.70 27949.30 160.79
747 24.8400 24087.20 24242.10 155.20
748 24.8600 23334.70 21100.30 152.76
749 24.8800 23951.00 21540.30 154.76
750 24.9000 26467.70 25090.00 162.69
751 24.9200 31139.10 31163.30 176.46
752 24.9400 36392.60 36985.70 190.77
753 24.9600 37965.50 39028.30 194.85
754 24.9800 35144.90 35095.10 187.47
755 25.0000 30728.30 29911.40 175.29
756 25.0200 26182.60 25838.00 161.81
757 25.0400 21374.80 20743.00 146.20
758 25.0600 16565.30 15618.90 128.71
759 25.0800 13112.00 12528.60 114.51
760 25.1000 11139.50 10949.10 105.54
761 25.1200 9988.00 10101.50 99.94
762 25.1400 9435.90 9583.33 97.14
763 25.1600 9098.10 9226.35 95.38
764 25.1800 8918.40 8964.60 94.44
765 25.2000 8856.20 8764.77 94.11
766 25.2200 8638.00 8607.37 92.94
767 25.2400 8640.60 8480.24 92.95
768 25.2600 8678.90 8375.38 93.16
769 25.2800 8563.00 8287.32 92.54
770 25.3000 8548.80 8212.24 92.46
771 25.3200 8850.90 8147.36 94.08
772 25.3400 8693.00 8090.63 93.24
773 25.3600 8875.40 8040.51 94.21
774 25.3800 8837.80 7995.82 94.01
775 25.4000 8801.10 7955.62 93.81
776 25.4200 9156.70 8090.93 95.69
777 25.4400 9083.30 8071.05 95.31
778 25.4600 9309.00 8039.20 96.48
779 25.4800 9316.00 8944.90 96.52
780 25.5000 9366.10 8931.52 96.78
781 25.5200 9395.60 9011.66 96.93
782 25.5400 9313.10 9115.85 96.50
783 25.5600 9558.20 9257.81 97.77
784 25.5800 9740.70 9364.34 98.69
785 25.6000 9904.60 9537.67 99.52
786 25.6200 10127.60 9751.89 100.64
787 25.6400 10362.70 9995.69 101.80
788 25.6600 10678.50 10287.90 103.34
789 25.6800 11380.60 10641.50 106.68
790 25.7000 11900.70 11074.00 109.09
791 25.7200 12618.00 11610.40 112.33
792 25.7400 13398.90 12286.10 115.75
793 25.7600 14979.80 13154.20 122.39
794 25.7800 16737.30 14265.90 129.37
795 25.8000 19005.00 15813.70 137.86
796 25.8200 22596.70 17976.00 150.32
797 25.8400 27556.10 21112.10 166.00
798 25.8600 34518.50 25900.90 185.79
799 25.8800 44725.20 33820.90 211.48
800 25.9000 58133.00 47414.80 241.11
801 25.9200 75424.70 68865.10 274.64
802 25.9400 94917.80 96232.70 308.09
803 25.9600 110049.00 119124.00 331.74
804 25.9800 116274.00 125098.00 340.99
805 26.0000 111906.00 110830.00 334.52
806 26.0200 100510.00 94947.50 317.03
807 26.0400 86265.80 81027.20 293.71
808 26.0600 71664.50 62345.60 267.70
809 26.0800 56428.30 43535.80 237.55
810 26.1000 43559.60 31229.50 208.71
811 26.1200 34477.40 24239.00 185.68
812 26.1400 27638.30 20086.20 166.25
813 26.1600 23952.10 17395.60 154.76
814 26.1800 20742.30 15566.50 144.02
815 26.2000 18761.90 14282.10 136.97
816 26.2200 16993.30 13376.00 130.36
817 26.2400 15733.20 12746.60 125.43
818 26.2600 14789.50 12338.50 121.61
819 26.2800 14212.10 12130.10 119.21
820 26.3000 13799.10 12129.70 117.47
821 26.3200 13725.40 12377.50 117.15
822 26.3400 14105.10 12949.70 118.76
823 26.3600 14718.10 13950.30 121.32
824 26.3800 15322.10 15455.70 123.78
825 26.4000 16350.00 17389.50 127.87
826 26.4200 17533.40 19504.20 132.41
827 26.4400 18191.70 21310.30 134.88
828 26.4600 18312.70 21846.50 135.32
829 26.4800 18263.50 20929.90 135.14
830 26.5000 17119.20 19282.50 130.84
831 26.5200 16189.90 17623.90 127.24
832 26.5400 15208.80 15650.40 123.32
833 26.5600 13952.60 13689.50 118.12
834 26.5800 12618.90 12021.40 112.33
835 26.6000 11808.60 10877.50 108.67
836 26.6200 11284.70 10102.90 106.23
837 26.6400 10732.80 9547.29 103.60
838 26.6600 10297.40 9151.21 101.48
839 26.6800 10116.80 8870.98 100.58
840 26.7000 9786.50 8650.25 98.93
841 26.7200 9764.20 8478.23 98.81
842 26.7400 9518.70 8341.44 97.56
843 26.7600 9658.80 8231.11 98.28
844 26.7800 9673.90 8141.30 98.36
845 26.8000 9677.50 8067.90 98.37
846 26.8200 9658.60 8008.04 98.28
847 26.8400 9561.80 7959.68 97.78
848 26.8600 9582.80 7921.40 97.89
849 26.8800 9377.50 7892.26 96.84
850 26.9000 9271.80 7871.74 96.29
851 26.9200 9292.30 7859.66 96.40
852 26.9400 9235.90 7856.21 96.10
853 26.9600 9228.50 7861.95 96.07
854 26.9800 9021.40 7877.87 94.98
855 27.0000 9022.50 7905.51 94.99
856 27.0200 8975.30 7824.77 94.74
857 27.0400 9201.50 7888.24 95.92
858 27.0600 9369.20 7973.69 96.79
859 27.0800 9245.10 8088.48 96.15
860 27.1000 9349.70 8184.89 96.69
861 27.1200 9793.00 8400.52 98.96
862 27.1400 9808.70 8702.80 99.04
863 27.1600 10413.50 9141.61 102.05
864 27.1800 10899.20 9808.13 104.40
865 27.2000 11752.00 10858.50 108.41
866 27.2200 12937.90 12512.10 113.75
867 27.2400 14238.20 14926.80 119.32
868 27.2600 15902.80 17887.00 126.11
869 27.2800 17513.80 21036.30 132.34
870 27.3000 18064.90 22974.60 134.41
871 27.3200 17889.00 22044.30 133.75
872 27.3400 16964.40 20023.10 130.25
873 27.3600 15802.80 18376.80 125.71
874 27.3800 14356.80 16339.40 119.82
875 27.4000 12626.50 13804.10 112.37
876 27.4200 11146.10 11683.30 105.57
877 27.4400 10017.60 10244.20 100.09
878 27.4600 9344.80 9338.70 96.67
879 27.4800 8598.20 8760.19 92.73
880 27.5000 8204.50 8368.65 90.58
881 27.5200 7943.10 8089.17 89.12
882 27.5400 7664.30 7882.01 87.55
883 27.5600 7490.10 7723.78 86.55
884 27.5800 7250.50 7599.74 85.15
885 27.6000 7331.60 7484.09 85.62
886 27.6200 7297.00 7403.32 85.42
887 27.6400 7230.80 7336.27 85.03
888 27.6600 7222.80 7271.74 84.99
889 27.6800 7005.80 7223.95 83.70
890 27.7000 7126.30 7182.82 84.42
891 27.7200 7092.80 7147.08 84.22
892 27.7400 7083.60 7115.73 84.16
893 27.7600 6850.30 7088.03 82.77
894 27.7800 6868.00 7063.36 82.87
895 27.8000 6854.10 7041.23 82.79
896 27.8200 6839.10 7021.26 82.70
897 27.8400 6889.30 7003.13 83.00
898 27.8600 6820.70 6986.58 82.59
899 27.8800 6835.20 6971.39 82.68
900 27.9000 6796.30 6957.39 82.44
901 27.9200 6738.80 6944.43 82.09
902 27.9400 6766.20 6932.38 82.26
903 27.9600 6707.30 6897.54 81.90
904 27.9800 6711.00 6888.35 81.92
905 28.0000 6722.70 6879.69 81.99
906 28.0200 6693.60 6871.50 81.81
907 28.0400 6863.00 6852.40 82.84
908 28.0600 6599.70 6845.64 81.24
909 28.0800 6840.90 6839.17 82.71
910 28.1000 6636.20 6832.97 81.46
911 28.1200 6596.70 6827.01 81.22
912 28.1400 6725.10 6821.27 82.01
913 28.1600 6604.50 6815.73 81.27
914 28.1800 6683.00 6810.39 81.75
915 28.2000 6636.20 6805.22 81.46
916 28.2200 6696.40 6800.21 81.83
917 28.2400 6627.10 6795.36 81.41
918 28.2600 6638.60 6790.65 81.48
919 28.2800 6745.60 6786.07 82.13
920 28.3000 6736.20 6781.61 82.07
921 28.3200 6688.70 6777.28 81.78
922 28.3400 6749.40 6773.05 82.15
923 28.3600 6816.10 6768.93 82.56
924 28.3800 6882.10 6764.91 82.96
925 28.4000 7151.80 6760.99 84.57
926 28.4200 7080.50 6757.15 84.15
927 28.4400 7194.10 6753.40 84.82
928 28.4600 7079.40 6733.67 84.14
929 28.4800 6985.90 6730.62 83.58
930 28.5000 6993.70 6727.62 83.63
931 28.5200 7173.40 6724.66 84.70
932 28.5400 7089.80 6713.95 84.20
933 28.5600 7078.00 6711.35 84.13
934 28.5800 6987.80 6708.78 83.59
935 28.6000 6953.50 6706.24 83.39
936 28.6200 6979.90 6703.73 83.55
937 28.6400 6873.00 6701.25 82.90
938 28.6600 6887.80 6698.81 82.99
939 28.6800 7026.20 6696.40 83.82
940 28.7000 6845.10 6694.02 82.74
941 28.7200 6947.50 6691.67 83.35
942 28.7400 7018.20 6689.35 83.77
943 28.7600 7087.20 6687.06 84.19
944 28.7800 7148.90 6684.81 84.55
945 28.8000 7257.70 6682.58 85.19
946 28.8200 7493.00 6680.38 86.56
947 28.8400 7588.80 6678.22 87.11
948 28.8600 7734.30 6676.09 87.94
949 28.8800 7753.30 6673.98 88.05
950 28.9000 8016.10 6671.91 89.53
951 28.9200 8020.30 6669.86 89.56
952 28.9400 8017.10 6667.85 89.54
953 28.9600 7924.30 6665.86 89.02
954 28.9800 7789.60 6663.90 88.26
955 29.0000 7665.30 6661.97 87.55
956 29.0200 7391.60 6660.08 85.97
957 29.0400 7250.50 6658.21 85.15
958 29.0600 7052.80 6656.36 83.98
959 29.0800 6932.10 6654.55 83.26
960 29.1000 6812.60 6652.77 82.54
961 29.1200 6903.80 6651.01 83.09
962 29.1400 6896.10 6649.28 83.04
963 29.1600 6775.20 6647.58 82.31
964 29.1800 6839.40 6645.90 82.70
965 29.2000 6971.40 6644.26 83.49
966 29.2200 7093.00 6642.64 84.22
967 29.2400 6884.20 6641.05 82.97
968 29.2600 6983.40 6639.48 83.57
969 29.2800 7108.00 6637.94 84.31
970 29.3000 7217.70 6636.43 84.96
971 29.3200 6961.90 6634.94 83.44
972 29.3400 7060.00 6633.48 84.02
973 29.3600 7059.30 6632.05 84.02
974 29.3800 7041.10 6630.64 83.91
975 29.4000 6991.30 6629.26 83.61
976 29.4200 7042.20 6627.90 83.92
977 29.4400 7022.00 6626.57 83.80
978 29.4600 7125.20 6625.26 84.41
979 29.4800 7081.00 6623.98 84.15
980 29.5000 7169.00 6622.72 84.67
981 29.5200 7140.50 6621.49 84.50
982 29.5400 7124.90 6620.28 84.41
983 29.5600 7093.20 6619.09 84.22
984 29.5800 6964.20 6617.93 83.45
985 29.6000 6957.80 6616.80 83.41
986 29.6200 6743.40 6615.68 82.12
987 29.6400 6857.40 6614.59 82.81
988 29.6600 6948.40 6613.53 83.36
989 29.6800 6874.50 6612.48 82.91
990 29.7000 6812.40 6611.46 82.54
991 29.7200 6728.20 6610.46 82.03
992 29.7400 6659.00 6609.49 81.60
993 29.7600 6556.60 6608.54 80.97
994 29.7800 6504.40 6607.60 80.65
995 29.8000 6588.60 6606.70 81.17
996 29.8200 6400.70 6605.81 80.00
997 29.8400 6261.50 6604.94 79.13
998 29.8600 6384.50 6604.10 79.90
999 29.8800 6325.60 6603.28 79.53
1000 29.9000 6307.80 6602.47 79.42
1001 29.9200 6427.80 6601.69 80.17
1002 29.9400 6237.70 6600.93 78.98
1003 29.9600 6419.60 6600.19 80.12
1004 29.9800 6366.40 6599.47 79.79
1005 30.0000 6402.70 6598.77 80.02
1006 30.0200 6328.60 6598.09 79.55
1007 30.0400 6371.60 6597.43 79.82
1008 30.0600 6372.00 6596.79 79.82
1009 30.0800 6406.40 6596.17 80.04
1010 30.1000 6491.60 6595.57 80.57
1011 30.1200 6436.80 6615.66 80.23
1012 30.1400 6482.10 6616.11 80.51
1013 30.1600 6686.00 6616.66 81.77
1014 30.1800 6569.80 6617.31 81.05
1015 30.2000 6441.70 6701.61 80.26
1016 30.2200 6306.40 6706.84 79.41
1017 30.2400 6474.10 6712.56 80.46
1018 30.2600 6476.50 6719.70 80.48
1019 30.2800 6552.40 6726.58 80.95
1020 30.3000 6499.30 6734.13 80.62
1021 30.3200 6553.60 6742.42 80.95
1022 30.3400 6572.40 6751.54 81.07
1023 30.3600 6566.00 6761.59 81.03
1024 30.3800 6602.80 6772.70 81.26
1025 30.4000 6660.10 6785.02 81.61
1026 30.4200 6625.90 6798.70 81.40
1027 30.4400 6577.50 6813.95 81.10
1028 30.4600 6528.30 6831.00 80.80
1029 30.4800 6482.40 6850.15 80.51
1030 30.5000 6413.70 6871.74 80.09
1031 30.5200 6554.50 6896.18 80.96
1032 30.5400 6477.30 6923.99 80.48
1033 30.5600 6464.90 6957.03 80.40
1034 30.5800 6467.20 6993.74 80.42
1035 30.6000 6555.70 7036.25 80.97
1036 30.6200 6543.50 7089.43 80.89
1037 30.6400 6614.60 7148.03 81.33
1038 30.6600 6624.80 7217.54 81.39
1039 30.6800 6803.50 7300.89 82.48
1040 30.7000 6836.70 7402.03 82.68
1041 30.7200 7018.20 7526.65 83.77
1042 30.7400 7278.90 7683.08 85.32
1043 30.7600 7517.00 7883.81 86.70
1044 30.7800 7867.80 8148.41 88.70
1045 30.8000 8257.70 8508.37 90.87
1046 30.8200 8913.70 9016.21 94.41
1047 30.8400 9842.90 9758.80 99.21
1048 30.8600 10711.10 10871.00 103.49
1049 30.8800 12096.40 12527.90 109.98
1050 30.9000 13692.70 14868.50 117.02
1051 30.9200 15635.20 17799.80 125.04
1052 30.9400 17311.10 20818.40 131.57
1053 30.9600 18544.60 23026.90 136.18
1054 30.9800 18743.20 23374.80 136.91
1055 31.0000 18530.50 22190.50 136.13
1056 31.0200 17712.50 20710.50 133.09
1057 31.0400 16166.80 19341.80 127.15
1058 31.0600 15070.10 17759.10 122.76
1059 31.0800 13598.70 16041.90 116.61
1060 31.1000 12149.90 14527.30 110.23
1061 31.1200 11122.90 13035.40 105.46
1062 31.1400 10005.60 11564.60 100.03
1063 31.1600 9212.40 10513.20 95.98
1064 31.1800 8563.80 9893.32 92.54
1065 31.2000 8029.00 9329.56 89.60
1066 31.2200 7667.40 8685.69 87.56
1067 31.2400 7303.10 8159.18 85.46
1068 31.2600 7057.00 7807.25 84.01
1069 31.2800 6891.20 7585.20 83.01
1070 31.3000 6799.00 7431.73 82.46
1071 31.3200 6695.20 7322.01 81.82
1072 31.3400 6537.60 7232.42 80.86
1073 31.3600 6515.00 7160.44 80.72
1074 31.3800 6460.00 7101.32 80.37
1075 31.4000 6282.30 7051.95 79.26
1076 31.4200 6249.30 7010.21 79.05
1077 31.4400 6386.80 6974.56 79.92
1078 31.4600 6185.20 6955.83 78.65
1079 31.4800 6209.10 6929.73 78.80
1080 31.5000 6173.30 6907.10 78.57
1081 31.5200 6164.80 6887.38 78.52
1082 31.5400 6180.90 6876.06 78.62
1083 31.5600 6046.90 6861.25 77.76
1084 31.5800 6201.30 6848.34 78.75
1085 31.6000 6105.50 6837.09 78.14
1086 31.6200 6079.80 6827.32 77.97
1087 31.6400 6020.80 6818.87 77.59
1088 31.6600 6076.30 6810.45 77.95
1089 31.6800 6057.30 6804.38 77.83
1090 31.7000 6131.10 6799.30 78.30
1091 31.7200 6123.40 6795.17 78.25
1092 31.7400 5972.30 6791.33 77.28
1093 31.7600 6136.70 6788.95 78.34
1094 31.7800 6267.00 6787.39 79.16
1095 31.8000 6216.90 6765.84 78.85
1096 31.8200 6256.50 6766.83 79.10
1097 31.8400 6440.70 6768.55 80.25
1098 31.8600 6467.70 6771.04 80.42
1099 31.8800 6529.10 6764.05 80.80
1100 31.9000 6516.50 6768.65 80.72
1101 31.9200 6517.70 6774.12 80.73
1102 31.9400 6536.20 6780.55 80.85
1103 31.9600 6563.60 6788.05 81.02
1104 31.9800 6568.80 6796.72 81.05
1105 32.0000 6527.60 6806.73 80.79
1106 32.0200 6614.90 6816.44 81.33
1107 32.0400 6613.20 6829.79 81.32
1108 32.0600 6547.70 6845.15 80.92
1109 32.0800 6580.30 6878.57 81.12
1110 32.1000 6586.20 6898.72 81.16
1111 32.1200 6544.60 6923.17 80.90
1112 32.1400 6705.40 6951.66 81.89
1113 32.1600 6644.60 6992.75 81.51
1114 32.1800 6637.80 7032.45 81.47
1115 32.2000 6628.40 7079.70 81.42
1116 32.2200 6660.90 7136.53 81.61
1117 32.2400 6854.90 7187.63 82.79
1118 32.2600 6981.40 7273.38 83.55
1119 32.2800 6979.40 7382.13 83.54
1120 32.3000 7227.20 7523.26 85.01
1121 32.3200 7249.50 7703.52 85.14
1122 32.3400 7706.70 7966.23 87.79
1123 32.3600 8083.30 8341.35 89.91
1124 32.3800 8488.80 8882.56 92.13
1125 32.4000 9179.70 9655.22 95.81
1126 32.4200 9715.30 10716.60 98.57
1127 32.4400 10319.90 12070.80 101.59
1128 32.4600 11126.70 13593.00 105.48
1129 32.4800 11889.80 14982.10 109.04
1130 32.5000 12321.40 15805.60 111.00
1131 32.5200 12302.30 15798.00 110.92
1132 32.5400 12086.70 15203.90 109.94
1133 32.5600 11687.20 14413.40 108.11
1134 32.5800 11157.80 13518.30 105.63
1135 32.6000 10724.50 12437.30 103.56
1136 32.6200 9981.00 11266.00 99.90
1137 32.6400 9542.90 10186.20 97.69
1138 32.6600 8783.10 9325.81 93.72
1139 32.6800 8541.70 8689.98 92.42
1140 32.7000 8160.90 8238.49 90.34
1141 32.7200 7985.60 7961.56 89.36
1142 32.7400 7822.60 7743.33 88.45
1143 32.7600 7724.80 7589.10 87.89
1144 32.7800 7680.70 7477.86 87.64
1145 32.8000 7583.50 7396.33 87.08
1146 32.8200 7607.50 7336.25 87.22
1147 32.8400 7558.80 7292.53 86.94
1148 32.8600 7619.20 7261.98 87.29
1149 32.8800 7696.00 7242.56 87.73
1150 32.9000 7855.00 7233.04 88.63
1151 32.9200 8091.10 7232.77 89.95
1152 32.9400 8376.70 7241.59 91.52
1153 32.9600 8528.60 7259.81 92.35
1154 32.9800 9163.50 7288.23 95.73
1155 33.0000 9712.40 7328.24 98.55
1156 33.0200 10061.20 7382.05 100.31
1157 33.0400 10338.50 7453.04 101.68
1158 33.0600 10718.70 7553.10 103.53
1159 33.0800 10998.50 7677.56 104.87
1160 33.1000 11382.90 7846.18 106.69
1161 33.1200 11665.40 8080.38 108.01
1162 33.1400 11775.00 8418.94 108.51
1163 33.1600 11900.80 8923.24 109.09
1164 33.1800 12131.70 9741.09 110.14
1165 33.2000 12820.00 11157.80 113.22
1166 33.2200 13708.50 13582.80 117.08
1167 33.2400 14704.70 17235.40 121.26
1168 33.2600 15767.90 21454.70 125.57
1169 33.2800 16575.60 24534.40 128.75
1170 33.3000 16892.60 24488.40 129.97
1171 33.3200 16637.40 22186.20 128.99
1172 33.3400 16123.60 20240.50 126.98
1173 33.3600 15229.80 19291.50 123.41
1174 33.3800 14715.80 18186.60 121.31
1175 33.4000 14252.30 16395.80 119.38
1176 33.4200 13910.80 15044.90 117.94
1177 33.4400 14082.50 14957.70 118.67
1178 33.4600 14816.70 15934.30 121.72
1179 33.4800 15834.20 17103.90 125.83
1180 33.5000 15799.00 17397.70 125.69
1181 33.5200 14823.80 16467.50 121.75
1182 33.5400 13638.30 15170.00 116.78
1183 33.5600 12657.00 14136.40 112.50
1184 33.5800 11966.30 13174.00 109.39
1185 33.6000 11176.30 11908.20 105.72
1186 33.6200 10029.70 10497.40 100.15
1187 33.6400 8939.50 9325.27 94.55
1188 33.6600 8205.40 8503.59 90.58
1189 33.6800 7807.50 7986.31 88.36
1190 33.7000 7660.30 7679.53 87.52
1191 33.7200 7602.60 7489.28 87.19
1192 33.7400 7434.50 7362.70 86.22
1193 33.7600 7275.30 7260.69 85.30
1194 33.7800 7470.70 7190.85 86.43
1195 33.8000 7581.00 7135.85 87.07
1196 33.8200 7727.40 7091.93 87.91
1197 33.8400 7846.70 7051.44 88.58
1198 33.8600 8132.70 7023.20 90.18
1199 33.8800 8195.60 7000.67 90.53
1200 33.9000 8394.90 6983.01 91.62
1201 33.9200 8282.80 6969.62 91.01
1202 33.9400 8087.10 6947.04 89.93
1203 33.9600 8104.30 6941.95 90.02
1204 33.9800 7907.40 6940.39 88.92
1205 34.0000 7759.80 6942.42 88.09
1206 34.0200 7643.40 6941.68 87.43
1207 34.0400 7649.80 6952.16 87.46
1208 34.0600 7575.80 6967.48 87.04
1209 34.0800 7511.00 6988.62 86.67
1210 34.1000 7573.10 7017.02 87.02
1211 34.1200 7648.60 7054.90 87.46
1212 34.1400 7805.50 7105.65 88.35
1213 34.1600 8106.90 7174.55 90.04
1214 34.1800 8267.20 7269.91 90.92
1215 34.2000 8386.80 7405.26 91.58
1216 34.2200 8593.10 7605.09 92.70
1217 34.2400 8882.70 7916.39 94.25
1218 34.2600 9220.70 8424.12 96.02
1219 34.2800 9499.70 9246.68 97.47
1220 34.3000 10399.90 10465.60 101.98
1221 34.3200 10894.10 11955.20 104.38
1222 34.3400 11487.20 13261.40 107.18
1223 34.3600 11728.40 13796.80 108.30
1224 34.3800 11809.40 13320.80 108.67
1225 34.4000 11159.30 12506.30 105.64
1226 34.4200 10777.10 11874.10 103.81
1227 34.4400 10274.30 11329.90 101.36
1228 34.4600 9684.50 10552.10 98.41
1229 34.4800 9258.10 9572.34 96.22
1230 34.5000 8611.70 8675.62 92.80
1231 34.5200 8221.30 8038.89 90.67
1232 34.5400 7946.70 7632.50 89.14
1233 34.5600 7518.90 7380.65 86.71
1234 34.5800 7372.90 7209.47 85.87
1235 34.6000 6993.60 7096.09 83.63
1236 34.6200 6825.10 7013.40 82.61
1237 34.6400 6754.40 6951.07 82.19
1238 34.6600 6688.00 6902.82 81.78
1239 34.6800 6631.20 6864.51 81.43
1240 34.7000 6594.40 6833.42 81.21
1241 34.7200 6601.80 6807.74 81.25
1242 34.7400 6488.10 6786.20 80.55
1243 34.7600 6464.80 6767.92 80.40
1244 34.7800 6556.10 6752.25 80.97
1245 34.8000 6357.50 6738.68 79.73
1246 34.8200 6342.30 6726.86 79.64
1247 34.8400 6425.10 6716.46 80.16
1248 34.8600 6334.00 6707.26 79.59
1249 34.8800 6404.60 6699.06 80.03
1250 34.9000 6352.50 6691.72 79.70
1251 34.9200 6679.60 6685.10 81.73
1252 34.9400 6642.60 6679.10 81.50
1253 34.9600 6926.10 6673.64 83.22
1254 34.9800 7204.00 6680.41 84.88
1255 35.0000 7134.90 6676.16 84.47
1256 35.0200 7260.00 6672.28 85.21
1257 35.0400 7343.00 6668.73 85.69
1258 35.0600 7410.10 6671.17 86.08
1259 35.0800 7328.10 6668.33 85.60
1260 35.1000 7274.60 6659.17 85.29
1261 35.1200 7225.60 6657.12 85.00
1262 35.1400 7149.30 6655.25 84.55
1263 35.1600 6965.90 6653.53 83.46
1264 35.1800 6951.20 6651.96 83.37
1265 35.2000 6689.40 6647.37 81.79
1266 35.2200 6504.40 6646.23 80.65
1267 35.2400 6423.90 6645.19 80.15
1268 35.2600 6266.50 6644.27 79.16
1269 35.2800 6197.00 6643.44 78.72
1270 35.3000 6179.40 6642.73 78.61
1271 35.3200 6232.90 6642.11 78.95
1272 35.3400 6139.40 6653.20 78.35
1273 35.3600 6184.50 6653.27 78.64
1274 35.3800 6017.60 6653.47 77.57
1275 35.4000 6139.80 6653.81 78.36
1276 35.4200 6070.70 6659.90 77.91
1277 35.4400 6145.50 6660.78 78.39
1278 35.4600 6145.20 6661.83 78.39
1279 35.4800 6232.90 6663.08 78.95
1280 35.5000 6459.80 6664.53 80.37
1281 35.5200 6556.00 6666.21 80.97
1282 35.5400 6873.40 6668.13 82.91
1283 35.5600 7105.40 6670.32 84.29
1284 35.5800 7224.10 6672.79 84.99
1285 35.6000 7582.70 6675.58 87.08
1286 35.6200 7682.40 6678.72 87.65
1287 35.6400 7781.30 6682.25 88.21
1288 35.6600 7730.60 6679.75 87.92
1289 35.6800 7589.70 6684.38 87.12
1290 35.7000 7614.50 6689.55 87.26
1291 35.7200 7369.20 6695.31 85.84
1292 35.7400 7086.70 6698.51 84.18
1293 35.7600 7007.10 6705.80 83.71
1294 35.7800 6796.50 6713.98 82.44
1295 35.8000 6581.40 6723.14 81.13
1296 35.8200 6451.00 6733.45 80.32
1297 35.8400 6429.10 6745.09 80.18
1298 35.8600 6287.80 6758.27 79.30
1299 35.8800 6218.50 6773.24 78.86
1300 35.9000 6413.10 6790.33 80.08
1301 35.9200 6235.90 6809.92 78.97
1302 35.9400 6206.00 6832.49 78.78
1303 35.9600 6266.00 6858.64 79.16
1304 35.9800 6291.40 6889.11 79.32
1305 36.0000 6201.20 6924.87 78.75
1306 36.0200 6246.20 6967.18 79.03
1307 36.0400 6514.70 7017.71 80.71
1308 36.0600 6549.40 7081.48 80.93
1309 36.0800 6707.50 7156.44 81.90
1310 36.1000 6819.40 7250.02 82.58
1311 36.1200 6933.20 7369.64 83.27
1312 36.1400 7347.10 7526.91 85.72
1313 36.1600 7795.10 7774.37 88.29
1314 36.1800 8074.70 8075.77 89.86
1315 36.2000 8531.70 8509.83 92.37
1316 36.2200 9532.70 9141.29 97.64
1317 36.2400 10306.70 10047.00 101.52
1318 36.2600 11393.80 11288.40 106.74
1319 36.2800 12467.00 12855.50 111.66
1320 36.3000 13703.90 14578.00 117.06
1321 36.3200 14921.40 16071.40 122.15
1322 36.3400 15277.60 16840.90 123.60
1323 36.3600 15256.60 16681.60 123.52
1324 36.3800 14770.20 15967.30 121.53
1325 36.4000 14323.00 15149.00 119.68
1326 36.4200 13162.70 14314.40 114.73
1327 36.4400 12398.60 13311.60 111.35
1328 36.4600 11498.60 12104.90 107.23
1329 36.4800 10470.30 10890.00 102.32
1330 36.5000 9541.10 9850.54 97.68
1331 36.5200 8682.90 9057.72 93.18
1332 36.5400 8099.00 8475.19 89.99
1333 36.5600 7709.00 8066.68 87.80
1334 36.5800 7406.90 7782.81 86.06
1335 36.6000 7228.00 7583.51 85.02
1336 36.6200 6995.50 7486.93 83.64
1337 36.6400 7012.20 7384.56 83.74
1338 36.6600 7024.10 7309.31 83.81
1339 36.6800 7014.80 7254.23 83.75
1340 36.7000 7088.00 7214.99 84.19
1341 36.7200 7114.60 7188.93 84.35
1342 36.7400 7250.70 7174.50 85.15
1343 36.7600 7396.60 7170.99 86.00
1344 36.7800 7415.50 7178.38 86.11
1345 36.8000 7680.50 7197.34 87.64
1346 36.8200 8131.20 7229.50 90.17
1347 36.8400 8364.60 7278.02 91.46
1348 36.8600 8642.60 7348.87 92.97
1349 36.8800 8980.50 7453.50 94.77
1350 36.9000 9263.20 7612.40 96.25
1351 36.9200 9751.80 7858.55 98.75
1352 36.9400 10125.10 8236.00 100.62
1353 36.9600 10614.20 8793.79 103.03
1354 36.9800 11382.00 9542.60 106.69
1355 37.0000 12200.50 10443.20 110.46
1356 37.0200 13044.60 11362.80 114.21
1357 37.0400 14362.10 12116.40 119.84
1358 37.0600 14722.90 12612.70 121.34
1359 37.0800 15205.80 12935.10 123.31
1360 37.1000 15230.80 13091.10 123.41
1361 37.1200 15203.00 12998.80 123.30
1362 37.1400 14818.00 12627.20 121.73
1363 37.1600 13966.30 12083.80 118.18
1364 37.1800 13168.00 11534.70 114.75
1365 37.2000 12380.20 11002.80 111.27
1366 37.2200 11834.40 10517.60 108.79
1367 37.2400 11195.80 10127.20 105.81
1368 37.2600 10787.00 9912.56 103.86
1369 37.2800 10760.80 9959.21 103.73
1370 37.3000 10674.20 10361.50 103.32
1371 37.3200 11208.90 11220.10 105.87
1372 37.3400 11704.90 12573.00 108.19
1373 37.3600 12356.60 14311.60 111.16
1374 37.3800 13235.20 15995.20 115.04
1375 37.4000 13732.10 16969.40 117.18
1376 37.4200 13980.90 16800.10 118.24
1377 37.4400 13413.60 15882.20 115.82
1378 37.4600 13064.30 14929.90 114.30
1379 37.4800 12595.90 14156.50 112.23
1380 37.5000 12042.80 13331.30 109.74
1381 37.5200 11285.50 12211.80 106.23
1382 37.5400 10747.70 10943.00 103.67
1383 37.5600 10208.60 9804.21 101.04
1384 37.5800 9556.10 8930.31 97.76
1385 37.6000 9081.20 8322.75 95.30
1386 37.6200 8794.00 7923.08 93.78
1387 37.6400 8293.20 7657.57 91.07
1388 37.6600 8089.60 7477.07 89.94
1389 37.6800 7754.50 7350.49 88.06
1390 37.7000 7523.70 7249.05 86.74
1391 37.7200 7365.60 7201.62 85.82
1392 37.7400 7097.70 7163.63 84.25
1393 37.7600 7081.50 7141.26 84.15
1394 37.7800 7006.60 7135.94 83.71
1395 37.8000 6944.30 7142.88 83.33
1396 37.8200 6952.10 7177.18 83.38
1397 37.8400 7060.10 7242.74 84.02
1398 37.8600 7087.00 7354.36 84.18
1399 37.8800 7140.90 7545.14 84.50
1400 37.9000 7572.50 7868.54 87.02
1401 37.9200 8025.00 8383.75 89.58
1402 37.9400 8551.30 9148.31 92.47
1403 37.9600 8992.20 10157.80 94.83
1404 37.9800 9742.90 11282.60 98.71
1405 38.0000 10551.90 12240.70 102.72
1406 38.0200 10944.40 12704.60 104.61
1407 38.0400 10960.70 12654.10 104.69
1408 38.0600 10804.70 12387.40 103.95
1409 38.0800 10640.20 12104.90 103.15
1410 38.1000 10591.80 11759.40 102.92
1411 38.1200 10114.60 11231.20 100.57
1412 38.1400 9634.50 10527.00 98.16
1413 38.1600 9246.10 9799.61 96.16
1414 38.1800 8809.10 9155.82 93.86
1415 38.2000 8436.30 8625.63 91.85
1416 38.2200 7998.70 8225.58 89.44
1417 38.2400 7836.30 7924.62 88.52
1418 38.2600 8000.20 7725.23 89.44
1419 38.2800 7903.10 7609.12 88.90
1420 38.3000 8026.90 7603.64 89.59
1421 38.3200 8135.00 7735.36 90.19
1422 38.3400 8247.60 8040.12 90.82
1423 38.3600 8806.60 8557.61 93.84
1424 38.3800 9187.50 9247.36 95.85
1425 38.4000 9745.00 9901.54 98.72
1426 38.4200 10092.90 10241.30 100.46
1427 38.4400 9937.60 10095.30 99.69
1428 38.4600 9913.50 9688.99 99.57
1429 38.4800 9520.50 9321.56 97.57
1430 38.5000 9129.80 9064.41 95.55
1431 38.5200 8781.60 8805.82 93.71
1432 38.5400 8468.50 8412.64 92.02
1433 38.5600 7970.60 7940.83 89.28
1434 38.5800 7577.50 7508.63 87.05
1435 38.6000 7126.40 7182.24 84.42
1436 38.6200 6760.30 6964.01 82.22
1437 38.6400 6605.90 6825.60 81.28
1438 38.6600 6476.50 6737.17 80.48
1439 38.6800 6324.30 6678.39 79.53
1440 38.7000 6360.50 6637.64 79.75
1441 38.7200 6464.30 6608.50 80.40
1442 38.7400 6350.10 6587.28 79.69
1443 38.7600 6379.10 6571.81 79.87
1444 38.7800 6384.80 6560.81 79.90
1445 38.8000 6530.80 6544.24 80.81
1446 38.8200 6671.90 6540.43 81.68
1447 38.8400 6715.00 6539.61 81.95
1448 38.8600 6973.10 6541.69 83.51
1449 38.8800 7039.90 6546.69 83.90
1450 38.9000 7142.20 6550.23 84.51
1451 38.9200 7111.70 6561.85 84.33
1452 38.9400 7232.10 6572.60 85.04
1453 38.9600 7206.80 6592.88 84.89
1454 38.9800 7201.20 6618.85 84.86
1455 39.0000 7241.50 6652.17 85.10
1456 39.0200 7198.40 6695.40 84.84
1457 39.0400 7162.50 6749.91 84.63
1458 39.0600 7354.30 6825.72 85.76
1459 39.0800 7266.70 6923.11 85.24
1460 39.1000 7377.90 7059.11 85.89
1461 39.1200 7570.30 7238.32 87.01
1462 39.1400 8015.30 7468.21 89.53
1463 39.1600 8300.50 7750.91 91.11
1464 39.1800 8505.80 8073.81 92.23
1465 39.2000 9106.10 8408.23 95.43
1466 39.2200 9755.20 8691.36 98.77
1467 39.2400 9964.20 8866.13 99.82
1468 39.2600 9965.70 8911.68 99.83
1469 39.2800 10099.50 8871.00 100.50
1470 39.3000 10033.50 8802.64 100.17
1471 39.3200 9903.00 8731.82 99.51
1472 39.3400 10030.40 8657.29 100.15
1473 39.3600 9941.50 8580.22 99.71
1474 39.3800 9948.20 8532.95 99.74
1475 39.4000 10060.60 8567.77 100.30
1476 39.4200 10263.50 8739.16 101.31
1477 39.4400 10461.60 9101.70 102.28
1478 39.4600 11082.90 9713.78 105.28
1479 39.4800 12022.90 10632.80 109.65
1480 39.5000 12883.60 11893.70 113.51
1481 39.5200 14057.30 13487.80 118.56
1482 39.5400 15303.30 15283.20 123.71
1483 39.5600 16622.70 16961.90 128.93
1484 39.5800 17107.70 18069.20 130.80
1485 39.6000 17414.30 18286.70 131.96
1486 39.6200 17041.90 17759.50 130.54
1487 39.6400 16441.80 16921.90 128.23
1488 39.6600 16024.20 16045.70 126.59
1489 39.6800 15048.10 15100.70 122.67
1490 39.7000 14129.90 13956.50 118.87
1491 39.7200 13273.40 12630.40 115.21
1492 39.7400 12218.70 11307.00 110.54
1493 39.7600 11256.10 10147.50 106.10
1494 39.7800 10211.30 9213.47 101.05
1495 39.8000 9879.90 8499.57 99.40
1496 39.8200 9132.00 7971.09 95.56
1497 39.8400 8700.80 7587.14 93.28
1498 39.8600 8403.80 7308.27 91.67
1499 39.8800 8213.70 7102.58 90.63
1500 39.9000 7758.50 6948.08 88.08
1501 39.9200 7575.90 6826.35 87.04
1502 39.9400 7479.90 6728.34 86.49
1503 39.9600 7202.80 6647.43 84.87
1504 39.9800 7054.60 6579.38 83.99
1505 40.0000 6883.60 6524.41 82.97
1506 40.0200 6850.30 6474.42 82.77
1507 40.0400 6818.40 6430.89 82.57
1508 40.0600 6595.20 6392.69 81.21
1509 40.0800 6492.90 6358.91 80.58
1510 40.1000 6494.00 6328.85 80.59
1511 40.1200 6245.40 6301.95 79.03
1512 40.1400 6241.60 6277.74 79.00
1513 40.1600 6095.30 6255.86 78.07
1514 40.1800 6192.10 6235.97 78.69
1515 40.2000 6024.80 6217.85 77.62
1516 40.2200 6024.20 6201.27 77.62
1517 40.2400 6056.50 6186.06 77.82
1518 40.2600 6101.10 6176.17 78.11
1519 40.2800 5910.00 6163.42 76.88
1520 40.3000 5927.60 6151.68 76.99
1521 40.3200 5909.50 6140.88 76.87
1522 40.3400 5725.10 6130.94 75.66
1523 40.3600 5879.50 6123.84 76.68
1524 40.3800 5791.70 6115.60 76.10
1525 40.4000 5733.40 6108.14 75.72
1526 40.4200 5761.30 6101.46 75.90
1527 40.4400 5758.50 6095.59 75.88
1528 40.4600 5909.80 6090.56 76.88
1529 40.4800 5785.60 6086.44 76.06
1530 40.5000 5909.60 6083.32 76.87
1531 40.5200 5846.90 6081.34 76.46
1532 40.5400 5862.40 6080.69 76.57
1533 40.5600 6007.40 6078.93 77.51
1534 40.5800 6026.70 6081.99 77.63
1535 40.6000 5939.50 6087.73 77.07
1536 40.6200 6054.60 6097.30 77.81
1537 40.6400 5948.00 6112.74 77.12
1538 40.6600 6245.40 6137.91 79.03
1539 40.6800 6180.90 6178.53 78.62
1540 40.7000 6390.20 6249.02 79.94
1541 40.7200 6534.80 6364.89 80.84
1542 40.7400 6799.90 6541.73 82.46
1543 40.7600 7030.90 6793.70 83.85
1544 40.7800 7254.90 7100.41 85.18
1545 40.8000 7780.50 7387.00 88.21
1546 40.8200 7837.30 7585.90 88.53
1547 40.8400 7789.60 7608.02 88.26
1548 40.8600 7726.20 7502.91 87.90
1549 40.8800 7607.00 7372.05 87.22
1550 40.9000 7582.80 7258.23 87.08
1551 40.9200 7213.90 7181.61 84.93
1552 40.9400 7136.90 7041.87 84.48
1553 40.9600 6864.00 6841.06 82.85
1554 40.9800 6679.70 6642.61 81.73
1555 41.0000 6461.70 6466.77 80.38
1556 41.0200 6196.30 6326.64 78.72
1557 41.0400 6232.70 6231.53 78.95
1558 41.0600 6011.40 6150.98 77.53
1559 41.0800 5946.50 6099.17 77.11
1560 41.1000 5798.80 6062.60 76.15
1561 41.1200 5846.20 6036.53 76.46
1562 41.1400 5790.00 6052.82 76.09
1563 41.1600 5970.60 6050.96 77.27
1564 41.1800 5836.60 6044.23 76.40
1565 41.2000 6059.60 6041.15 77.84
1566 41.2200 5997.50 6041.24 77.44
1567 41.2400 6021.50 6044.21 77.60
1568 41.2600 5935.30 6063.15 77.04
1569 41.2800 6058.60 6072.22 77.84
1570 41.3000 6083.40 6084.40 78.00
1571 41.3200 6254.30 6100.14 79.08
1572 41.3400 6371.40 6120.09 79.82
1573 41.3600 6491.50 6145.31 80.57
1574 41.3800 6465.60 6177.42 80.41
1575 41.4000 6673.80 6218.98 81.69
1576 41.4200 6816.60 6273.93 82.56
1577 41.4400 7042.60 6348.53 83.92
1578 41.4600 7345.00 6453.35 85.70
1579 41.4800 7663.30 6609.13 87.54
1580 41.5000 8022.50 6858.62 89.57
1581 41.5200 8502.30 7281.01 92.21
1582 41.5400 9031.00 7980.41 95.03
1583 41.5600 9862.00 9010.83 99.31
1584 41.5800 10693.10 10240.50 103.41
1585 41.6000 11453.60 11285.00 107.02
1586 41.6200 11915.90 11688.00 109.16
1587 41.6400 12151.10 11356.20 110.23
1588 41.6600 12070.90 10720.70 109.87
1589 41.6800 11743.30 10250.00 108.37
1590 41.7000 11508.90 10046.50 107.28
1591 41.7200 11382.60 9884.59 106.69
1592 41.7400 11191.10 9564.50 105.79
1593 41.7600 10760.90 8998.58 103.74
1594 41.7800 10343.00 8448.58 101.70
1595 41.8000 10130.00 8073.89 100.65
1596 41.8200 9862.40 7965.69 99.31
1597 41.8400 9888.70 8014.28 99.44
1598 41.8600 10079.00 8228.83 100.39
1599 41.8800 10285.20 8598.51 101.42
1600 41.9000 10828.90 9131.54 104.06
1601 41.9200 11172.50 9846.55 105.70
1602 41.9400 11822.50 10759.30 108.73
1603 41.9600 12719.60 11867.10 112.78
1604 41.9800 13464.30 13144.60 116.04
1605 42.0000 14255.40 14540.70 119.40
1606 42.0200 15018.50 15950.90 122.55
1607 42.0400 15425.60 17123.20 124.20
1608 42.0600 15587.50 17694.10 124.85
1609 42.0800 15504.40 17503.00 124.52
1610 42.1000 15175.80 16861.80 123.19
1611 42.1200 15159.30 16255.20 123.12
1612 42.1400 14989.80 15945.00 122.43
1613 42.1600 14726.80 15894.70 121.35
1614 42.1800 14909.00 15894.90 122.10
1615 42.2000 15036.00 15768.10 122.62
1616 42.2200 15196.80 15389.70 123.28
1617 42.2400 14744.80 14645.70 121.43
1618 42.2600 13933.90 13631.50 118.04
1619 42.2800 12779.00 12655.80 113.04
1620 42.3000 12177.40 11932.20 110.35
1621 42.3200 11809.90 11450.80 108.67
1622 42.3400 11908.50 11061.50 109.13
1623 42.3600 11740.20 10656.50 108.35
1624 42.3800 11458.40 10311.90 107.04
1625 42.4000 11418.50 10211.70 106.86
1626 42.4200 11662.80 10513.10 107.99
1627 42.4400 12235.50 11300.90 110.61
1628 42.4600 13000.30 12503.60 114.02
1629 42.4800 14023.30 13838.60 118.42
1630 42.5000 14664.90 14860.20 121.10
1631 42.5200 15096.10 15223.30 122.87
1632 42.5400 15323.40 15011.40 123.79
1633 42.5600 15090.30 14564.30 122.84
1634 42.5800 14915.00 14123.40 122.13
1635 42.6000 14563.30 13721.00 120.68
1636 42.6200 13871.70 13223.50 117.78
1637 42.6400 13344.20 12538.70 115.52
1638 42.6600 12914.10 11757.50 113.64
1639 42.6800 12469.90 11036.30 111.67
1640 42.7000 12054.80 10510.90 109.79
1641 42.7200 11873.10 10275.60 108.96
1642 42.7400 12070.10 10385.70 109.86
1643 42.7600 12449.70 10879.50 111.58
1644 42.7800 13066.40 11785.70 114.31
1645 42.8000 14094.00 13102.60 118.72
1646 42.8200 14933.60 14746.70 122.20
1647 42.8400 15820.10 16487.60 125.78
1648 42.8600 16753.90 17911.10 129.44
1649 42.8800 17301.50 18565.10 131.54
1650 42.9000 17365.10 18320.20 131.78
1651 42.9200 16704.20 17515.80 129.24
1652 42.9400 15814.80 16591.90 125.76
1653 42.9600 14889.40 15730.20 122.02
1654 42.9800 13963.30 14832.50 118.17
1655 43.0000 13015.70 13739.70 114.09
1656 43.0200 11760.00 12445.00 108.44
1657 43.0400 10813.20 11119.80 103.99
1658 43.0600 9843.90 9930.48 99.22
1659 43.0800 8933.80 8952.69 94.52
1660 43.1000 8351.80 8182.91 91.39
1661 43.1200 7733.00 7615.80 87.94
1662 43.1400 7117.80 7200.37 84.37
1663 43.1600 6804.90 6897.00 82.49
1664 43.1800 6691.70 6672.21 81.80
1665 43.2000 6402.70 6496.71 80.02
1666 43.2200 6173.50 6363.09 78.57
1667 43.2400 6242.40 6255.35 79.01
1668 43.2600 6021.50 6166.24 77.60
1669 43.2800 5960.00 6091.06 77.20
1670 43.3000 5978.30 6016.82 77.32
1671 43.3200 5933.70 5961.25 77.03
1672 43.3400 5928.00 5912.55 76.99
1673 43.3600 5930.00 5869.52 77.01
1674 43.3800 5915.80 5827.74 76.91
1675 43.4000 5885.50 5789.81 76.72
1676 43.4200 5955.10 5754.46 77.17
1677 43.4400 5967.60 5726.82 77.25
1678 43.4600 5995.80 5701.64 77.43
1679 43.4800 5928.30 5676.85 77.00
1680 43.5000 5822.90 5655.77 76.31
1681 43.5200 5711.10 5634.48 75.57
1682 43.5400 5750.40 5608.09 75.83
1683 43.5600 5691.90 5589.56 75.44
1684 43.5800 5654.90 5574.28 75.20
1685 43.6000 5513.00 5559.99 74.25
1686 43.6200 5461.30 5546.58 73.90
1687 43.6400 5528.20 5533.96 74.35
1688 43.6600 5378.00 5517.95 73.33
1689 43.6800 5307.10 5505.80 72.85
1690 43.7000 5343.40 5495.26 73.10
1691 43.7200 5309.80 5485.25 72.87
1692 43.7400 5186.30 5475.70 72.02
1693 43.7600 5268.80 5466.59 72.59
1694 43.7800 5109.90 5457.88 71.48
1695 43.8000 5243.90 5449.52 72.41
1696 43.8200 5213.90 5441.50 72.21
1697 43.8400 5055.10 5429.43 71.10
1698 43.8600 5148.80 5422.12 71.76
1699 43.8800 5127.00 5415.08 71.60
1700 43.9000 5032.40 5408.27 70.94
1701 43.9200 4926.70 5401.68 70.19
1702 43.9400 4967.90 5390.83 70.48
1703 43.9600 5096.70 5382.63 71.39
1704 43.9800 5152.00 5376.80 71.78
1705 44.0000 5145.10 5371.13 71.73
1706 44.0200 5158.70 5365.60 71.82
1707 44.0400 5127.30 5360.22 71.61
1708 44.0600 5115.20 5339.93 71.52
1709 44.0800 5174.70 5335.29 71.94
1710 44.1000 5197.70 5330.75 72.10
1711 44.1200 5170.40 5327.56 71.91
1712 44.1400 5278.70 5323.25 72.65
1713 44.1600 5377.00 5308.39 73.33
1714 44.1800 5383.40 5304.57 73.37
1715 44.2000 5345.30 5300.82 73.11
1716 44.2200 5584.50 5297.14 74.73
1717 44.2400 5432.40 5316.45 73.70
1718 44.2600 5619.60 5313.92 74.96
1719 44.2800 5579.10 5309.51 74.69
1720 44.3000 5565.20 5307.31 74.60
1721 44.3200 5616.30 5305.27 74.94
1722 44.3400 5588.80 5309.64 74.76
1723 44.3600 5543.30 5294.76 74.45
1724 44.3800 5543.30 5293.89 74.45
1725 44.4000 5523.90 5293.24 74.32
1726 44.4200 5487.90 5292.81 74.08
1727 44.4400 5587.50 5292.64 74.75
1728 44.4600 5553.30 5292.74 74.52
1729 44.4800 5595.00 5286.57 74.80
1730 44.5000 5447.30 5287.50 73.81
1731 44.5200 5396.90 5288.80 73.46
1732 44.5400 5467.40 5290.54 73.94
1733 44.5600 5328.90 5292.76 73.00
1734 44.5800 5319.10 5299.69 72.93
1735 44.6000 5300.30 5303.19 72.80
1736 44.6200 5327.50 5307.40 72.99
1737 44.6400 5216.70 5312.45 72.23
1738 44.6600 5327.60 5318.47 72.99
1739 44.6800 5349.40 5325.61 73.14
1740 44.7000 5393.10 5336.13 73.44
1741 44.7200 5429.80 5346.21 73.69
1742 44.7400 5411.60 5362.76 73.56
1743 44.7600 5555.10 5377.10 74.53
1744 44.7800 5558.60 5394.21 74.56
1745 44.8000 5493.40 5414.78 74.12
1746 44.8200 5558.80 5439.78 74.56
1747 44.8400 5703.00 5470.58 75.52
1748 44.8600 5739.30 5511.46 75.76
1749 44.8800 5935.60 5560.88 77.04
1750 44.9000 6074.10 5625.63 77.94
1751 44.9200 6225.20 5712.81 78.90
1752 44.9400 6334.50 5833.81 79.59
1753 44.9600 6592.00 6005.89 81.19
1754 44.9800 6889.70 6252.35 83.00
1755 45.0000 7271.90 6597.87 85.28
1756 45.0200 7649.20 7057.08 87.46
1757 45.0400 8335.60 7618.46 91.30
1758 45.0600 8922.80 8229.96 94.46
1759 45.0800 9304.90 8803.58 96.46
1760 45.1000 9876.80 9260.80 99.38
1761 45.1200 10260.90 9593.21 101.30
1762 45.1400 10926.90 9834.33 104.53
1763 45.1600 11273.70 9992.50 106.18
1764 45.1800 11424.50 10020.60 106.89
1765 45.2000 11236.20 9843.64 106.00
1766 45.2200 10929.00 9461.21 104.54
1767 45.2400 10638.20 8974.48 103.14
1768 45.2600 10268.80 8487.02 101.33
1769 45.2800 9800.10 8044.72 99.00
1770 45.3000 9247.90 7638.15 96.17
1771 45.3200 8697.40 7235.22 93.26
1772 45.3400 8189.60 6834.46 90.50
1773 45.3600 7549.00 6468.93 86.89
1774 45.3800 7223.80 6164.45 84.99
1775 45.4000 6879.50 5929.75 82.94
1776 45.4200 6455.10 5758.17 80.34
1777 45.4400 6203.90 5636.03 78.76
1778 45.4600 6023.90 5557.11 77.61
1779 45.4800 5922.30 5493.84 76.96
1780 45.5000 5807.60 5446.24 76.21
1781 45.5200 5769.10 5409.33 75.95
1782 45.5400 5795.80 5379.99 76.13
1783 45.5600 5688.10 5356.25 75.42
1784 45.5800 5626.00 5336.84 75.01
1785 45.6000 5476.50 5320.90 74.00
1786 45.6200 5676.40 5309.21 75.34
1787 45.6400 5619.90 5298.65 74.97
1788 45.6600 5655.00 5290.25 75.20
1789 45.6800 5700.90 5283.79 75.50
1790 45.7000 5644.60 5279.12 75.13
1791 45.7200 5606.60 5276.15 74.88
1792 45.7400 5590.00 5274.84 74.77
1793 45.7600 5537.20 5275.88 74.41
1794 45.7800 5431.60 5277.93 73.70
1795 45.8000 5505.00 5281.77 74.20
1796 45.8200 5488.60 5287.50 74.09
1797 45.8400 5539.70 5295.33 74.43
1798 45.8600 5483.40 5305.49 74.05
1799 45.8800 5435.90 5318.32 73.73
1800 45.9000 5562.40 5334.27 74.58
1801 45.9200 5481.40 5353.94 74.04
1802 45.9400 5506.20 5378.16 74.20
1803 45.9600 5668.00 5408.14 75.29
1804 45.9800 5761.60 5445.61 75.91
1805 46.0000 5741.90 5493.12 75.78
1806 46.0200 5893.10 5555.28 76.77
1807 46.0400 6022.80 5635.38 77.61
1808 46.0600 5975.80 5740.01 77.30
1809 46.0800 6276.80 5880.31 79.23
1810 46.1000 6429.80 6065.17 80.19
1811 46.1200 6708.70 6305.16 81.91
1812 46.1400 6922.50 6612.09 83.20
1813 46.1600 7359.30 6985.86 85.79
1814 46.1800 7609.20 7427.26 87.23
1815 46.2000 8070.80 7915.60 89.84
1816 46.2200 8378.60 8403.45 91.53
1817 46.2400 8742.90 8818.87 93.50
1818 46.2600 9075.70 9095.59 95.27
1819 46.2800 9275.30 9220.76 96.31
1820 46.3000 9208.60 9249.34 95.96
1821 46.3200 9289.90 9248.37 96.38
1822 46.3400 9110.30 9237.02 95.45
1823 46.3600 9166.40 9167.54 95.74
1824 46.3800 8736.30 8973.64 93.47
1825 46.4000 8620.30 8624.19 92.85
1826 46.4200 8335.30 8189.82 91.30
1827 46.4400 7845.20 7757.67 88.57
1828 46.4600 7629.00 7379.44 87.34
1829 46.4800 7172.00 7057.17 84.69
1830 46.5000 6924.20 6789.42 83.21
1831 46.5200 6695.80 6517.23 81.83
1832 46.5400 6468.70 6265.41 80.43
1833 46.5600 6205.00 6048.45 78.77
1834 46.5800 6168.70 5875.00 78.54
1835 46.6000 6062.00 5744.57 77.86
1836 46.6200 5950.40 5652.98 77.14
1837 46.6400 5939.40 5594.72 77.07
1838 46.6600 5773.90 5566.64 75.99
1839 46.6800 5837.20 5565.72 76.40
1840 46.7000 5886.90 5593.20 76.73
1841 46.7200 5982.30 5652.48 77.35
1842 46.7400 5944.00 5746.75 77.10
1843 46.7600 6113.00 5883.35 78.19
1844 46.7800 6275.60 6047.21 79.22
1845 46.8000 6249.60 6225.97 79.05
1846 46.8200 6400.50 6383.70 80.00
1847 46.8400 6454.00 6481.44 80.34
1848 46.8600 6428.90 6489.65 80.18
1849 46.8800 6337.60 6424.55 79.61
1850 46.9000 6316.10 6346.59 79.47
1851 46.9200 6240.70 6256.92 79.00
1852 46.9400 6160.00 6177.52 78.49
1853 46.9600 6121.90 6096.87 78.24
1854 46.9800 6131.70 5996.61 78.31
1855 47.0000 5954.00 5876.00 77.16
1856 47.0200 5936.50 5750.50 77.05
1857 47.0400 5874.70 5636.29 76.65
1858 47.0600 5858.50 5542.12 76.54
1859 47.0800 5744.70 5470.46 75.79
1860 47.1000 5752.90 5420.09 75.85
1861 47.1200 5667.10 5388.23 75.28
1862 47.1400 5657.30 5371.92 75.21
1863 47.1600 5629.20 5369.01 75.03
1864 47.1800 5604.00 5378.62 74.86
1865 47.2000 5650.70 5401.27 75.17
1866 47.2200 5701.30 5438.74 75.51
1867 47.2400 5737.20 5493.68 75.74
1868 47.2600 5833.00 5568.93 76.37
1869 47.2800 5902.40 5666.55 76.83
1870 47.3000 5885.80 5786.38 76.72
1871 47.3200 6117.40 5923.76 78.21
1872 47.3400 6120.50 6066.61 78.23
1873 47.3600 6170.60 6194.74 78.55
1874 47.3800 6574.30 6288.33 81.08
1875 47.4000 6416.10 6344.39 80.10
1876 47.4200 6629.00 6385.43 81.42
1877 47.4400 6740.10 6441.43 82.10
1878 47.4600 6888.20 6536.49 83.00
1879 47.4800 7092.80 6685.25 84.22
1880 47.5000 7056.50 6898.72 84.00
1881 47.5200 7479.80 7193.97 86.49
1882 47.5400 7830.90 7598.27 88.49
1883 47.5600 8282.40 8135.72 91.01
1884 47.5800 8626.00 8809.48 92.88
1885 47.6000 9091.40 9580.89 95.35
1886 47.6200 9664.10 10350.90 98.31
1887 47.6400 10122.10 10957.50 100.61
1888 47.6600 10385.00 11241.40 101.91
1889 47.6800 10577.00 11172.50 102.85
1890 47.7000 10446.20 10881.10 102.21
1891 47.7200 10461.00 10539.20 102.28
1892 47.7400 10263.20 10243.10 101.31
1893 47.7600 10119.30 9992.05 100.60
1894 47.7800 10064.20 9725.25 100.32
1895 47.8000 9858.50 9421.97 99.29
1896 47.8200 9812.60 9124.36 99.06
1897 47.8400 9584.80 8927.75 97.90
1898 47.8600 9411.90 8905.69 97.01
1899 47.8800 9291.80 9084.05 96.39
1900 47.9000 9199.50 9428.10 95.91
1901 47.9200 9275.50 9841.30 96.31
1902 47.9400 9167.70 10151.20 95.75
1903 47.9600 9079.50 10205.20 95.29
1904 47.9800 8792.70 9969.45 93.77
1905 48.0000 8711.40 9572.98 93.33
1906 48.0200 8317.30 9170.43 91.20
1907 48.0400 8096.10 8836.34 89.98
1908 48.0600 7817.30 8544.63 88.42
1909 48.0800 7620.70 8226.44 87.30
1910 48.1000 7434.50 7823.63 86.22
1911 48.1200 7050.90 7357.86 83.97
1912 48.1400 6835.40 6893.18 82.68
1913 48.1600 6469.80 6479.57 80.44
1914 48.1800 6504.50 6149.26 80.65
1915 48.2000 6108.80 5884.16 78.16
1916 48.2200 6068.60 5686.10 77.90
1917 48.2400 5933.60 5540.41 77.03
1918 48.2600 5817.80 5433.21 76.27
1919 48.2800 5714.30 5352.95 75.59
1920 48.3000 5628.60 5291.26 75.02
1921 48.3200 5602.20 5242.44 74.85
1922 48.3400 5367.20 5202.74 73.26
1923 48.3600 5515.00 5169.75 74.26
1924 48.3800 5326.00 5141.82 72.98
1925 48.4000 5405.90 5117.87 73.52
1926 48.4200 5323.40 5097.11 72.96
1927 48.4400 5303.60 5078.98 72.83
1928 48.4600 5252.10 5063.05 72.47
1929 48.4800 5248.60 5048.99 72.45
1930 48.5000 5217.90 5035.20 72.24
1931 48.5200 5151.30 5024.22 71.77
1932 48.5400 5278.40 5014.49 72.65
1933 48.5600 5218.10 5005.90 72.24
1934 48.5800 5177.00 4998.32 71.95
1935 48.6000 5066.80 4991.68 71.18
1936 48.6200 5061.30 4985.24 71.14
1937 48.6400 5047.90 4980.33 71.05
1938 48.6600 5103.50 4977.45 71.44
1939 48.6800 5142.50 4974.15 71.71
1940 48.7000 5156.20 4971.65 71.81
1941 48.7200 5209.80 4969.94 72.18
1942 48.7400 5098.10 4968.15 71.40
1943 48.7600 5021.10 4968.22 70.86
1944 48.7800 5120.60 4976.80 71.56
1945 48.8000 5034.80 4979.16 70.96
1946 48.8200 5144.40 4982.80 71.72
1947 48.8400 5162.70 4987.95 71.85
1948 48.8600 5200.50 4994.96 72.11
1949 48.8800 5206.30 5003.03 72.15
1950 48.9000 5336.70 5015.49 73.05
1951 48.9200 5382.80 5033.92 73.37
1952 48.9400 5405.40 5049.94 73.52
1953 48.9600 5469.00 5081.16 73.95
1954 48.9800 5685.80 5124.93 75.40
1955 49.0000 5730.10 5187.31 75.70
1956 49.0200 5893.20 5276.16 76.77
1957 49.0400 6055.90 5402.40 77.82
1958 49.0600 6185.10 5571.19 78.65
1959 49.0800 6478.60 5780.22 80.49
1960 49.1000 6920.10 6022.65 83.19
1961 49.1200 6881.30 6262.87 82.95
1962 49.1400 7147.40 6446.94 84.54
1963 49.1600 7353.60 6541.38 85.75
1964 49.1800 7433.60 6537.98 86.22
1965 49.2000 7326.20 6470.22 85.59
1966 49.2200 7289.10 6378.03 85.38
1967 49.2400 7151.10 6287.92 84.56
1968 49.2600 7075.50 6202.94 84.12
1969 49.2800 6877.40 6104.34 82.93
1970 49.3000 6618.40 5981.66 81.35
1971 49.3200 6395.50 5835.22 79.97
1972 49.3400 6325.10 5679.18 79.53
1973 49.3600 6015.10 5529.34 77.56
1974 49.3800 5879.20 5391.41 76.68
1975 49.4000 5689.40 5283.24 75.43
1976 49.4200 5427.70 5198.23 73.67
1977 49.4400 5389.90 5133.04 73.42
1978 49.4600 5285.80 5083.65 72.70
1979 49.4800 5185.60 5046.45 72.01
1980 49.5000 5130.50 5015.50 71.63
1981 49.5200 5097.10 4994.77 71.39
1982 49.5400 5079.80 4979.44 71.27
1983 49.5600 5077.40 4963.87 71.26
1984 49.5800 5074.30 4955.99 71.23
1985 49.6000 5007.00 4950.83 70.76
1986 49.6200 5049.60 4947.70 71.06
1987 49.6400 4991.90 4946.48 70.65
1988 49.6600 5049.80 4947.05 71.06
1989 49.6800 4996.40 4947.21 70.69
1990 49.7000 4928.60 4951.46 70.20
1991 49.7200 4969.80 4957.77 70.50
1992 49.7400 4894.70 4977.61 69.96
1993 49.7600 4956.00 4992.48 70.40
1994 49.7800 4977.30 5008.47 70.55
1995 49.8000 5102.80 5029.49 71.43
1996 49.8200 5149.90 5057.30 71.76
1997 49.8400 5067.00 5094.33 71.18
1998 49.8600 5123.10 5143.72 71.58
1999 49.8800 5318.40 5209.15 72.93
2000 49.9000 5445.00 5298.50 73.79
2001 49.9200 5394.40 5406.57 73.45
2002 49.9400 5765.00 5543.15 75.93
2003 49.9600 5742.80 5694.39 75.78
2004 49.9800 5932.00 5854.41 77.02
2005 50.0000 6019.60 6002.72 77.59
2006 50.0200 6177.80 6113.32 78.60
2007 50.0400 6279.50 6169.75 79.24
2008 50.0600 6355.30 6181.43 79.72
2009 50.0800 6335.60 6182.54 79.60
2010 50.1000 6226.40 6196.00 78.91
2011 50.1200 6471.00 6243.22 80.44
2012 50.1400 6377.80 6326.94 79.86
2013 50.1600 6540.10 6440.00 80.87
2014 50.1800 6505.00 6574.14 80.65
2015 50.2000 6660.70 6722.49 81.61
2016 50.2200 6741.20 6868.97 82.10
2017 50.2400 6844.60 6978.27 82.73
2018 50.2600 6755.90 7006.66 82.19
2019 50.2800 6680.20 6940.43 81.73
2020 50.3000 6570.70 6808.44 81.06
2021 50.3200 6424.40 6659.64 80.15
2022 50.3400 6282.60 6527.21 79.26
2023 50.3600 6381.60 6416.33 79.88
2024 50.3800 6185.60 6309.45 78.65
2025 50.4000 6102.20 6185.75 78.12
2026 50.4200 5997.50 6037.60 77.44
2027 50.4400 5814.60 5879.45 76.25
2028 50.4600 5756.20 5731.14 75.87
2029 50.4800 5648.00 5606.34 75.15
2030 50.5000 5692.10 5511.59 75.45
2031 50.5200 5618.20 5449.07 74.95
2032 50.5400 5705.60 5443.90 75.54
2033 50.5600 5760.90 5447.55 75.90
2034 50.5800 5861.80 5483.81 76.56
2035 50.6000 6002.70 5552.76 77.48
2036 50.6200 6248.00 5655.65 79.04
2037 50.6400 6519.70 5798.36 80.74
2038 50.6600 6755.10 5999.30 82.19
2039 50.6800 7195.90 6296.31 84.83
2040 50.7000 7693.80 6741.66 87.71
2041 50.7200 8264.50 7367.01 90.91
2042 50.7400 9223.60 8150.16 96.04
2043 50.7600 9911.00 8981.46 99.55
2044 50.7800 10381.90 9658.25 101.89
2045 50.8000 10877.50 9958.27 104.29
2046 50.8200 10900.50 9808.39 104.40
2047 50.8400 10542.30 9376.23 102.68
2048 50.8600 10315.10 8908.29 101.56
2049 50.8800 9932.30 8562.22 99.66
2050 50.9000 9641.50 8358.64 98.19
2051 50.9200 9297.10 8203.63 96.42
2052 50.9400 8997.20 7964.47 94.85
2053 50.9600 8682.30 7586.30 93.18
2054 50.9800 8102.80 7129.49 90.02
2055 51.0000 7751.80 6685.17 88.04
2056 51.0200 7352.60 6319.02 85.75
2057 51.0400 6791.20 6061.48 82.41
2058 51.0600 6737.60 5918.17 82.08
2059 51.0800 6567.50 5884.24 81.04
2060 51.1000 6571.10 5955.33 81.06
2061 51.1200 6629.10 6132.05 81.42
2062 51.1400 6717.40 6412.56 81.96
2063 51.1600 7084.60 6785.05 84.17
2064 51.1800 7543.90 7215.41 86.86
2065 51.2000 8088.20 7634.31 89.93
2066 51.2200 8566.80 7937.60 92.56
2067 51.2400 8682.40 8035.78 93.18
2068 51.2600 8572.60 7935.03 92.59
2069 51.2800 8192.00 7739.56 90.51
2070 51.3000 7670.90 7563.37 87.58
2071 51.3200 7535.70 7468.35 86.81
2072 51.3400 7480.70 7453.07 86.49
2073 51.3600 7505.10 7463.34 86.63
2074 51.3800 7516.70 7427.22 86.70
2075 51.4000 7318.70 7300.96 85.55
2076 51.4200 7016.80 7086.45 83.77
2077 51.4400 6669.90 6815.25 81.67
2078 51.4600 6559.10 6543.90 80.99
2079 51.4800 6339.30 6325.03 79.62
2080 51.5000 6372.10 6184.98 79.83
2081 51.5200 6201.80 6120.82 78.75
2082 51.5400 6246.40 6107.87 79.03
2083 51.5600 6394.70 6119.89 79.97
2084 51.5800 6365.20 6147.12 79.78
2085 51.6000 6568.80 6202.16 81.05
2086 51.6200 6743.50 6311.27 82.12
2087 51.6400 6751.40 6490.89 82.17
2088 51.6600 7068.90 6750.49 84.08
2089 51.6800 7379.70 7089.61 85.91
2090 51.7000 7677.90 7495.49 87.62
2091 51.7200 7794.40 7939.42 88.29
2092 51.7400 8137.90 8368.06 90.21
2093 51.7600 8471.50 8710.27 92.04
2094 51.7800 8554.40 8896.34 92.49
2095 51.8000 8611.90 8903.39 92.80
2096 51.8200 8650.50 8769.67 93.01
2097 51.8400 8501.70 8565.21 92.20
2098 51.8600 8214.40 8350.37 90.63
2099 51.8800 8031.30 8138.42 89.62
2100 51.9000 7897.80 7918.35 88.87
2101 51.9200 7773.10 7661.72 88.17
2102 51.9400 7436.40 7358.38 86.23
2103 51.9600 7322.20 7024.29 85.57
2104 51.9800 6852.40 6689.68 82.78
2105 52.0000 6607.30 6382.20 81.29
2106 52.0200 6443.30 6112.92 80.27
2107 52.0400 6206.20 5887.75 78.78
2108 52.0600 6025.60 5703.65 77.62
2109 52.0800 5813.70 5556.07 76.25
2110 52.1000 5700.20 5439.27 75.50
2111 52.1200 5516.80 5347.53 74.28
2112 52.1400 5478.40 5275.49 74.02
2113 52.1600 5258.90 5218.59 72.52
2114 52.1800 5245.10 5173.74 72.42
2115 52.2000 5165.30 5136.61 71.87
2116 52.2200 5152.60 5106.05 71.78
2117 52.2400 5061.00 5076.37 71.14
2118 52.2600 5110.90 5054.57 71.49
2119 52.2800 5103.90 5035.76 71.44
2120 52.3000 5056.60 5019.39 71.11
2121 52.3200 4952.00 5008.27 70.37
2122 52.3400 4820.90 4995.61 69.43
2123 52.3600 5026.60 4982.45 70.90
2124 52.3800 5008.10 4972.61 70.77
2125 52.4000 4965.70 4963.84 70.47
2126 52.4200 5027.90 4955.99 70.91
2127 52.4400 5031.20 4948.50 70.93
2128 52.4600 4988.10 4942.21 70.63
2129 52.4800 5022.70 4936.55 70.87
2130 52.5000 5000.00 4931.45 70.71
2131 52.5200 5006.60 4921.73 70.76
2132 52.5400 4978.10 4917.75 70.56
2133 52.5600 5068.90 4913.54 71.20
2134 52.5800 5000.70 4910.33 70.72
2135 52.6000 5083.50 4907.47 71.30
2136 52.6200 4961.90 4904.91 70.44
2137 52.6400 4962.80 4902.62 70.45
2138 52.6600 4884.60 4898.06 69.89
2139 52.6800 4926.40 4896.34 70.19
2140 52.7000 4853.90 4894.53 69.67
2141 52.7200 4807.50 4900.67 69.34
2142 52.7400 4975.60 4899.81 70.54
2143 52.7600 4865.80 4899.15 69.76
2144 52.7800 5078.20 4898.67 71.26
2145 52.8000 4957.00 4898.38 70.41
2146 52.8200 4866.10 4898.27 69.76
2147 52.8400 4910.20 4899.94 70.07
2148 52.8600 4875.60 4900.25 69.83
2149 52.8800 4750.90 4900.75 68.93
2150 52.9000 4864.00 4901.44 69.74
2151 52.9200 4856.50 4902.34 69.69
2152 52.9400 4794.70 4903.46 69.24
2153 52.9600 4889.80 4904.80 69.93
2154 52.9800 4819.80 4906.40 69.42
2155 53.0000 4897.60 4909.08 69.98
2156 53.0200 4886.30 4910.62 69.90
2157 53.0400 4848.70 4913.19 69.63
2158 53.0600 4899.10 4916.15 69.99
2159 53.0800 4931.30 4919.58 70.22
2160 53.1000 4859.70 4923.56 69.71
2161 53.1200 4806.20 4928.21 69.33
2162 53.1400 4917.80 4933.71 70.13
2163 53.1600 4978.50 4939.95 70.56
2164 53.1800 4933.70 4947.96 70.24
2165 53.2000 4907.10 4958.51 70.05
2166 53.2200 4988.60 4971.20 70.63
2167 53.2400 5013.00 4987.77 70.80
2168 53.2600 5030.80 5009.92 70.93
2169 53.2800 5027.10 5040.00 70.90
2170 53.3000 5127.50 5080.92 71.61
2171 53.3200 5141.10 5135.69 71.70
2172 53.3400 5335.10 5212.84 73.04
2173 53.3600 5343.40 5299.85 73.10
2174 53.3800 5468.30 5398.71 73.95
2175 53.4000 5475.80 5499.33 74.00
2176 53.4200 5625.30 5579.90 75.00
2177 53.4400 5739.60 5630.71 75.76
2178 53.4600 5821.80 5641.52 76.30
2179 53.4800 5905.60 5617.86 76.85
2180 53.5000 5736.90 5585.09 75.74
2181 53.5200 5717.30 5561.71 75.61
2182 53.5400 5751.70 5556.63 75.84
2183 53.5600 5728.90 5562.45 75.69
2184 53.5800 5832.40 5585.26 76.37
2185 53.6000 5801.90 5619.84 76.17
2186 53.6200 5851.30 5642.59 76.49
2187 53.6400 5930.20 5660.98 77.01
2188 53.6600 5916.40 5669.89 76.92
2189 53.6800 5775.50 5666.28 76.00
2190 53.7000 5930.90 5655.64 77.01
2191 53.7200 5854.40 5656.93 76.51
2192 53.7400 5953.60 5677.81 77.16
2193 53.7600 5974.40 5717.41 77.29
2194 53.7800 6043.30 5762.87 77.74
2195 53.8000 5877.80 5793.71 76.67
2196 53.8200 6035.60 5792.81 77.69
2197 53.8400 6109.40 5759.18 78.16
2198 53.8600 6097.10 5707.17 78.08
2199 53.8800 5925.10 5653.90 76.97
2200 53.9000 5878.00 5610.34 76.67
2201 53.9200 5824.50 5579.41 76.32
2202 53.9400 5853.90 5558.18 76.51
2203 53.9600 5923.60 5542.48 76.96
2204 53.9800 5859.30 5532.23 76.55
2205 54.0000 5993.20 5533.20 77.42
2206 54.0200 5829.50 5554.41 76.35
2207 54.0400 5938.90 5604.85 77.06
2208 54.0600 5915.10 5691.51 76.91
2209 54.0800 6065.80 5817.83 77.88
2210 54.1000 6102.40 5981.31 78.12
2211 54.1200 6391.50 6170.70 79.95
2212 54.1400 6705.40 6362.06 81.89
2213 54.1600 6863.40 6518.39 82.85
2214 54.1800 6734.80 6601.22 82.07
2215 54.2000 6914.00 6597.98 83.15
2216 54.2200 7018.20 6532.93 83.77
2217 54.2400 6801.30 6449.83 82.47
2218 54.2600 6781.60 6382.12 82.35
2219 54.2800 6712.50 6343.76 81.93
2220 54.3000 6718.60 6330.39 81.97
2221 54.3200 6633.60 6326.81 81.45
2222 54.3400 6809.40 6321.37 82.52
2223 54.3600 6830.80 6319.34 82.65
2224 54.3800 6940.70 6330.72 83.31
2225 54.4000 6886.30 6364.58 82.98
2226 54.4200 6960.80 6414.36 83.43
2227 54.4400 7125.60 6460.12 84.41
2228 54.4600 7006.00 6477.50 83.70
2229 54.4800 7063.50 6455.97 84.04
2230 54.5000 6956.30 6403.70 83.40
2231 54.5200 7143.10 6339.12 84.52
2232 54.5400 6863.60 6280.66 82.85
2233 54.5600 6898.20 6239.49 83.06
2234 54.5800 6823.90 6216.28 82.61
2235 54.6000 6931.50 6205.10 83.26
2236 54.6200 6701.30 6202.65 81.86
2237 54.6400 6885.40 6216.51 82.98
2238 54.6600 6832.90 6263.06 82.66
2239 54.6800 6819.30 6361.85 82.58
2240 54.7000 6849.50 6529.49 82.76
2241 54.7200 7122.70 6773.15 84.40
2242 54.7400 7188.10 7087.42 84.78
2243 54.7600 7307.30 7444.20 85.48
2244 54.7800 7457.80 7789.71 86.36
2245 54.8000 7501.00 8045.64 86.61
2246 54.8200 7707.30 8141.10 87.79
2247 54.8400 7629.40 8064.92 87.35
2248 54.8600 7566.10 7876.32 86.98
2249 54.8800 7381.80 7657.08 85.92
2250 54.9000 7162.90 7462.10 84.63
2251 54.9200 7113.10 7306.18 84.34
2252 54.9400 7038.50 7169.22 83.90
2253 54.9600 6840.90 7010.86 82.71
2254 54.9800 6795.20 6803.92 82.43
2255 55.0000 6486.80 6554.76 80.54
2256 55.0200 6375.80 6292.40 79.85
2257 55.0400 6066.90 6044.98 77.89
2258 55.0600 5925.10 5829.04 76.97
2259 55.0800 5815.00 5651.15 76.26
2260 55.1000 5576.80 5510.43 74.68
2261 55.1200 5579.40 5402.74 74.70
2262 55.1400 5444.10 5321.94 73.78
2263 55.1600 5278.40 5261.79 72.65
2264 55.1800 5243.70 5216.77 72.41
2265 55.2000 5284.00 5182.60 72.69
2266 55.2200 5262.20 5155.49 72.54
2267 55.2400 5142.60 5134.59 71.71
2268 55.2600 5029.50 5117.77 70.92
2269 55.2800 4961.40 5104.04 70.44
2270 55.3000 4896.20 5092.15 69.97
2271 55.3200 4899.80 5082.89 70.00
2272 55.3400 4864.60 5075.33 69.75
2273 55.3600 4814.40 5068.65 69.39
2274 55.3800 4814.00 5063.95 69.38
2275 55.4000 4858.20 5060.55 69.70
2276 55.4200 4866.90 5058.43 69.76
2277 55.4400 4780.90 5057.36 69.14
2278 55.4600 4770.10 5058.13 69.07
2279 55.4800 4729.90 5062.26 68.77
2280 55.5000 4885.00 5067.16 69.89
2281 55.5200 4911.60 5073.80 70.08
2282 55.5400 4875.70 5086.35 69.83
2283 55.5600 4824.70 5104.59 69.46
2284 55.5800 4898.00 5130.15 69.99
2285 55.6000 4924.00 5164.69 70.17
2286 55.6200 5059.30 5214.20 71.13
2287 55.6400 5056.00 5270.14 71.11
2288 55.6600 5040.60 5335.32 71.00
2289 55.6800 5256.30 5408.11 72.50
2290 55.7000 5322.70 5479.40 72.96
2291 55.7200 5560.60 5540.32 74.57
2292 55.7400 5385.80 5576.93 73.39
2293 55.7600 5430.30 5582.60 73.69
2294 55.7800 5337.90 5562.15 73.06
2295 55.8000 5333.20 5528.19 73.03
2296 55.8200 5398.90 5492.62 73.48
2297 55.8400 5346.30 5461.32 73.12
2298 55.8600 5221.20 5434.39 72.26
2299 55.8800 5160.80 5407.24 71.84
2300 55.9000 5282.70 5373.85 72.68
2301 55.9200 5138.30 5332.23 71.68
2302 55.9400 5125.30 5285.44 71.59
2303 55.9600 5040.30 5238.64 71.00
2304 55.9800 4874.90 5195.91 69.82
2305 56.0000 4956.80 5159.40 70.40
2306 56.0200 4903.80 5128.37 70.03
2307 56.0400 4840.00 5105.49 69.57
2308 56.0600 4889.50 5088.72 69.93
2309 56.0800 4815.90 5077.49 69.40
2310 56.1000 4739.20 5070.10 68.84
2311 56.1200 4750.50 5067.41 68.92
2312 56.1400 4755.20 5068.55 68.96
2313 56.1600 4785.00 5073.62 69.17
2314 56.1800 4837.90 5079.37 69.56
2315 56.2000 4846.50 5093.48 69.62
2316 56.2200 4982.80 5116.15 70.59
2317 56.2400 4912.10 5143.30 70.09
2318 56.2600 4903.00 5176.60 70.02
2319 56.2800 4984.20 5215.77 70.60
2320 56.3000 5002.80 5256.79 70.73
2321 56.3200 5103.50 5294.58 71.44
2322 56.3400 5203.80 5320.15 72.14
2323 56.3600 5057.60 5330.49 71.12
2324 56.3800 5068.40 5325.20 71.19
2325 56.4000 5060.40 5309.70 71.14
2326 56.4200 5110.70 5310.71 71.49
2327 56.4400 5156.80 5295.62 71.81
2328 56.4600 5138.30 5284.46 71.68
2329 56.4800 5100.30 5275.50 71.42
2330 56.5000 5044.70 5265.22 71.03
2331 56.5200 5090.30 5250.60 71.35
2332 56.5400 5125.90 5234.19 71.60
2333 56.5600 4929.50 5212.33 70.21
2334 56.5800 5097.80 5195.49 71.40
2335 56.6000 5077.00 5182.68 71.25
2336 56.6200 5045.20 5175.08 71.03
2337 56.6400 5002.60 5173.43 70.73
2338 56.6600 5024.20 5178.42 70.88
2339 56.6800 5003.10 5191.14 70.73
2340 56.7000 4980.10 5215.96 70.57
2341 56.7200 4988.20 5251.62 70.63
2342 56.7400 4949.60 5305.13 70.35
2343 56.7600 5047.20 5382.48 71.04
2344 56.7800 5060.80 5490.00 71.14
2345 56.8000 5168.60 5634.05 71.89
2346 56.8200 5267.10 5813.69 72.57
2347 56.8400 5439.80 6025.75 73.75
2348 56.8600 5551.50 6255.90 74.51
2349 56.8800 5734.00 6476.18 75.72
2350 56.9000 5781.40 6645.91 76.04
2351 56.9200 5860.50 6729.17 76.55
2352 56.9400 5989.70 6722.31 77.39
2353 56.9600 5940.30 6664.75 77.07
2354 56.9800 5950.40 6586.01 77.14
2355 57.0000 5974.50 6519.05 77.29
2356 57.0200 5881.80 6469.45 76.69
2357 57.0400 6009.60 6425.90 77.52
2358 57.0600 5815.80 6368.38 76.26
2359 57.0800 5749.40 6281.75 75.82
2360 57.1000 5780.10 6168.36 76.03
2361 57.1200 5602.20 6045.17 74.85
2362 57.1400 5568.10 5930.33 74.62
2363 57.1600 5447.20 5835.10 73.81
2364 57.1800 5351.00 5764.14 73.15
2365 57.2000 5293.60 5718.61 72.76
2366 57.2200 5329.20 5696.06 73.00
2367 57.2400 5276.50 5693.25 72.64
2368 57.2600 5471.30 5704.64 73.97
2369 57.2800 5427.40 5725.02 73.67
2370 57.3000 5484.20 5753.72 74.06
2371 57.3200 5509.70 5798.70 74.23
2372 57.3400 5460.00 5866.56 73.89
2373 57.3600 5585.80 5958.83 74.74
2374 57.3800 5765.20 6062.15 75.93
2375 57.4000 5948.90 6158.19 77.13
2376 57.4200 6130.00 6226.91 78.29
2377 57.4400 6332.50 6268.26 79.58
2378 57.4600 6332.90 6306.75 79.58
2379 57.4800 6526.70 6377.93 80.79
2380 57.5000 6685.00 6511.41 81.76
2381 57.5200 6776.40 6721.82 82.32
2382 57.5400 7364.40 7004.50 85.82
2383 57.5600 7562.30 7335.43 86.96
2384 57.5800 7933.10 7673.23 89.07
2385 57.6000 8123.70 7967.36 90.13
2386 57.6200 8363.00 8170.35 91.45
2387 57.6400 8511.20 8265.21 92.26
2388 57.6600 8568.70 8281.25 92.57
2389 57.6800 8562.50 8267.58 92.53
2390 57.7000 8567.80 8254.74 92.56
2391 57.7200 8467.90 8242.17 92.02
2392 57.7400 8410.80 8208.65 91.71
2393 57.7600 8465.70 8128.69 92.01
2394 57.7800 8195.80 7986.55 90.53
2395 57.8000 7969.00 7788.74 89.27
2396 57.8200 7645.90 7560.65 87.44
2397 57.8400 7478.40 7330.10 86.48
2398 57.8600 6999.20 7111.42 83.66
2399 57.8800 6778.20 6905.31 82.33
2400 57.9000 6687.40 6707.41 81.78
2401 57.9200 6402.10 6517.19 80.01
2402 57.9400 6196.50 6339.52 78.72
2403 57.9600 6059.40 6181.69 77.84
2404 57.9800 5961.20 6048.07 77.21
2405 58.0000 5767.30 5940.05 75.94
2406 58.0200 5573.10 5856.90 74.65
2407 58.0400 5538.90 5797.26 74.42
2408 58.0600 5577.90 5760.36 74.69
2409 58.0800 5462.20 5746.69 73.91
2410 58.1000 5425.60 5758.11 73.66
2411 58.1200 5577.80 5797.70 74.68
2412 58.1400 5766.60 5869.49 75.94
2413 58.1600 5808.40 5978.08 76.21
2414 58.1800 5886.80 6127.90 76.73
2415 58.2000 6124.90 6322.15 78.26
2416 58.2200 6181.70 6560.71 78.62
2417 58.2400 6354.20 6837.89 79.71
2418 58.2600 6627.90 7138.52 81.41
2419 58.2800 6990.50 7433.80 83.61
2420 58.3000 7178.40 7683.47 84.73
2421 58.3200 7412.10 7839.05 86.09
2422 58.3400 7437.00 7878.28 86.24
2423 58.3600 7569.40 7813.22 87.00
2424 58.3800 7525.50 7694.29 86.75
2425 58.4000 7295.00 7565.19 85.41
2426 58.4200 7216.70 7454.50 84.95
2427 58.4400 7088.70 7368.76 84.19
2428 58.4600 7114.30 7306.24 84.35
2429 58.4800 6939.00 7223.86 83.30
2430 58.5000 6891.20 7116.83 83.01
2431 58.5200 6892.70 6983.47 83.02
2432 58.5400 6874.00 6838.06 82.91
2433 58.5600 6688.10 6690.03 81.78
2434 58.5800 6516.60 6545.54 80.73
2435 58.6000 6429.00 6406.68 80.18
2436 58.6200 6332.10 6277.94 79.57
2437 58.6400 6265.30 6165.89 79.15
2438 58.6600 6205.40 6076.02 78.77
2439 58.6800 6011.90 6010.63 77.54
2440 58.7000 5904.50 5967.78 76.84
2441 58.7200 5903.00 5941.97 76.83
2442 58.7400 6025.40 5926.41 77.62
2443 58.7600 5988.60 5913.71 77.39
2444 58.7800 5883.10 5897.85 76.70
2445 58.8000 6104.80 5873.52 78.13
2446 58.8200 5953.30 5836.68 77.16
2447 58.8400 5859.30 5786.37 76.55
2448 58.8600 5891.80 5728.58 76.76
2449 58.8800 5923.00 5669.73 76.96
2450 58.9000 5844.00 5615.74 76.45
2451 58.9200 5902.50 5569.25 76.83
2452 58.9400 5915.80 5529.62 76.91
2453 58.9600 6028.40 5493.67 77.64
2454 58.9800 6222.80 5457.58 78.88
2455 59.0000 6441.30 5418.30 80.26
2456 59.0200 6578.20 5378.12 81.11
2457 59.0400 6793.90 5336.43 82.43
2458 59.0600 7095.50 5299.22 84.23
2459 59.0800 7145.30 5266.43 84.53
2460 59.1000 7310.10 5238.44 85.50
2461 59.1200 7309.40 5215.26 85.50
2462 59.1400 7256.00 5194.75 85.18
2463 59.1600 7144.70 5179.86 84.53
2464 59.1800 6970.60 5173.31 83.49
2465 59.2000 6900.30 5164.26 83.07
2466 59.2200 6855.00 5158.50 82.79
2467 59.2400 6882.90 5154.94 82.96
2468 59.2600 6713.40 5159.23 81.94
2469 59.2800 6696.60 5159.28 81.83
2470 59.3000 6302.00 5159.95 79.39
2471 59.3200 6147.40 5163.10 78.41
2472 59.3400 6044.30 5167.86 77.75
2473 59.3600 5949.50 5174.34 77.13
2474 59.3800 5821.00 5182.81 76.30
2475 59.4000 5739.70 5193.57 75.76
2476 59.4200 5647.10 5207.23 75.15
2477 59.4400 5635.50 5224.71 75.07
2478 59.4600 5486.80 5247.48 74.07
2479 59.4800 5457.00 5277.97 73.87
2480 59.5000 5463.50 5319.73 73.92
2481 59.5200 5469.10 5377.93 73.95
2482 59.5400 5525.00 5462.50 74.33
2483 59.5600 5733.20 5575.34 75.72
2484 59.5800 5759.20 5727.50 75.89
2485 59.6000 5995.50 5925.17 77.43
2486 59.6200 6193.90 6166.24 78.70
2487 59.6400 6435.30 6452.15 80.22
2488 59.6600 6793.60 6760.62 82.42
2489 59.6800 7029.40 7058.45 83.84
2490 59.7000 7465.50 7298.68 86.40
2491 59.7200 7453.90 7442.48 86.34
2492 59.7400 7693.20 7487.73 87.71
2493 59.7600 7813.90 7469.41 88.40
2494 59.7800 7788.70 7427.59 88.25
2495 59.8000 7807.10 7389.49 88.36
2496 59.8200 7768.50 7354.71 88.14
2497 59.8400 7607.40 7310.38 87.22
2498 59.8600 7556.80 7235.90 86.93
2499 59.8800 7506.20 7118.33 86.64
2500 59.9000 7284.70 6966.55 85.35
2501 59.9200 6981.70 6779.28 83.56
2502 59.9400 6807.20 6587.80 82.51
2503 59.9600 6614.10 6405.82 81.33
2504 59.9800 6521.80 6240.09 80.76
2505 60.0000 6243.30 6085.63 79.01
2506 60.0200 5934.10 5943.85 77.03
2507 60.0400 5778.60 5818.11 76.02
2508 60.0600 5744.20 5707.91 75.79
2509 60.0800 5473.30 5614.82 73.98
2510 60.1000 5332.70 5535.50 73.03
2511 60.1200 5356.00 5474.97 73.18
2512 60.1400 5334.00 5428.93 73.03
2513 60.1600 5175.90 5396.38 71.94
2514 60.1800 5113.30 5376.60 71.51
2515 60.2000 5201.30 5369.00 72.12
2516 60.2200 5218.10 5371.42 72.24
2517 60.2400 5184.80 5386.03 72.01
2518 60.2600 5226.50 5408.11 72.29
2519 60.2800 5176.60 5438.11 71.95
2520 60.3000 5216.90 5471.26 72.23
2521 60.3200 5479.20 5504.88 74.02
2522 60.3400 5522.50 5539.13 74.31
2523 60.3600 5521.40 5577.48 74.31
2524 60.3800 5574.00 5623.99 74.66
2525 60.4000 5567.40 5685.12 74.61
2526 60.4200 5725.90 5764.92 75.67
2527 60.4400 5927.20 5872.18 76.99
2528 60.4600 6054.70 6011.28 77.81
2529 60.4800 6244.30 6187.64 79.02
2530 60.5000 6459.60 6401.27 80.37
2531 60.5200 6613.30 6644.95 81.32
2532 60.5400 7147.60 6899.49 84.54
2533 60.5600 7566.40 7133.22 86.99
2534 60.5800 7771.50 7303.69 88.16
2535 60.6000 8159.10 7383.35 90.33
2536 60.6200 8069.10 7375.92 89.83
2537 60.6400 7730.60 7313.01 87.92
2538 60.6600 7531.00 7229.00 86.78
2539 60.6800 7289.00 7148.81 85.38
2540 60.7000 7297.90 7085.48 85.43
2541 60.7200 7250.60 7040.00 85.15
2542 60.7400 7237.30 6998.91 85.07
2543 60.7600 7255.80 6944.23 85.18
2544 60.7800 7217.10 6864.46 84.95
2545 60.8000 7054.00 6760.79 83.99
2546 60.8200 6726.20 6640.69 82.01
2547 60.8400 6599.70 6511.33 81.24
2548 60.8600 6397.00 6382.77 79.98
2549 60.8800 6247.20 6267.39 79.04
2550 60.9000 6069.40 6176.36 77.91
2551 60.9200 6001.00 6116.18 77.47
2552 60.9400 5925.40 6090.43 76.98
2553 60.9600 5864.90 6089.08 76.58
2554 60.9800 5935.10 6108.09 77.04
2555 61.0000 5925.70 6142.96 76.98
2556 61.0200 6076.20 6195.38 77.95
2557 61.0400 6100.70 6275.42 78.11
2558 61.0600 6160.60 6395.25 78.49
2559 61.0800 6148.90 6561.70 78.41
2560 61.1000 6344.30 6771.05 79.65
2561 61.1200 6483.00 7007.66 80.52
2562 61.1400 6673.60 7233.93 81.69
2563 61.1600 6701.80 7402.25 81.86
2564 61.1800 6713.00 7464.05 81.93
2565 61.2000 6879.40 7403.38 82.94
2566 61.2200 6586.40 7251.87 81.16
2567 61.2400 6586.20 7064.44 81.16
2568 61.2600 6466.10 6887.73 80.41
2569 61.2800 6366.20 6746.63 79.79
2570 61.3000 6263.40 6641.29 79.14
2571 61.3200 6108.50 6560.02 78.16
2572 61.3400 5993.40 6471.84 77.42
2573 61.3600 6025.40 6352.72 77.62
2574 61.3800 5892.00 6199.17 76.76
2575 61.4000 5568.20 6026.66 74.62
2576 61.4200 5731.70 5855.19 75.71
2577 61.4400 5462.90 5699.46 73.91
2578 61.4600 5457.30 5567.44 73.87
2579 61.4800 5325.70 5460.94 72.98
2580 61.5000 5263.70 5380.31 72.55
2581 61.5200 5080.70 5321.38 71.28
2582 61.5400 5067.50 5280.21 71.19
2583 61.5600 5044.30 5253.26 71.02
2584 61.5800 5136.60 5238.04 71.67
2585 61.6000 5050.40 5233.12 71.07
2586 61.6200 5069.50 5238.18 71.20
2587 61.6400 5198.80 5254.39 72.10
2588 61.6600 5128.10 5283.81 71.61
2589 61.6800 5140.90 5329.73 71.70
2590 61.7000 5188.20 5396.26 72.03
2591 61.7200 5294.00 5487.62 72.76
2592 61.7400 5214.00 5606.74 72.21
2593 61.7600 5267.20 5753.90 72.58
2594 61.7800 5468.30 5921.20 73.95
2595 61.8000 5545.90 6100.94 74.47
2596 61.8200 5695.20 6268.67 75.47
2597 61.8400 5687.80 6394.63 75.42
2598 61.8600 5815.40 6451.56 76.26
2599 61.8800 5848.70 6434.22 76.48
2600 61.9000 5891.10 6364.86 76.75
2601 61.9200 5719.70 6294.37 75.63
2602 61.9400 5582.60 6218.73 74.72
2603 61.9600 5649.10 6172.09 75.16
2604 61.9800 5701.60 6156.02 75.51
2605 62.0000 5745.40 6160.94 75.80
2606 62.0200 5554.40 6169.06 74.53
2607 62.0400 5703.10 6163.21 75.52
2608 62.0600 5632.40 6135.35 75.05
2609 62.0800 5562.60 6085.14 74.58
2610 62.1000 5519.00 6009.95 74.29
2611 62.1200 5407.60 5916.98 73.54
2612 62.1400 5321.40 5811.85 72.95
2613 62.1600 5314.40 5708.58 72.90
2614 62.1800 5313.10 5620.17 72.89
2615 62.2000 5295.70 5553.81 72.77
2616 62.2200 5167.70 5510.48 71.89
2617 62.2400 5301.90 5487.01 72.81
2618 62.2600 5166.20 5475.24 71.88
2619 62.2800 5159.90 5470.91 71.83
2620 62.3000 5096.90 5470.25 71.39
2621 62.3200 5099.80 5476.66 71.41
2622 62.3400 5189.70 5497.39 72.04
2623 62.3600 5119.30 5538.72 71.55
2624 62.3800 5252.60 5603.90 72.47
2625 62.4000 5364.40 5692.09 73.24
2626 62.4200 5221.70 5797.58 72.26
2627 62.4400 5345.60 5907.78 73.11
2628 62.4600 5374.50 6003.67 73.31
2629 62.4800 5475.60 6063.19 74.00
2630 62.5000 5503.00 6072.15 74.18
2631 62.5200 5551.70 6034.20 74.51
2632 62.5400 5421.80 5968.10 73.63
2633 62.5600 5542.40 5892.67 74.45
2634 62.5800 5418.10 5844.15 73.61
2635 62.6000 5359.00 5794.53 73.21
2636 62.6200 5325.50 5757.44 72.98
2637 62.6400 5367.70 5723.43 73.26
2638 62.6600 5334.70 5681.36 73.04
2639 62.6800 5337.50 5623.91 73.06
2640 62.7000 5235.20 5555.21 72.35
2641 62.7200 5259.60 5481.35 72.52
2642 62.7400 5422.20 5412.42 73.64
2643 62.7600 5217.30 5353.19 72.23
2644 62.7800 5309.00 5307.45 72.86
2645 62.8000 5307.50 5276.71 72.85
2646 62.8200 5228.50 5262.60 72.31
2647 62.8400 5337.70 5265.90 73.06
2648 62.8600 5374.60 5289.56 73.31
2649 62.8800 5400.00 5337.74 73.48
2650 62.9000 5508.60 5415.23 74.22
2651 62.9200 5768.80 5530.32 75.95
2652 62.9400 5942.80 5686.02 77.09
2653 62.9600 6035.10 5887.60 77.69
2654 62.9800 6324.30 6134.12 79.53
2655 63.0000 6593.60 6417.57 81.20
2656 63.0200 6962.70 6723.27 83.44
2657 63.0400 7309.70 7031.55 85.50
2658 63.0600 7630.80 7318.44 87.35
2659 63.0800 7923.40 7549.47 89.01
2660 63.1000 8410.20 7686.14 91.71
2661 63.1200 8606.30 7707.12 92.77
2662 63.1400 8640.90 7635.39 92.96
2663 63.1600 8382.30 7515.17 91.55
2664 63.1800 8467.80 7385.14 92.02
2665 63.2000 8167.30 7265.14 90.37
2666 63.2200 8157.40 7159.36 90.32
2667 63.2400 8083.20 7060.93 89.91
2668 63.2600 7987.90 6953.43 89.38
2669 63.2800 7692.20 6815.09 87.71
2670 63.3000 7501.50 6642.80 86.61
2671 63.3200 7249.80 6444.50 85.15
2672 63.3400 7085.30 6239.67 84.17
2673 63.3600 6873.30 6044.12 82.91
2674 63.3800 6585.30 5866.57 81.15
2675 63.4000 6427.40 5710.57 80.17
2676 63.4200 6024.60 5577.26 77.62
2677 63.4400 6064.50 5466.31 77.87
2678 63.4600 5945.20 5375.33 77.11
2679 63.4800 5816.60 5304.22 76.27
2680 63.5000 5608.80 5249.31 74.89
2681 63.5200 5573.70 5208.01 74.66
2682 63.5400 5375.40 5178.25 73.32
2683 63.5600 5484.10 5158.90 74.05
2684 63.5800 5390.10 5148.56 73.42
2685 63.6000 5468.80 5147.36 73.95
2686 63.6200 5478.00 5155.83 74.01
2687 63.6400 5335.00 5175.09 73.04
2688 63.6600 5446.70 5207.72 73.80
2689 63.6800 5288.50 5256.53 72.72
2690 63.7000 5362.40 5325.21 73.23
2691 63.7200 5501.60 5417.62 74.17
2692 63.7400 5620.50 5542.20 74.97
2693 63.7600 5686.50 5689.94 75.41
2694 63.7800 5947.70 5863.97 77.12
2695 63.8000 6001.20 6057.25 77.47
2696 63.8200 6097.50 6256.66 78.09
2697 63.8400 6288.00 6440.22 79.30
2698 63.8600 6381.20 6585.76 79.88
2699 63.8800 6459.60 6686.41 80.37
2700 63.9000 6584.40 6751.10 81.14
2701 63.9200 6458.00 6801.98 80.36
2702 63.9400 6431.70 6857.72 80.20
2703 63.9600 6530.60 6924.26 80.81
2704 63.9800 6495.00 6994.48 80.59
2705 64.0000 6604.60 7045.08 81.27
2706 64.0200 6541.90 7052.83 80.88
2707 64.0400 6572.10 7003.28 81.07
2708 64.0600 6547.00 6899.06 80.91
2709 64.0800 6267.50 6757.28 79.17
2710 64.1000 6212.50 6601.70 78.82
2711 64.1200 6086.50 6450.63 78.02
2712 64.1400 5980.30 6313.10 77.33
2713 64.1600 5763.00 6189.00 75.91
2714 64.1800 5726.70 6072.72 75.68
2715 64.2000 5638.90 5958.23 75.09
2716 64.2200 5495.90 5842.03 74.13
2717 64.2400 5433.80 5727.27 73.71
2718 64.2600 5158.20 5618.28 71.82
2719 64.2800 5210.50 5520.31 72.18
2720 64.3000 5122.50 5436.69 71.57
2721 64.3200 5041.40 5369.99 71.00
2722 64.3400 5055.30 5321.44 71.10
2723 64.3600 5066.80 5289.14 71.18
2724 64.3800 5022.70 5272.10 70.87
2725 64.4000 5038.70 5271.07 70.98
2726 64.4200 5033.10 5282.64 70.94
2727 64.4400 5082.40 5303.41 71.29
2728 64.4600 5040.10 5328.75 70.99
2729 64.4800 5105.40 5353.54 71.45
2730 64.5000 5086.20 5374.53 71.32
2731 64.5200 5164.60 5391.69 71.87
2732 64.5400 5117.20 5404.73 71.53
2733 64.5600 5037.60 5420.03 70.98
2734 64.5800 5211.10 5438.72 72.19
2735 64.6000 5251.20 5460.37 72.47
2736 64.6200 5257.60 5482.77 72.51
2737 64.6400 5377.10 5500.74 73.33
2738 64.6600 5302.80 5507.42 72.82
2739 64.6800 5423.90 5498.09 73.65
2740 64.7000 5378.90 5474.11 73.34
2741 64.7200 5409.90 5442.04 73.55
2742 64.7400 5431.90 5413.17 73.70
2743 64.7600 5391.00 5394.72 73.42
2744 64.7800 5305.90 5391.77 72.84
2745 64.8000 5488.60 5403.86 74.09
2746 64.8200 5632.00 5431.80 75.05
2747 64.8400 5514.10 5466.41 74.26
2748 64.8600 5725.40 5497.11 75.67
2749 64.8800 5730.90 5512.48 75.70
2750 64.9000 5572.70 5503.79 74.65
2751 64.9200 5591.20 5471.83 74.77
2752 64.9400 5510.90 5425.76 74.24
2753 64.9600 5522.10 5379.02 74.31
2754 64.9800 5403.70 5342.87 73.51
2755 65.0000 5386.20 5324.54 73.39
2756 65.0200 5361.00 5326.09 73.22
2757 65.0400 5256.60 5343.95 72.50
2758 65.0600 5371.60 5370.40 73.29
2759 65.0800 5191.30 5395.40 72.05
2760 65.1000 5162.60 5410.89 71.85
2761 65.1200 5159.30 5411.48 71.83
2762 65.1400 5120.60 5394.64 71.56
2763 65.1600 5139.90 5361.97 71.69
2764 65.1800 4943.60 5314.78 70.31
2765 65.2000 4961.90 5261.68 70.44
2766 65.2200 5044.50 5209.71 71.02
2767 65.2400 4884.80 5163.46 69.89
2768 65.2600 4791.50 5123.98 69.22
2769 65.2800 4722.30 5092.53 68.72
2770 65.3000 4766.30 5064.95 69.04
2771 65.3200 4716.80 5038.06 68.68
2772 65.3400 4715.20 5007.79 68.67
2773 65.3600 4754.30 4974.08 68.95
2774 65.3800 4723.50 4937.49 68.73
2775 65.4000 4658.60 4902.75 68.25
2776 65.4200 4636.30 4871.02 68.09
2777 65.4400 4648.20 4843.61 68.18
2778 65.4600 4609.90 4822.67 67.90
2779 65.4800 4678.60 4808.22 68.40
2780 65.5000 4622.40 4800.74 67.99
2781 65.5200 4651.60 4804.83 68.20
2782 65.5400 4639.70 4813.18 68.12
2783 65.5600 4562.30 4828.81 67.54
2784 65.5800 4787.80 4853.38 69.19
2785 65.6000 4836.50 4886.41 69.54
2786 65.6200 4774.10 4927.52 69.09
2787 65.6400 4891.30 4975.62 69.94
2788 65.6600 4932.10 5028.47 70.23
2789 65.6800 5107.10 5082.10 71.46
2790 65.7000 5017.20 5130.55 70.83
2791 65.7200 5138.30 5168.57 71.68
2792 65.7400 5057.50 5186.38 71.12
2793 65.7600 5125.60 5184.20 71.59
2794 65.7800 5162.80 5165.72 71.85
2795 65.8000 5248.10 5137.87 72.44
2796 65.8200 5157.50 5107.56 71.82
2797 65.8400 5164.10 5079.37 71.86
2798 65.8600 5236.30 5055.04 72.36
2799 65.8800 5184.30 5034.97 72.00
2800 65.9000 5156.20 5013.50 71.81
2801 65.9200 5067.50 4988.78 71.19
2802 65.9400 5026.20 4957.91 70.90
2803 65.9600 4960.70 4923.78 70.43
2804 65.9800 4930.60 4887.87 70.22
2805 66.0000 4943.80 4853.31 70.31
2806 66.0200 4788.90 4820.95 69.20
2807 66.0400 4820.20 4795.97 69.43
2808 66.0600 4825.10 4778.61 69.46
2809 66.0800 4820.80 4768.64 69.43
2810 66.1000 4789.00 4768.12 69.20
2811 66.1200 4825.00 4778.47 69.46
2812 66.1400 4795.50 4801.83 69.25
2813 66.1600 4717.30 4844.52 68.68
2814 66.1800 4754.10 4908.41 68.95
2815 66.2000 4842.90 4995.28 69.59
2816 66.2200 4847.30 5107.71 69.62
2817 66.2400 5001.80 5236.48 70.72
2818 66.2600 4993.40 5372.70 70.66
2819 66.2800 4981.40 5496.62 70.58
2820 66.3000 5010.20 5584.53 70.78
2821 66.3200 5097.50 5616.19 71.40
2822 66.3400 5059.10 5591.46 71.13
2823 66.3600 5260.40 5527.42 72.53
2824 66.3800 5193.50 5449.11 72.07
2825 66.4000 5382.80 5378.96 73.37
2826 66.4200 5347.50 5323.91 73.13
2827 66.4400 5332.40 5289.27 73.02
2828 66.4600 5313.90 5268.76 72.90
2829 66.4800 5193.80 5249.77 72.07
2830 66.5000 5391.00 5218.37 73.42
2831 66.5200 5156.50 5166.58 71.81
2832 66.5400 5076.00 5097.56 71.25
2833 66.5600 5157.30 5019.88 71.81
2834 66.5800 5100.20 4942.64 71.42
2835 66.6000 5082.90 4871.60 71.29
2836 66.6200 4971.30 4811.44 70.51
2837 66.6400 4959.80 4762.89 70.43
2838 66.6600 4792.20 4725.19 69.23
2839 66.6800 4866.70 4697.73 69.76
2840 66.7000 4855.70 4686.37 69.68
2841 66.7200 4698.50 4674.41 68.55
2842 66.7400 4725.30 4668.78 68.74
2843 66.7600 4670.10 4668.84 68.34
2844 66.7800 4732.90 4674.54 68.80
2845 66.8000 4690.90 4686.86 68.49
2846 66.8200 4778.30 4706.70 69.13
2847 66.8400 4742.50 4735.43 68.87
2848 66.8600 4730.90 4775.32 68.78
2849 66.8800 4866.10 4828.32 69.76
2850 66.9000 5028.70 4896.66 70.91
2851 66.9200 5083.00 4982.05 71.30
2852 66.9400 5098.40 5085.97 71.40
2853 66.9600 5189.30 5207.29 72.04
2854 66.9800 5322.30 5344.39 72.95
2855 67.0000 5367.90 5490.35 73.27
2856 67.0200 5597.10 5634.56 74.81
2857 67.0400 5691.90 5763.55 75.44
2858 67.0600 5792.30 5865.34 76.11
2859 67.0800 5954.20 5933.19 77.16
2860 67.1000 5993.70 5965.59 77.42
2861 67.1200 5873.80 5963.73 76.64
2862 67.1400 5857.90 5931.33 76.54
2863 67.1600 5876.10 5876.67 76.66
2864 67.1800 5710.60 5810.32 75.57
2865 67.2000 5844.10 5741.44 76.45
2866 67.2200 5775.50 5674.12 76.00
2867 67.2400 5682.30 5607.68 75.38
2868 67.2600 5538.00 5539.86 74.42
2869 67.2800 5499.20 5468.88 74.16
2870 67.3000 5401.80 5392.66 73.50
2871 67.3200 5429.70 5311.53 73.69
2872 67.3400 5258.00 5225.83 72.51
2873 67.3600 5137.70 5139.38 71.68
2874 67.3800 5062.60 5057.43 71.15
2875 67.4000 5195.10 4985.16 72.08
2876 67.4200 5087.20 4926.34 71.32
2877 67.4400 5033.50 4883.70 70.95
2878 67.4600 4961.50 4859.55 70.44
2879 67.4800 4986.90 4856.38 70.62
2880 67.5000 5189.30 4876.99 72.04
2881 67.5200 5165.30 4925.57 71.87
2882 67.5400 5294.60 5005.54 72.76
2883 67.5600 5383.30 5119.70 73.37
2884 67.5800 5466.50 5268.14 73.94
2885 67.6000 5556.70 5446.52 74.54
2886 67.6200 5762.10 5644.18 75.91
2887 67.6400 5966.40 5841.37 77.24
2888 67.6600 6135.10 6009.41 78.33
2889 67.6800 6186.70 6114.55 78.66
2890 67.7000 6312.80 6139.73 79.45
2891 67.7200 6403.70 6090.67 80.02
2892 67.7400 6364.90 5996.94 79.78
2893 67.7600 6368.90 5891.86 79.81
2894 67.7800 6240.90 5800.01 79.00
2895 67.8000 6305.90 5733.26 79.41
2896 67.8200 6177.40 5694.74 78.60
2897 67.8400 6092.50 5675.74 78.05
2898 67.8600 6082.00 5660.39 77.99
2899 67.8800 6051.30 5633.56 77.79
2900 67.9000 6082.40 5586.68 77.99
2901 67.9200 5921.80 5524.57 76.95
2902 67.9400 5753.70 5458.81 75.85
2903 67.9600 5822.20 5399.38 76.30
2904 67.9800 5731.30 5350.46 75.71
2905 68.0000 5608.90 5312.12 74.89
2906 68.0200 5624.90 5280.14 75.00
2907 68.0400 5534.30 5250.32 74.39
2908 68.0600 5349.80 5219.57 73.14
2909 68.0800 5353.70 5185.94 73.17
2910 68.1000 5434.10 5148.46 73.72
2911 68.1200 5236.10 5107.98 72.36
2912 68.1400 5095.40 5067.20 71.38
2913 68.1600 5208.90 5029.21 72.17
2914 68.1800 5146.00 4995.83 71.74
2915 68.2000 4968.80 4966.79 70.49
2916 68.2200 4877.00 4940.61 69.84
2917 68.2400 4930.60 4915.92 70.22
2918 68.2600 4841.80 4891.97 69.58
2919 68.2800 4937.80 4868.70 70.27
2920 68.3000 4956.40 4845.86 70.40
2921 68.3200 4731.50 4827.13 68.79
2922 68.3400 4711.20 4814.36 68.64
2923 68.3600 4719.70 4810.51 68.70
2924 68.3800 4772.30 4817.83 69.08
2925 68.4000 4768.00 4838.10 69.05
2926 68.4200 4753.00 4871.81 68.94
2927 68.4400 4701.40 4918.78 68.57
2928 68.4600 4714.70 4977.52 68.66
2929 68.4800 4796.50 5044.89 69.26
2930 68.5000 4793.50 5116.85 69.24
2931 68.5200 4766.40 5185.80 69.04
2932 68.5400 4919.50 5242.50 70.14
2933 68.5600 4948.20 5278.09 70.34
2934 68.5800 4920.20 5287.28 70.14
2935 68.6000 4874.70 5271.26 69.82
2936 68.6200 4852.50 5239.26 69.66
2937 68.6400 4770.20 5195.04 69.07
2938 68.6600 4850.10 5149.08 69.64
2939 68.6800 4827.90 5106.20 69.48
2940 68.7000 4808.10 5067.67 69.34
2941 68.7200 4644.80 5031.73 68.15
2942 68.7400 4700.20 4994.55 68.56
2943 68.7600 4672.60 4954.78 68.36
2944 68.7800 4739.10 4904.18 68.84
2945 68.8000 4635.70 4847.40 68.09
2946 68.8200 4599.10 4786.61 67.82
2947 68.8400 4559.50 4725.58 67.52
2948 68.8600 4509.50 4667.34 67.15
2949 68.8800 4459.60 4615.29 66.78
2950 68.9000 4347.90 4567.54 65.94
2951 68.9200 4404.90 4525.75 66.37
2952 68.9400 4430.00 4489.46 66.56
2953 68.9600 4405.20 4458.79 66.37
2954 68.9800 4310.60 4432.55 65.66
2955 69.0000 4242.20 4409.64 65.13
2956 69.0200 4356.70 4391.65 66.01
2957 69.0400 4256.60 4376.44 65.24
2958 69.0600 4305.60 4363.64 65.62
2959 69.0800 4352.00 4352.80 65.97
2960 69.1000 4335.90 4343.53 65.85
2961 69.1200 4448.10 4335.51 66.69
2962 69.1400 4294.90 4328.51 65.54
2963 69.1600 4394.80 4322.31 66.29
2964 69.1800 4316.50 4315.30 65.70
2965 69.2000 4239.00 4310.02 65.11
2966 69.2200 4323.90 4307.50 65.76
2967 69.2400 4309.40 4303.53 65.65
2968 69.2600 4311.60 4299.92 65.66
2969 69.2800 4326.20 4296.63 65.77
2970 69.3000 4423.00 4295.85 66.51
2971 69.3200 4417.80 4293.98 66.47
2972 69.3400 4387.30 4291.19 66.24
2973 69.3600 4311.50 4289.05 65.66
2974 69.3800 4378.70 4286.52 66.17
2975 69.4000 4418.70 4284.84 66.47
2976 69.4200 4438.60 4283.36 66.62
2977 69.4400 4499.80 4282.08 67.08
2978 69.4600 4427.60 4280.99 66.54
2979 69.4800 4330.20 4280.11 65.80
2980 69.5000 4350.30 4279.16 65.96
2981 69.5200 4365.10 4279.94 66.07
2982 69.5400 4373.90 4279.60 66.14
2983 69.5600 4298.50 4279.69 65.56
2984 69.5800 4288.40 4280.03 65.49
2985 69.6000 4342.00 4280.64 65.89
2986 69.6200 4355.90 4281.56 66.00
2987 69.6400 4279.70 4282.84 65.42
2988 69.6600 4259.70 4284.52 65.27
2989 69.6800 4192.00 4286.76 64.75
2990 69.7000 4281.30 4288.98 65.43
2991 69.7200 4388.60 4292.74 66.25
2992 69.7400 4300.90 4297.48 65.58
2993 69.7600 4299.80 4304.05 65.57
2994 69.7800 4396.70 4311.83 66.31
2995 69.8000 4410.90 4321.46 66.41
2996 69.8200 4356.90 4333.05 66.01
2997 69.8400 4364.70 4346.55 66.07
2998 69.8600 4445.90 4361.57 66.68
2999 69.8800 4467.10 4377.48 66.84
3000 69.9000 4507.40 4393.18 67.14
3001 69.9200 4457.50 4407.46 66.76
3002 69.9400 4355.50 4419.44 66.00
3003 69.9600 4499.90 4430.99 67.08
3004 69.9800 4485.00 4439.11 66.97
3005 70.0000 4470.90 4446.95 66.86
3006 70.0200 4631.00 4455.76 68.05
3007 70.0400 4628.60 4467.98 68.03
3008 70.0600 4592.90 4486.63 67.77
3009 70.0800 4564.10 4508.96 67.56
3010 70.1000 4618.60 4537.59 67.96
3011 70.1200 4685.90 4573.42 68.45
3012 70.1400 4846.20 4617.45 69.61
3013 70.1600 4911.20 4671.28 70.08
3014 70.1800 4861.50 4737.74 69.72
3015 70.2000 4900.50 4819.58 70.00
3016 70.2200 5026.50 4919.45 70.90
3017 70.2400 5179.70 5038.88 71.97
3018 70.2600 5268.20 5178.96 72.58
3019 70.2800 5374.40 5337.56 73.31
3020 70.3000 5588.90 5511.34 74.76
3021 70.3200 5836.50 5695.61 76.40
3022 70.3400 6115.90 5883.74 78.20
3023 70.3600 6472.80 6063.60 80.45
3024 70.3800 6896.90 6216.13 83.05
3025 70.4000 7238.50 6318.02 85.08
3026 70.4200 7460.60 6353.28 86.37
3027 70.4400 7488.90 6324.74 86.54
3028 70.4600 7272.30 6254.92 85.28
3029 70.4800 7064.60 6171.95 84.05
3030 70.5000 6854.40 6098.44 82.79
3031 70.5200 6741.10 6047.14 82.10
3032 70.5400 6643.70 6021.37 81.51
3033 70.5600 6598.20 6016.50 81.23
3034 70.5800 6686.10 6022.10 81.77
3035 70.6000 7007.50 6025.13 83.71
3036 70.6200 7041.00 6015.09 83.91
3037 70.6400 7087.80 5989.50 84.19
3038 70.6600 6958.90 5955.09 83.42
3039 70.6800 6897.30 5922.83 83.05
3040 70.7000 6693.10 5906.53 81.81
3041 70.7200 6646.40 5911.09 81.53
3042 70.7400 6457.50 5933.59 80.36
3043 70.7600 6435.90 5961.79 80.22
3044 70.7800 6401.70 5977.79 80.01
3045 70.8000 6440.50 5965.61 80.25
3046 70.8200 6524.90 5924.74 80.78
3047 70.8400 6355.40 5863.25 79.72
3048 70.8600 6359.00 5794.37 79.74
3049 70.8800 6375.40 5726.93 79.85
3050 70.9000 6290.40 5665.91 79.31
3051 70.9200 6214.40 5609.78 78.83
3052 70.9400 6072.10 5554.93 77.92
3053 70.9600 6065.50 5497.10 77.88
3054 70.9800 5859.50 5431.64 76.55
3055 71.0000 5762.50 5354.56 75.91
3056 71.0200 5744.80 5268.71 75.79
3057 71.0400 5795.30 5178.26 76.13
3058 71.0600 5610.60 5092.02 74.90
3059 71.0800 5516.80 5015.97 74.28
3060 71.1000 5436.80 4952.60 73.73
3061 71.1200 5416.80 4902.10 73.60
3062 71.1400 5274.90 4864.12 72.63
3063 71.1600 5350.30 4839.07 73.15
3064 71.1800 5145.40 4827.78 71.73
3065 71.2000 5226.00 4830.05 72.29
3066 71.2200 5149.10 4843.42 71.76
3067 71.2400 5059.50 4862.61 71.13
3068 71.2600 5035.70 4879.70 70.96
3069 71.2800 5034.50 4885.72 70.95
3070 71.3000 5037.30 4874.71 70.97
3071 71.3200 5035.90 4847.74 70.96
3072 71.3400 4980.40 4812.40 70.57
3073 71.3600 4859.60 4778.50 69.71
3074 71.3800 4942.60 4754.20 70.30
3075 71.4000 4838.20 4744.77 69.56
3076 71.4200 4757.30 4752.27 68.97
3077 71.4400 4756.90 4775.88 68.97
3078 71.4600 4941.30 4811.66 70.29
3079 71.4800 4778.40 4853.64 69.13
3080 71.5000 4843.80 4895.24 69.60
3081 71.5200 4878.80 4931.43 69.85
3082 71.5400 4870.40 4958.58 69.79
3083 71.5600 4851.00 4972.85 69.65
3084 71.5800 4724.90 4969.64 68.74
3085 71.6000 4773.10 4946.38 69.09
3086 71.6200 4629.80 4905.49 68.04
3087 71.6400 4630.90 4854.29 68.05
3088 71.6600 4759.60 4800.99 68.99
3089 71.6800 4680.10 4752.51 68.41
3090 71.7000 4635.70 4712.69 68.09
3091 71.7200 4629.60 4682.49 68.04
3092 71.7400 4608.60 4660.36 67.89
3093 71.7600 4695.70 4642.64 68.53
3094 71.7800 4532.30 4624.42 67.32
3095 71.8000 4544.10 4601.56 67.41
3096 71.8200 4597.60 4572.31 67.81
3097 71.8400 4553.90 4539.01 67.48
3098 71.8600 4481.90 4506.36 66.95
3099 71.8800 4508.40 4470.41 67.14
3100 71.9000 4535.90 4436.86 67.35
3101 71.9200 4472.90 4406.55 66.88
3102 71.9400 4540.60 4379.60 67.38
3103 71.9600 4516.00 4355.92 67.20
3104 71.9800 4607.80 4335.30 67.88
3105 72.0000 4487.50 4317.72 66.99
3106 72.0200 4458.30 4306.41 66.77
3107 72.0400 4376.00 4294.45 66.15
3108 72.0600 4430.30 4284.95 66.56
3109 72.0800 4562.70 4278.17 67.55
3110 72.1000 4445.50 4272.39 66.67
3111 72.1200 4392.90 4267.69 66.28
3112 72.1400 4426.40 4261.13 66.53
3113 72.1600 4431.50 4258.21 66.57
3114 72.1800 4350.90 4255.83 65.96
3115 72.2000 4335.90 4254.39 65.85
3116 72.2200 4357.80 4253.84 66.01
3117 72.2400 4387.20 4255.22 66.24
3118 72.2600 4356.20 4258.66 66.00
3119 72.2800 4397.80 4263.25 66.32
3120 72.3000 4415.60 4271.81 66.45
3121 72.3200 4428.50 4283.10 66.55
3122 72.3400 4400.70 4297.18 66.34
3123 72.3600 4383.00 4312.00 66.20
3124 72.3800 4393.10 4329.42 66.28
3125 72.4000 4436.80 4346.33 66.61
3126 72.4200 4368.90 4360.68 66.10
3127 72.4400 4404.40 4370.22 66.37
3128 72.4600 4365.80 4373.95 66.07
3129 72.4800 4524.60 4377.02 67.27
3130 72.5000 4501.10 4370.81 67.09
3131 72.5200 4492.70 4362.57 67.03
3132 72.5400 4473.60 4353.88 66.89
3133 72.5600 4500.70 4347.30 67.09
3134 72.5800 4500.70 4341.33 67.09
3135 72.6000 4444.00 4337.10 66.66
3136 72.6200 4445.30 4333.38 66.67
3137 72.6400 4413.70 4329.82 66.44
3138 72.6600 4465.50 4325.41 66.82
3139 72.6800 4397.50 4318.92 66.31
3140 72.7000 4492.40 4311.50 67.03
3141 72.7200 4414.00 4303.28 66.44
3142 72.7400 4386.20 4294.82 66.23
3143 72.7600 4429.20 4287.18 66.55
3144 72.7800 4571.10 4283.66 67.61
3145 72.8000 4572.50 4278.91 67.62
3146 72.8200 4507.70 4275.35 67.14
3147 72.8400 4477.00 4274.28 66.91
3148 72.8600 4471.90 4275.41 66.87
3149 72.8800 4535.40 4278.48 67.35
3150 72.9000 4475.60 4283.23 66.90
3151 72.9200 4551.40 4291.81 67.46
3152 72.9400 4420.20 4303.78 66.48
3153 72.9600 4534.30 4320.24 67.34
3154 72.9800 4560.80 4342.34 67.53
3155 73.0000 4666.50 4371.11 68.31
3156 73.0200 4655.70 4409.08 68.23
3157 73.0400 4657.30 4456.92 68.24
3158 73.0600 4804.50 4515.82 69.31
3159 73.0800 4804.00 4585.31 69.31
3160 73.1000 4956.40 4663.14 70.40
3161 73.1200 5006.10 4746.59 70.75
3162 73.1400 5029.00 4829.40 70.92
3163 73.1600 5157.80 4904.80 71.82
3164 73.1800 5208.00 4967.25 72.17
3165 73.2000 5375.10 5015.99 73.32
3166 73.2200 5399.70 5057.19 73.48
3167 73.2400 5383.20 5100.54 73.37
3168 73.2600 5512.50 5155.35 74.25
3169 73.2800 5510.30 5227.83 74.23
3170 73.3000 5515.00 5318.67 74.26
3171 73.3200 5643.20 5421.22 75.12
3172 73.3400 5727.90 5522.61 75.68
3173 73.3600 5776.10 5605.57 76.00
3174 73.3800 5955.40 5653.07 77.17
3175 73.4000 5960.30 5658.10 77.20
3176 73.4200 5855.10 5625.39 76.52
3177 73.4400 5752.60 5565.91 75.85
3178 73.4600 5712.50 5492.11 75.58
3179 73.4800 5588.90 5412.13 74.76
3180 73.5000 5624.30 5335.45 75.00
3181 73.5200 5353.10 5267.61 73.16
3182 73.5400 5378.00 5210.17 73.33
3183 73.5600 5330.40 5160.29 73.01
3184 73.5800 5281.40 5111.45 72.67
3185 73.6000 5198.70 5058.40 72.10
3186 73.6200 5135.10 4999.64 71.66
3187 73.6400 5177.40 4936.92 71.95
3188 73.6600 5039.20 4872.58 70.99
3189 73.6800 5012.10 4808.56 70.80
3190 73.7000 5040.70 4746.91 71.00
3191 73.7200 4871.00 4690.12 69.79
3192 73.7400 4738.10 4640.60 68.83
3193 73.7600 4593.20 4600.05 67.77
3194 73.7800 4652.20 4569.43 68.21
3195 73.8000 4655.30 4548.92 68.23
3196 73.8200 4725.60 4538.45 68.74
3197 73.8400 4640.60 4537.08 68.12
3198 73.8600 4754.90 4543.80 68.96
3199 73.8800 4648.60 4558.99 68.18
3200 73.9000 4672.20 4581.19 68.35
3201 73.9200 4640.10 4609.15 68.12
3202 73.9400 4629.30 4641.25 68.04
3203 73.9600 4704.90 4675.57 68.59
3204 73.9800 4736.70 4710.54 68.82
3205 74.0000 4663.70 4745.54 68.29
3206 74.0200 4846.90 4782.38 69.62
3207 74.0400 4844.90 4822.06 69.61
3208 74.0600 4915.80 4868.17 70.11
3209 74.0800 4890.80 4922.51 69.93
3210 74.1000 4878.50 4986.78 69.85
3211 74.1200 4870.50 5059.71 69.79
3212 74.1400 4862.30 5138.13 69.73
3213 74.1600 4983.30 5216.38 70.59
3214 74.1800 4971.50 5286.32 70.51
3215 74.2000 4930.10 5338.81 70.21
3216 74.2200 5024.60 5366.33 70.88
3217 74.2400 5019.90 5366.30 70.85
3218 74.2600 5013.90 5342.05 70.81
3219 74.2800 5018.20 5301.53 70.84
3220 74.3000 4916.00 5254.21 70.11
3221 74.3200 4906.20 5208.17 70.04
3222 74.3400 4888.80 5168.81 69.92
3223 74.3600 4886.90 5138.67 69.91
3224 74.3800 4849.40 5117.58 69.64
3225 74.4000 4844.10 5103.56 69.60
3226 74.4200 4788.40 5093.06 69.20
3227 74.4400 4759.30 5083.47 68.99
3228 74.4600 4801.30 5074.06 69.29
3229 74.4800 4724.90 5066.37 68.74
3230 74.5000 4744.60 5063.63 68.88
3231 74.5200 4733.90 5069.24 68.80
3232 74.5400 4591.40 5085.52 67.76
3233 74.5600 4814.70 5113.00 69.39
3234 74.5800 4721.80 5149.97 68.72
3235 74.6000 4666.10 5192.35 68.31
3236 74.6200 4638.50 5234.98 68.11
3237 74.6400 4663.50 5266.83 68.29
3238 74.6600 4659.60 5281.59 68.26
3239 74.6800 4569.00 5275.05 67.59
3240 74.7000 4647.40 5248.29 68.17
3241 74.7200 4536.00 5208.08 67.35
3242 74.7400 4677.20 5162.46 68.39
3243 74.7600 4601.10 5118.71 67.83
3244 74.7800 4536.80 5082.39 67.36
3245 74.8000 4608.90 5055.40 67.89
3246 74.8200 4702.90 5037.05 68.58
3247 74.8400 4486.20 5024.07 66.98
3248 74.8600 4496.70 5011.24 67.06
3249 74.8800 4479.10 4992.90 66.93
3250 74.9000 4535.50 4964.25 67.35
3251 74.9200 4542.60 4926.16 67.40
3252 74.9400 4364.70 4872.74 66.07
3253 74.9600 4489.00 4817.72 67.00
3254 74.9800 4374.20 4753.98 66.14
3255 75.0000 4458.50 4691.96 66.77
3256 75.0200 4445.40 4635.07 66.67
3257 75.0400 4383.20 4585.37 66.21
3258 75.0600 4307.60 4543.52 65.63
3259 75.0800 4348.70 4509.20 65.94
3260 75.1000 4280.70 4481.30 65.43
3261 75.1200 4270.90 4458.21 65.35
3262 75.1400 4352.00 4437.22 65.97
3263 75.1600 4272.60 4417.03 65.37
3264 75.1800 4279.70 4397.75 65.42
3265 75.2000 4238.00 4379.21 65.10
3266 75.2200 4217.00 4362.16 64.94
3267 75.2400 4177.10 4347.30 64.63
3268 75.2600 4189.20 4335.59 64.72
3269 75.2800 4268.90 4326.43 65.34
3270 75.3000 4235.70 4320.94 65.08
3271 75.3200 4178.70 4319.19 64.64
3272 75.3400 4196.80 4320.73 64.78
3273 75.3600 4156.40 4326.95 64.47
3274 75.3800 4192.50 4337.79 64.75
3275 75.4000 4218.00 4352.92 64.95
3276 75.4200 4300.20 4372.61 65.58
3277 75.4400 4394.10 4396.08 66.29
3278 75.4600 4383.00 4422.07 66.20
3279 75.4800 4407.70 4449.08 66.39
3280 75.5000 4461.70 4476.25 66.80
3281 75.5200 4361.40 4496.93 66.04
3282 75.5400 4391.20 4509.87 66.27
3283 75.5600 4409.80 4513.24 66.41
3284 75.5800 4428.30 4508.56 66.55
3285 75.6000 4509.90 4497.63 67.16
3286 75.6200 4538.00 4483.18 67.36
3287 75.6400 4362.30 4468.18 66.05
3288 75.6600 4528.40 4454.60 67.29
3289 75.6800 4415.10 4444.07 66.45
3290 75.7000 4397.20 4435.99 66.31
3291 75.7200 4405.40 4429.94 66.37
3292 75.7400 4422.90 4424.41 66.50
3293 75.7600 4402.70 4417.73 66.35
3294 75.7800 4442.00 4408.32 66.65
3295 75.8000 4484.50 4397.02 66.97
3296 75.8200 4398.00 4384.04 66.32
3297 75.8400 4437.90 4370.44 66.62
3298 75.8600 4268.90 4357.41 65.34
3299 75.8800 4370.50 4345.98 66.11
3300 75.9000 4345.50 4337.04 65.92
3301 75.9200 4364.00 4331.21 66.06
3302 75.9400 4269.00 4328.94 65.34
3303 75.9600 4254.00 4330.65 65.22
3304 75.9800 4429.50 4336.68 66.55
3305 76.0000 4353.80 4347.20 65.98
3306 76.0200 4349.30 4363.16 65.95
3307 76.0400 4357.30 4384.87 66.01
3308 76.0600 4503.70 4412.92 67.11
3309 76.0800 4491.80 4447.86 67.02
3310 76.1000 4475.90 4490.20 66.90
3311 76.1200 4536.50 4540.05 67.35
3312 76.1400 4641.30 4597.94 68.13
3313 76.1600 4784.40 4663.23 69.17
3314 76.1800 4727.50 4735.02 68.76
3315 76.2000 4821.00 4812.83 69.43
3316 76.2200 4795.20 4896.39 69.25
3317 76.2400 4980.30 4987.84 70.57
3318 76.2600 4943.50 5089.65 70.31
3319 76.2800 5008.90 5204.27 70.77
3320 76.3000 5099.90 5332.80 71.41
3321 76.3200 5140.50 5472.26 71.70
3322 76.3400 5305.70 5615.04 72.84
3323 76.3600 5479.80 5748.98 74.03
3324 76.3800 5554.60 5860.13 74.53
3325 76.4000 5734.30 5937.72 75.73
3326 76.4200 5818.60 5977.17 76.28
3327 76.4400 5911.60 5977.81 76.89
3328 76.4600 5875.20 5942.16 76.65
3329 76.4800 5877.70 5875.13 76.67
3330 76.5000 5930.10 5789.86 77.01
3331 76.5200 5930.60 5698.56 77.01
3332 76.5400 5816.90 5612.25 76.27
3333 76.5600 5653.10 5536.29 75.19
3334 76.5800 5627.70 5470.25 75.02
3335 76.6000 5568.70 5408.55 74.62
3336 76.6200 5484.30 5347.94 74.06
3337 76.6400 5403.90 5284.17 73.51
3338 76.6600 5344.20 5215.01 73.10
3339 76.6800 5416.10 5139.11 73.59
3340 76.7000 5363.00 5055.73 73.23
3341 76.7200 5306.90 4967.88 72.85
3342 76.7400 5172.00 4878.71 71.92
3343 76.7600 4997.40 4792.08 70.69
3344 76.7800 4977.00 4709.89 70.55
3345 76.8000 4961.90 4636.20 70.44
3346 76.8200 4906.40 4570.68 70.05
3347 76.8400 4745.00 4515.12 68.88
3348 76.8600 4741.00 4469.35 68.85
3349 76.8800 4667.10 4433.46 68.32
3350 76.9000 4583.70 4407.11 67.70
3351 76.9200 4520.50 4389.83 67.23
3352 76.9400 4539.80 4381.01 67.38
3353 76.9600 4760.90 4379.96 69.00
3354 76.9800 4680.70 4385.96 68.42
3355 77.0000 4668.80 4397.68 68.33
3356 77.0200 4660.80 4415.61 68.27
3357 77.0400 4669.90 4438.50 68.34
3358 77.0600 4540.80 4465.48 67.39
3359 77.0800 4548.90 4494.98 67.45
3360 77.1000 4593.70 4524.46 67.78
3361 77.1200 4541.70 4549.36 67.39
3362 77.1400 4719.10 4567.43 68.70
3363 77.1600 4638.00 4575.09 68.10
3364 77.1800 4756.50 4571.21 68.97
3365 77.2000 4672.90 4558.61 68.36
3366 77.2200 4642.30 4540.81 68.13
3367 77.2400 4645.20 4522.39 68.16
3368 77.2600 4675.80 4506.68 68.38
3369 77.2800 4778.30 4495.40 69.13
3370 77.3000 4676.20 4489.30 68.38
3371 77.3200 4724.80 4487.00 68.74
3372 77.3400 4547.30 4485.44 67.43
3373 77.3600 4569.80 4481.91 67.60
3374 77.3800 4550.40 4472.51 67.46
3375 77.4000 4547.90 4455.03 67.44
3376 77.4200 4570.90 4429.69 67.61
3377 77.4400 4480.00 4399.67 66.93
3378 77.4600 4433.80 4366.17 66.59
3379 77.4800 4313.80 4332.84 65.68
3380 77.5000 4425.60 4301.59 66.53
3381 77.5200 4345.00 4273.72 65.92
3382 77.5400 4336.80 4249.56 65.85
3383 77.5600 4286.90 4228.81 65.47
3384 77.5800 4289.80 4210.79 65.50
3385 77.6000 4382.30 4194.52 66.20
3386 77.6200 4273.00 4179.08 65.37
3387 77.6400 4216.50 4163.82 64.93
3388 77.6600 4186.40 4148.86 64.70
3389 77.6800 4247.80 4134.35 65.18
3390 77.7000 4181.60 4120.56 64.67
3391 77.7200 4129.40 4107.78 64.26
3392 77.7400 4173.20 4096.09 64.60
3393 77.7600 4156.40 4085.54 64.47
3394 77.7800 3971.20 4076.11 63.02
3395 77.8000 4102.60 4067.85 64.05
3396 77.8200 4041.40 4060.37 63.57
3397 77.8400 3994.00 4053.77 63.20
3398 77.8600 4125.90 4047.83 64.23
3399 77.8800 4147.80 4042.54 64.40
3400 77.9000 3991.30 4037.53 63.18
3401 77.9200 4029.10 4033.15 63.48
3402 77.9400 4056.10 4029.10 63.69
3403 77.9600 3993.60 4025.32 63.19
3404 77.9800 4046.70 4021.76 63.61
3405 78.0000 4063.30 4018.38 63.74
3406 78.0200 4054.10 4014.39 63.67
3407 78.0400 4048.80 4011.32 63.63
3408 78.0600 4116.10 4008.23 64.16
3409 78.0800 4159.70 4005.37 64.50
3410 78.1000 4019.40 4002.60 63.40
3411 78.1200 4039.30 3999.80 63.56
3412 78.1400 3974.10 3997.18 63.04
3413 78.1600 4042.00 3994.62 63.58
3414 78.1800 3911.50 3992.12 62.54
3415 78.2000 3988.60 3989.67 63.16
3416 78.2200 3910.80 3987.27 62.54
3417 78.2400 3947.30 3984.85 62.83
3418 78.2600 3993.50 3987.54 63.19
3419 78.2800 3943.60 3985.37 62.80
3420 78.3000 3987.90 3983.30 63.15
3421 78.3200 3976.90 3981.27 63.06
3422 78.3400 4002.20 3979.29 63.26
3423 78.3600 3970.80 3977.22 63.01
3424 78.3800 4017.20 3975.33 63.38
3425 78.4000 3982.10 3973.50 63.10
3426 78.4200 3957.20 3970.65 62.91
3427 78.4400 3987.50 3969.26 63.15
3428 78.4600 4017.00 3967.55 63.38
3429 78.4800 4030.20 3965.95 63.48
3430 78.5000 4051.90 3964.42 63.65
3431 78.5200 3995.40 3962.94 63.21
3432 78.5400 4055.20 3961.54 63.68
3433 78.5600 4030.40 3960.05 63.49
3434 78.5800 3977.20 3958.74 63.06
3435 78.6000 4000.90 3957.61 63.25
3436 78.6200 4011.80 3954.87 63.34
3437 78.6400 4000.90 3953.55 63.25
3438 78.6600 3969.10 3952.69 63.00
3439 78.6800 4060.00 3958.53 63.72
3440 78.7000 4116.00 3958.38 64.16
3441 78.7200 3954.80 3958.39 62.89
3442 78.7400 4035.70 3958.79 63.53
3443 78.7600 4078.80 3959.52 63.87
3444 78.7800 3918.40 3960.65 62.60
3445 78.8000 4049.80 3962.15 63.64
3446 78.8200 4030.40 3966.27 63.49
3447 78.8400 3955.00 3968.99 62.89
3448 78.8600 4050.20 3971.62 63.64
3449 78.8800 4088.20 3975.75 63.94
3450 78.9000 4154.80 3980.68 64.46
3451 78.9200 4123.40 3986.70 64.21
3452 78.9400 4090.30 3993.88 63.96
3453 78.9600 4161.40 4002.76 64.51
3454 78.9800 4073.40 4013.48 63.82
3455 79.0000 4057.80 4026.27 63.70
3456 79.0200 4077.70 4041.24 63.86
3457 79.0400 4070.80 4058.39 63.80
3458 79.0600 4126.70 4077.20 64.24
3459 79.0800 4249.80 4098.24 65.19
3460 79.1000 4239.40 4121.39 65.11
3461 79.1200 4244.80 4144.80 65.15
3462 79.1400 4240.00 4170.45 65.12
3463 79.1600 4216.30 4191.99 64.93
3464 79.1800 4286.00 4209.55 65.47
3465 79.2000 4284.00 4221.16 65.45
3466 79.2200 4240.60 4225.30 65.12
3467 79.2400 4318.10 4222.16 65.71
3468 79.2600 4289.80 4213.48 65.50
3469 79.2800 4318.80 4201.63 65.72
3470 79.3000 4212.70 4189.48 64.91
3471 79.3200 4259.30 4178.58 65.26
3472 79.3400 4209.00 4170.44 64.88
3473 79.3600 4274.90 4165.45 65.38
3474 79.3800 4264.30 4163.52 65.30
3475 79.4000 4292.90 4163.99 65.52
3476 79.4200 4274.70 4165.70 65.38
3477 79.4400 4270.90 4167.64 65.35
3478 79.4600 4400.80 4169.06 66.34
3479 79.4800 4340.40 4170.05 65.88
3480 79.5000 4333.90 4171.56 65.83
3481 79.5200 4391.30 4175.00 66.27
3482 79.5400 4390.60 4181.91 66.26
3483 79.5600 4483.80 4193.59 66.96
3484 79.5800 4441.40 4210.78 66.64
3485 79.6000 4466.10 4234.76 66.83
3486 79.6200 4546.40 4265.91 67.43
3487 79.6400 4539.60 4302.22 67.38
3488 79.6600 4647.10 4343.36 68.17
3489 79.6800 4612.40 4388.12 67.91
3490 79.7000 4721.90 4435.36 68.72
3491 79.7200 4728.20 4483.96 68.76
3492 79.7400 4768.10 4532.34 69.05
3493 79.7600 4830.70 4577.96 69.50
3494 79.7800 4814.30 4617.27 69.39
3495 79.8000 4811.00 4646.97 69.36
3496 79.8200 5066.40 4665.55 71.18
3497 79.8400 5029.10 4675.25 70.92
3498 79.8600 5049.30 4680.25 71.06
3499 79.8800 5102.00 4685.91 71.43
3500 79.9000 5094.00 4696.71 71.37
3501 79.9200 5142.70 4716.21 71.71
3502 79.9400 5132.60 4747.18 71.64
3503 79.9600 5140.30 4791.64 71.70
3504 79.9800 5217.70 4850.62 72.23
3505 80.0000 5234.00 4923.31 72.35
3506 80.0200 5318.30 5006.43 72.93
3507 80.0400 5328.40 5094.69 73.00
3508 80.0600 5357.70 5181.31 73.20
3509 80.0800 5410.20 5258.27 73.55
3510 80.1000 5490.40 5317.79 74.10
3511 80.1200 5512.30 5353.47 74.24
3512 80.1400 5511.70 5362.57 74.24
3513 80.1600 5538.30 5346.54 74.42
3514 80.1800 5424.60 5310.52 73.65
3515 80.2000 5609.90 5262.12 74.90
3516 80.2200 5538.90 5209.59 74.42
3517 80.2400 5363.80 5159.86 73.24
3518 80.2600 5392.20 5116.54 73.43
3519 80.2800 5446.70 5080.73 73.80
3520 80.3000 5526.00 5051.17 74.34
3521 80.3200 5367.90 5024.87 73.27
3522 80.3400 5344.90 4998.51 73.11
3523 80.3600 5241.70 4968.62 72.40
3524 80.3800 5267.90 4932.69 72.58
3525 80.4000 5253.70 4889.69 72.48
3526 80.4200 5078.70 4840.05 71.26
3527 80.4400 5123.20 4785.31 71.58
3528 80.4600 5183.20 4727.47 71.99
3529 80.4800 5086.70 4667.89 71.32
3530 80.5000 5044.00 4607.17 71.02
3531 80.5200 4898.30 4545.54 69.99
3532 80.5400 4855.90 4487.84 69.68
3533 80.5600 4846.60 4429.43 69.62
3534 80.5800 4801.50 4376.24 69.29
3535 80.6000 4676.50 4330.55 68.38
3536 80.6200 4794.70 4293.77 69.24
3537 80.6400 4633.50 4266.58 68.07
3538 80.6600 4609.30 4249.01 67.89
3539 80.6800 4582.00 4240.81 67.69
3540 80.7000 4440.10 4241.37 66.63
3541 80.7200 4493.90 4249.80 67.04
3542 80.7400 4531.10 4264.96 67.31
3543 80.7600 4506.80 4285.68 67.13
3544 80.7800 4476.60 4310.95 66.91
3545 80.8000 4457.60 4342.14 66.77
3546 80.8200 4351.70 4372.40 65.97
3547 80.8400 4408.20 4401.26 66.39
3548 80.8600 4447.50 4424.93 66.69
3549 80.8800 4388.50 4440.57 66.25
3550 80.9000 4414.70 4444.46 66.44
3551 80.9200 4375.10 4437.14 66.14
3552 80.9400 4319.30 4420.01 65.72
3553 80.9600 4363.70 4395.81 66.06
3554 80.9800 4356.70 4367.81 66.01
3555 81.0000 4325.50 4339.35 65.77
3556 81.0200 4327.20 4313.11 65.78
3557 81.0400 4364.90 4290.71 66.07
3558 81.0600 4343.40 4272.43 65.90
3559 81.0800 4324.50 4257.37 65.76
3560 81.1000 4204.50 4243.66 64.84
3561 81.1200 4449.80 4229.16 66.71
3562 81.1400 4221.00 4212.27 64.97
3563 81.1600 4189.70 4192.23 64.73
3564 81.1800 4274.90 4169.84 65.38
3565 81.2000 4236.20 4144.64 65.09
3566 81.2200 4213.40 4118.75 64.91
3567 81.2400 4264.70 4092.74 65.30
3568 81.2600 4266.80 4068.68 65.32
3569 81.2800 4228.30 4047.12 65.03
3570 81.3000 4205.10 4028.52 64.85
3571 81.3200 4218.10 4013.03 64.95
3572 81.3400 4294.40 4000.56 65.53
3573 81.3600 4244.80 3991.09 65.15
3574 81.3800 4208.80 3984.37 64.88
3575 81.4000 4291.80 3980.04 65.51
3576 81.4200 4263.60 3977.56 65.30
3577 81.4400 4173.90 3976.25 64.61
3578 81.4600 4274.30 3975.73 65.38
3579 81.4800 4242.90 3974.35 65.14
3580 81.5000 4287.60 3972.37 65.48
3581 81.5200 4193.00 3969.58 64.75
3582 81.5400 4238.90 3966.24 65.11
3583 81.5600 4312.50 3962.88 65.67
3584 81.5800 4382.00 3960.06 66.20
3585 81.6000 4290.90 3958.32 65.50
3586 81.6200 4332.30 3958.19 65.82
3587 81.6400 4313.10 3959.99 65.67
3588 81.6600 4280.60 3963.89 65.43
3589 81.6800 4315.00 3969.52 65.69
3590 81.7000 4253.70 3977.43 65.22
3591 81.7200 4287.60 3986.95 65.48
3592 81.7400 4300.80 3997.80 65.58
3593 81.7600 4302.60 4009.30 65.59
3594 81.7800 4231.30 4021.16 65.05
3595 81.8000 4326.60 4033.17 65.78
3596 81.8200 4306.50 4044.20 65.62
3597 81.8400 4297.90 4054.08 65.56
3598 81.8600 4287.10 4061.94 65.48
3599 81.8800 4272.30 4069.18 65.36
3600 81.9000 4259.00 4077.46 65.26
3601 81.9200 4172.50 4088.50 64.59
3602 81.9400 4327.70 4104.21 65.79
3603 81.9600 4268.20 4125.49 65.33
3604 81.9800 4300.70 4152.86 65.58
3605 82.0000 4294.50 4185.91 65.53
3606 82.0200 4341.90 4224.42 65.89
3607 82.0400 4343.00 4266.48 65.90
3608 82.0600 4291.30 4310.46 65.51
3609 82.0800 4451.00 4353.80 66.72
3610 82.1000 4462.70 4399.99 66.80
3611 82.1200 4430.50 4439.25 66.56
3612 82.1400 4477.10 4476.70 66.91
3613 82.1600 4401.90 4514.09 66.35
3614 82.1800 4540.40 4551.61 67.38
3615 82.2000 4603.90 4588.20 67.85
3616 82.2200 4560.50 4622.59 67.53
3617 82.2400 4528.10 4654.02 67.29
3618 82.2600 4468.80 4682.59 66.85
3619 82.2800 4618.30 4709.17 67.96
3620 82.3000 4622.40 4734.91 67.99
3621 82.3200 4655.60 4758.26 68.23
3622 82.3400 4714.60 4777.61 68.66
3623 82.3600 4718.50 4791.26 68.69
3624 82.3800 4592.60 4797.96 67.77
3625 82.4000 4614.90 4797.94 67.93
3626 82.4200 4661.90 4789.62 68.28
3627 82.4400 4608.00 4772.27 67.88
3628 82.4600 4632.40 4745.82 68.06
3629 82.4800 4696.30 4711.37 68.53
3630 82.5000 4631.00 4671.88 68.05
3631 82.5200 4607.10 4631.21 67.88
3632 82.5400 4656.40 4592.15 68.24
3633 82.5600 4548.10 4556.32 67.44
3634 82.5800 4670.50 4523.63 68.34
3635 82.6000 4628.10 4493.28 68.03
3636 82.6200 4575.20 4464.39 67.64
3637 82.6400 4542.50 4436.24 67.40
3638 82.6600 4481.80 4408.43 66.95
3639 82.6800 4447.30 4383.37 66.69
3640 82.7000 4472.90 4354.89 66.88
3641 82.7200 4464.20 4326.87 66.81
3642 82.7400 4457.40 4299.66 66.76
3643 82.7600 4436.30 4275.35 66.61
3644 82.7800 4331.40 4254.53 65.81
3645 82.8000 4299.20 4237.65 65.57
3646 82.8200 4266.10 4224.69 65.32
3647 82.8400 4406.80 4216.01 66.38
3648 82.8600 4335.10 4211.39 65.84
3649 82.8800 4216.60 4212.16 64.94
3650 82.9000 4311.70 4218.27 65.66
3651 82.9200 4258.30 4229.63 65.26
3652 82.9400 4200.50 4245.86 64.81
3653 82.9600 4365.10 4266.07 66.07
3654 82.9800 4201.90 4287.97 64.82
3655 83.0000 4277.70 4308.42 65.40
3656 83.0200 4295.60 4324.41 65.54
3657 83.0400 4354.20 4332.67 65.99
3658 83.0600 4374.50 4331.77 66.14
3659 83.0800 4335.30 4322.38 65.84
3660 83.1000 4411.50 4307.48 66.42
3661 83.1200 4376.70 4288.82 66.16
3662 83.1400 4370.80 4270.11 66.11
3663 83.1600 4411.80 4253.30 66.42
3664 83.1800 4376.80 4239.76 66.16
3665 83.2000 4336.60 4230.39 65.85
3666 83.2200 4297.10 4224.75 65.55
3667 83.2400 4263.00 4221.95 65.29
3668 83.2600 4289.80 4220.37 65.50
3669 83.2800 4282.50 4218.18 65.44
3670 83.3000 4211.10 4213.91 64.89
3671 83.3200 4258.90 4207.02 65.26
3672 83.3400 4223.20 4197.98 64.99
3673 83.3600 4181.60 4187.43 64.67
3674 83.3800 4268.90 4177.40 65.34
3675 83.4000 4223.40 4168.57 64.99
3676 83.4200 4202.40 4161.93 64.83
3677 83.4400 4280.50 4158.33 65.43
3678 83.4600 4160.20 4162.52 64.50
3679 83.4800 4249.00 4169.33 65.18
3680 83.5000 4186.60 4179.67 64.70
3681 83.5200 4219.70 4196.27 64.96
3682 83.5400 4251.80 4220.15 65.21
3683 83.5600 4332.30 4252.49 65.82
3684 83.5800 4380.70 4294.49 66.19
3685 83.6000 4321.80 4347.29 65.74
3686 83.6200 4349.80 4411.64 65.95
3687 83.6400 4440.40 4489.63 66.64
3688 83.6600 4466.80 4578.08 66.83
3689 83.6800 4462.70 4676.71 66.80
3690 83.7000 4464.90 4782.45 66.82
3691 83.7200 4672.70 4890.07 68.36
3692 83.7400 4682.10 4992.21 68.43
3693 83.7600 4788.80 5078.67 69.20
3694 83.7800 4787.10 5138.90 69.19
3695 83.8000 4817.00 5165.25 69.40
3696 83.8200 4974.10 5156.62 70.53
3697 83.8400 4857.70 5119.21 69.70
3698 83.8600 4863.80 5063.81 69.74
3699 83.8800 4857.30 5001.75 69.69
3700 83.9000 4664.50 4942.81 68.30
3701 83.9200 4683.40 4893.29 68.44
3702 83.9400 4615.90 4856.56 67.94
3703 83.9600 4651.90 4833.56 68.20
3704 83.9800 4723.60 4822.57 68.73
3705 84.0000 4646.30 4819.76 68.16
3706 84.0200 4718.10 4819.39 68.69
3707 84.0400 4705.30 4816.12 68.60
3708 84.0600 4593.90 4805.59 67.78
3709 84.0800 4776.10 4786.89 69.11
3710 84.1000 4674.00 4762.74 68.37
3711 84.1200 4657.70 4737.13 68.25
3712 84.1400 4691.20 4713.83 68.49
3713 84.1600 4667.10 4695.69 68.32
3714 84.1800 4498.80 4683.08 67.07
3715 84.2000 4494.00 4674.72 67.04
3716 84.2200 4569.20 4667.97 67.60
3717 84.2400 4591.80 4659.84 67.76
3718 84.2600 4521.50 4648.31 67.24
3719 84.2800 4556.50 4632.93 67.50
3720 84.3000 4647.00 4615.75 68.17
3721 84.3200 4532.60 4598.44 67.32
3722 84.3400 4514.50 4583.01 67.19
3723 84.3600 4621.50 4572.22 67.98
3724 84.3800 4472.00 4565.77 66.87
3725 84.4000 4633.00 4564.86 68.07
3726 84.4200 4638.30 4569.88 68.11
3727 84.4400 4711.10 4577.72 68.64
3728 84.4600 4761.20 4586.53 69.00
3729 84.4800 4842.70 4592.88 69.59
3730 84.5000 4824.40 4593.32 69.46
3731 84.5200 4833.40 4584.65 69.52
3732 84.5400 4806.00 4566.63 69.33
3733 84.5600 4775.40 4540.05 69.10
3734 84.5800 4860.10 4507.31 69.71
3735 84.6000 4853.50 4471.76 69.67
3736 84.6200 4807.20 4435.98 69.33
3737 84.6400 4779.80 4402.64 69.14
3738 84.6600 4741.60 4373.11 68.86
3739 84.6800 4682.50 4348.17 68.43
3740 84.7000 4740.40 4327.91 68.85
3741 84.7200 4686.80 4311.70 68.46
3742 84.7400 4593.00 4298.73 67.77
3743 84.7600 4633.50 4290.96 68.07
3744 84.7800 4685.40 4280.94 68.45
3745 84.8000 4643.50 4271.25 68.14
3746 84.8200 4560.00 4260.88 67.53
3747 84.8400 4549.80 4250.57 67.45
3748 84.8600 4616.90 4241.17 67.95
3749 84.8800 4566.40 4233.43 67.58
loop_
_pd_proc_info_excluded_regions
'from 2 to 10.000'
loop_
_restr_distance_atom_site_label_1
_restr_distance_atom_site_label_2
_restr_distance_site_symmetry_2
_restr_distance_target
_restr_distance_target_weight_param
C1 C2 . 1.4 0.005
C2 C1 4_575 1.4 0.005
C1 C4 . 1.4 0.005
C4 C6 . 1.4 0.005
C6 C4 4_575 1.4 0.005
C4 C5 . 1.51 0.005
C5 N1 . 1.45 0.001
S1 O1 . 1.48 0.005
S1 O2 2_465 1.48 0.005
S1 O3 . 1.44 0.005
S1 O3 4_565 1.44 0.005
loop_
_restr_angle_atom_site_label_1
_restr_angle_site_symmetry_1
_restr_angle_atom_site_label_2
_restr_angle_atom_site_label_3
_restr_angle_site_symmetry_3
_restr_angle_target
_restr_angle_target_weight_param
O1 . S1 O2 2_465 109.47 0.1
O1 . S1 O3 . 109.47 0.1
O2 2_465 S1 O3 . 109.47 0.1
O3 . S1 O3 4_565 109.47 0.1
C5 . C4 C6 . 120 0.1
C5 . C4 C1 . 120 0.1
C4 . C1 C2 . 120 0.1
C1 . C2 C1 4_575 120 0.1
C1 . C4 C6 . 120 0.1
C4 . C6 C4 4_575 120 0.1
N1 . C5 C4 . 109.47 0.1
loop_
_restr_torsion_atom_site_label_1
_restr_torsion_atom_site_label_2
_restr_torsion_atom_site_label_3
_restr_torsion_atom_site_label_4
_restr_torsion_site_symmetry_4
_restr_torsion_angle_target
_restr_torsion_weight_param
C5 C4 C1 C2 . 180 0.01
C5 C4 C6 C4 4_575 180 0.01
C6 C4 C1 C2 . 0 0.01
C4 C1 C2 C1 4_575 0 0.01
C1 C4 C6 C4 4_575 0 0.01
