#------------------------------------------------------------------------------
#$Date: 2019-11-17 13:37:03 +0200 (Sun, 17 Nov 2019) $
#$Revision: 230207 $
#$URL: file:///home/coder/svn-repositories/cod/cif/7/05/78/7057831.cif $
#------------------------------------------------------------------------------
#
# This file is available in the Crystallography Open Database (COD),
# http://www.crystallography.net/
#
# All data on this site have been placed in the public domain by the
# contributors.
#
data_7057831
loop_
_publ_author_name
'Luberda-Durna\'s, K.'
'Konieczny, P.'
'Pe\/lka, R.'
'Oszajca, M.'
'Gonzalez Guillen, A.'
'Korecki, J.'
'Ciesielska, Z.'
'\/Lasocha, W.'
_publ_section_title
;
 Two-step magnetic transition in hybrid organic--inorganic materials of
 the (m-xylylenediamine)MeSO4 (Me -- Mn, Fe, Co, Ni) type
;
_journal_issue                   22
_journal_name_full               'New Journal of Chemistry'
_journal_page_first              18225
_journal_paper_doi               10.1039/C8NJ04036B
_journal_volume                  42
_journal_year                    2018
_chemical_formula_moiety         FeSO4(C8H12N2)
_chemical_formula_sum            'C8 H12 Fe N2 O4 S'
_chemical_formula_weight         288.1
_chemical_name_systematic        FeSO4(MXDA)
_space_group_IT_number           26
_space_group_name_Hall           'P -2a 2a'
_space_group_name_H-M_alt        'P 21 m a'
_symmetry_cell_setting           orthorhombic
_symmetry_Int_Tables_number      26
_symmetry_space_group_name_Hall  'P -2a 2a'
_symmetry_space_group_name_H-M   'P 21 m a'
_audit_update_record
;
2018-07-19 deposited with the CCDC.
2018-10-10 downloaded from the CCDC.
;
_cell_angle_alpha                90
_cell_angle_beta                 90
_cell_angle_gamma                90
_cell_formula_units_Z            2
_cell_length_a                   9.760(2)
_cell_length_b                   10.8769(10)
_cell_length_c                   4.9043(9)
_cell_measurement_temperature    293
_cell_volume                     520.63(15)
_diffrn_ambient_temperature      293
_diffrn_measurement_device_type  diffractometer
_diffrn_radiation_probe          x-ray
_diffrn_radiation_type           'Cu K\a'
_diffrn_radiation_wavelength     1.5418
_exptl_absorpt_coefficient_mu    13.544
_exptl_crystal_density_diffrn    1.8377
_exptl_crystal_F_000             296
_pd_char_colour                  brown
_pd_instr_location               ' ?'
_pd_meas_2theta_range_inc        0.02
_pd_meas_2theta_range_max        69.980
_pd_meas_2theta_range_min        5.020
_pd_meas_number_of_points        3249
_pd_proc_2theta_range_inc        0.02
_pd_proc_2theta_range_max        69.98
_pd_proc_2theta_range_min        10.02
_pd_proc_ls_pref_orient_corr     'March & Dollase'
_pd_proc_ls_profile_function     Pseudo-Voigt
_pd_proc_ls_prof_R_factor        0.1025
_pd_proc_ls_prof_wR_expected     0.1172
_pd_proc_ls_prof_wR_factor       0.1466
_refine_ls_goodness_of_fit_all   1.25
_refine_ls_hydrogen_treatment    constr
_refine_ls_number_constraints    1
_refine_ls_number_parameters     35
_refine_ls_number_restraints     24
_refine_ls_R_factor_all          0.1119
_refine_ls_R_factor_gt           0.1045
_refine_ls_shift/su_max          0.0344
_refine_ls_shift/su_mean         0.0057
_refine_ls_weighting_scheme      sigma
_refine_ls_wR_factor_all         0.1112
_refine_ls_wR_factor_gt          0.1098
_cod_data_source_file            c8nj04036b2.cif
_cod_data_source_block           I_CCDC3
_cod_depositor_comments
;
The following automatic conversions were performed:

'_diffrn_radiation_probe' value 'X-ray' changed to 'x-ray' according
to
/home/data/users/saulius/crontab/automatic-downloads/rss-feeds/RSC/lib/dictionaries/cif_core.dic
dictionary named 'cif_core.dic' version 2.4.2 from 2011-04-26.

Automatic conversion script
Id: cif_fix_values 4973 2017-02-22 13:04:09Z antanas 

 Adding full bibliography for 7057828--7057831.cif.
;
_cod_original_cell_volume        520.65(15)
_cod_original_sg_symbol_Hall     'P 2xa;-2y;-2za'
_cod_original_formula_sum        'C8 H12 Fe1 N2 O4 S1'
_cod_database_code               7057831
loop_
_space_group_symop_id
_space_group_symop_operation_xyz
1 x,y,z
2 x+1/2,-y,-z
3 x+1/2,y,-z
4 x,-y,z
loop_
_atom_site_label
_atom_site_type_symbol
_atom_site_fract_x
_atom_site_fract_y
_atom_site_fract_z
_atom_site_adp_type
_atom_site_U_iso_or_equiv
_atom_site_site_symmetry_multiplicity
_atom_site_occupancy
_atom_site_calc_flag
Fe1 Fe 0.114(2) 0.5 0.143(5) Uiso 0.017(10) 2 1 d
S1 S -0.192(4) 0.5 0.426(8) Uiso 0.011(14) 2 1 d
O1 O -0.040(4) 0.5 0.446(11) Uiso 0.011(14) 2 1 d
O2 O 0.267(6) 0.5 -0.135(11) Uiso 0.011(14) 2 1 d
O3 O -0.245(4) 0.6078(12) 0.558(10) Uiso 0.011(14) 4 1 d
C2 C -0.115(10) 1 -0.37(2) Uiso 0.07(3) 2 1 d
C4 C 0.052(6) 0.8886(7) -0.102(14) Uiso 0.07(3) 4 1 d
N1 N 0.015(7) 0.669(2) -0.046(19) Uiso 0.07(3) 4 1 d
C1 C -0.059(7) 0.8885(7) -0.283(16) Uiso 0.07(3) 4 1 d
C5 C 0.113(7) 0.7672(15) -0.003(18) Uiso 0.07(3) 4 1 d
C6 C 0.108(7) 1 -0.012(18) Uiso 0.07(3) 2 1 d
H1c2 H -0.19128 1 -0.496183 Uiso 0.0883 2 1 d
H1c1 H -0.09747 0.812088 -0.344328 Uiso 0.0883 4 1 d
H1c5 H 0.195342 0.749827 -0.103657 Uiso 0.0883 4 1 d
H2c5 H 0.13423 0.773123 0.187389 Uiso 0.0883 4 1 d
H1c6 H 0.184054 1 0.111971 Uiso 0.0883 2 1 d
H1n1 H 0.003823 0.657228 -0.220437 Uiso 0.0883 4 1 d
H2n1 H -0.060661 0.685965 0.040078 Uiso 0.0883 4 1 d
loop_
_atom_type_symbol
_atom_type_scat_dispersion_real
_atom_type_scat_dispersion_imag
_atom_type_scat_source
C 0.0181 0.0091 'International Tables Vol C tables 4.2.6.8 and 6.1.1.1'
H 0.0000 0.0000 'International Tables Vol C tables 4.2.6.8 and 6.1.1.1'
Fe -1.1336 3.1974 'International Tables Vol C tables 4.2.6.8 and 6.1.1.1'
N 0.0311 0.0180 'International Tables Vol C tables 4.2.6.8 and 6.1.1.1'
O 0.0492 0.0322 'International Tables Vol C tables 4.2.6.8 and 6.1.1.1'
S 0.3331 0.5567 'International Tables Vol C tables 4.2.6.8 and 6.1.1.1'
loop_
_geom_angle_atom_site_label_1
_geom_angle_atom_site_label_2
_geom_angle_atom_site_label_3
_geom_angle_site_symmetry_1
_geom_angle_site_symmetry_3
_geom_angle
O1 Fe1 O2 . . 178(2)
O1 S1 O2 . 2_465 109(4)
O1 S1 O3 . . 109(3)
O1 S1 O3 . 4_565 109(3)
O2 S1 O3 2_465 . 109(3)
O2 S1 O3 2_465 4_565 109(3)
O3 S1 O3 . 4_565 109(3)
Fe1 O1 S1 . . 132(4)
Fe1 O2 S1 . 2_565 148(4)
C1 C2 C1 . 4_575 120(8)
C1 C2 H1c2 . . 120
C1 C2 H1c2 4_575 . 120
C1 C4 C5 . . 120(3)
C1 C4 C6 . . 120(3)
C5 C4 C6 . . 120(6)
C5 N1 H1n1 . . 109.47
C5 N1 H2n1 . . 109.48
H1n1 N1 H2n1 . . 113.86
C2 C1 C4 . . 120(4)
C2 C1 H1c1 . . 120
C4 C1 H1c1 . . 120
C4 C5 N1 . . 109(5)
C4 C5 H1c5 . . 109.48
C4 C5 H2c5 . . 109.47
N1 C5 H1c5 . . 109.48
N1 C5 H2c5 . . 109.47
H1c5 C5 H2c5 . . 109.47
C4 C6 C4 . 4_575 120(6)
C4 C6 H1c6 . . 119.97
C4 C6 H1c6 4_575 . 119.97
loop_
_geom_bond_atom_site_label_1
_geom_bond_atom_site_label_2
_geom_bond_site_symmetry_2
_geom_bond_distance
Fe1 O1 . 2.12(5)
Fe1 O2 . 2.02(6)
S1 O1 . 1.48(5)
S1 O2 2_465 1.48(7)
S1 O3 . 1.44(4)
S1 O3 4_565 1.44(4)
C2 C1 . 1.40(6)
C2 C1 4_575 1.40(6)
C2 H1c2 . 0.9601
C4 C1 . 1.40(10)
C4 C5 . 1.53(5)
C4 C6 . 1.40(5)
N1 C5 . 1.45(7)
N1 H1n1 . 0.8699
N1 H2n1 . 0.8701
C1 H1c1 . 0.9601
C5 H1c5 . 0.9601
C5 H2c5 . 0.9599
C6 H1c6 . 0.96
loop_
_geom_hbond_atom_site_label_D
_geom_hbond_atom_site_label_H
_geom_hbond_atom_site_label_A
_geom_hbond_site_symmetry_A
_geom_hbond_distance_DH
_geom_hbond_distance_HA
_geom_hbond_distance_DA
_geom_hbond_angle_DHA
C1 H1c1 N1 . 0.96 2.40 2.75(6) 101.08
C5 H2c5 O3 3_556 0.96 2.49 3.11(8) 122.86
C6 H1c6 C2 2_575 0.96 2.34 3.30(12) 173.93
N1 H1n1 O1 1_554 0.87 2.41 3.14(9) 142.63
loop_
_pd_proc_point_id
_pd_proc_2theta_corrected
_pd_proc_intensity_net
_pd_calc_intensity_net
_pd_proc_ls_weight
1 10.0000 149.40 144.19 12.22
2 10.0200 138.80 143.99 11.78
3 10.0400 147.00 143.79 12.12
4 10.0600 163.10 143.60 12.77
5 10.0800 147.70 143.42 12.15
6 10.1000 145.60 143.24 12.07
7 10.1200 131.60 143.07 11.47
8 10.1400 130.50 142.91 11.42
9 10.1600 169.00 142.75 13.00
10 10.1800 131.10 142.59 11.45
11 10.2000 159.20 142.44 12.62
12 10.2200 149.40 142.30 12.22
13 10.2400 145.90 142.16 12.08
14 10.2600 135.10 142.02 11.62
15 10.2800 139.70 141.89 11.82
16 10.3000 125.20 141.77 11.19
17 10.3200 130.80 141.65 11.44
18 10.3400 129.60 141.53 11.38
19 10.3600 128.40 141.42 11.33
20 10.3800 133.90 141.31 11.57
21 10.4000 149.20 141.21 12.21
22 10.4200 147.40 141.11 12.14
23 10.4400 159.00 141.01 12.61
24 10.4600 144.00 140.92 12.00
25 10.4800 148.40 140.83 12.18
26 10.5000 134.20 140.75 11.58
27 10.5200 139.30 140.67 11.80
28 10.5400 140.60 140.59 11.86
29 10.5600 131.40 140.52 11.46
30 10.5800 133.00 140.45 11.53
31 10.6000 134.80 140.38 11.61
32 10.6200 142.70 140.32 11.95
33 10.6400 140.10 140.26 11.84
34 10.6600 123.20 140.20 11.10
35 10.6800 161.70 140.14 12.72
36 10.7000 112.10 140.09 10.59
37 10.7200 142.40 140.04 11.93
38 10.7400 138.90 139.99 11.79
39 10.7600 134.70 139.95 11.61
40 10.7800 142.00 139.91 11.92
41 10.8000 150.00 139.87 12.25
42 10.8200 132.40 139.83 11.51
43 10.8400 131.90 139.80 11.48
44 10.8600 134.10 139.76 11.58
45 10.8800 150.40 139.73 12.26
46 10.9000 148.00 139.71 12.17
47 10.9200 141.20 139.68 11.88
48 10.9400 134.00 139.65 11.58
49 10.9600 136.30 139.63 11.67
50 10.9800 160.00 139.61 12.65
51 11.0000 155.00 139.59 12.45
52 11.0200 142.80 139.57 11.95
53 11.0400 144.50 139.56 12.02
54 11.0600 131.00 139.54 11.45
55 11.0800 145.10 139.53 12.05
56 11.1000 143.40 139.52 11.98
57 11.1200 139.00 139.51 11.79
58 11.1400 127.90 139.50 11.31
59 11.1600 149.90 139.49 12.24
60 11.1800 136.00 139.49 11.66
61 11.2000 144.40 139.48 12.02
62 11.2200 142.50 139.48 11.94
63 11.2400 139.70 139.48 11.82
64 11.2600 144.60 139.48 12.02
65 11.2800 157.60 139.48 12.55
66 11.3000 137.30 139.48 11.72
67 11.3200 129.50 139.48 11.38
68 11.3400 141.00 139.48 11.87
69 11.3600 168.50 139.48 12.98
70 11.3800 154.30 139.49 12.42
71 11.4000 155.40 139.49 12.47
72 11.4200 133.30 139.49 11.55
73 11.4400 141.10 139.50 11.88
74 11.4600 143.40 139.51 11.98
75 11.4800 147.80 139.51 12.16
76 11.5000 134.40 139.52 11.59
77 11.5200 130.50 139.53 11.42
78 11.5400 140.90 139.54 11.87
79 11.5600 132.00 139.55 11.49
80 11.5800 143.40 139.56 11.98
81 11.6000 148.40 139.57 12.18
82 11.6200 160.50 139.58 12.67
83 11.6400 139.80 139.59 11.82
84 11.6600 144.80 139.60 12.03
85 11.6800 141.30 139.61 11.89
86 11.7000 143.60 139.62 11.98
87 11.7200 132.10 139.63 11.49
88 11.7400 141.30 139.64 11.89
89 11.7600 145.40 139.65 12.06
90 11.7800 153.10 139.66 12.37
91 11.8000 141.00 139.68 11.87
92 11.8200 137.00 139.69 11.70
93 11.8400 128.90 139.70 11.35
94 11.8600 141.30 139.71 11.89
95 11.8800 136.70 139.72 11.69
96 11.9000 131.10 139.74 11.45
97 11.9200 139.50 139.75 11.81
98 11.9400 147.80 139.76 12.16
99 11.9600 157.40 139.77 12.55
100 11.9800 153.80 139.78 12.40
101 12.0000 148.00 139.79 12.17
102 12.0200 145.40 139.80 12.06
103 12.0400 145.40 139.81 12.06
104 12.0600 139.50 139.82 11.81
105 12.0800 133.10 139.83 11.54
106 12.1000 141.80 139.84 11.91
107 12.1200 144.40 139.85 12.02
108 12.1400 121.70 139.86 11.03
109 12.1600 136.50 139.87 11.68
110 12.1800 140.70 139.88 11.86
111 12.2000 143.90 139.89 12.00
112 12.2200 133.90 139.90 11.57
113 12.2400 138.70 139.91 11.78
114 12.2600 141.70 139.91 11.90
115 12.2800 137.00 139.92 11.70
116 12.3000 133.90 139.93 11.57
117 12.3200 130.00 139.93 11.40
118 12.3400 139.30 139.94 11.80
119 12.3600 129.70 139.95 11.39
120 12.3800 126.00 139.95 11.23
121 12.4000 146.50 139.95 12.10
122 12.4200 144.60 139.96 12.02
123 12.4400 142.60 139.96 11.94
124 12.4600 139.80 139.96 11.82
125 12.4800 142.50 139.97 11.94
126 12.5000 143.20 139.97 11.97
127 12.5200 155.10 139.97 12.45
128 12.5400 140.90 139.97 11.87
129 12.5600 147.50 139.97 12.15
130 12.5800 135.20 139.97 11.63
131 12.6000 151.40 139.97 12.30
132 12.6200 134.40 139.97 11.59
133 12.6400 140.90 139.97 11.87
134 12.6600 141.20 139.97 11.88
135 12.6800 135.40 139.97 11.64
136 12.7000 144.80 139.96 12.03
137 12.7200 137.50 139.96 11.73
138 12.7400 152.00 139.95 12.33
139 12.7600 144.00 139.95 12.00
140 12.7800 138.60 139.94 11.77
141 12.8000 128.20 139.94 11.32
142 12.8200 145.30 139.93 12.05
143 12.8400 136.80 139.92 11.70
144 12.8600 139.70 139.92 11.82
145 12.8800 148.10 139.91 12.17
146 12.9000 132.70 139.90 11.52
147 12.9200 130.40 139.89 11.42
148 12.9400 136.50 139.88 11.68
149 12.9600 139.50 139.87 11.81
150 12.9800 146.40 139.85 12.10
151 13.0000 134.20 139.84 11.58
152 13.0200 153.50 139.83 12.39
153 13.0400 110.90 139.82 10.53
154 13.0600 123.60 139.80 11.12
155 13.0800 146.00 139.79 12.08
156 13.1000 140.40 139.77 11.85
157 13.1200 137.00 139.76 11.70
158 13.1400 140.80 139.74 11.87
159 13.1600 137.90 139.72 11.74
160 13.1800 132.30 139.71 11.50
161 13.2000 133.00 139.69 11.53
162 13.2200 157.00 139.67 12.53
163 13.2400 153.20 139.65 12.38
164 13.2600 150.30 139.63 12.26
165 13.2800 131.60 139.61 11.47
166 13.3000 139.20 139.59 11.80
167 13.3200 162.70 139.56 12.76
168 13.3400 144.90 139.54 12.04
169 13.3600 137.40 139.52 11.72
170 13.3800 139.90 139.49 11.83
171 13.4000 142.70 139.47 11.95
172 13.4200 143.00 139.44 11.96
173 13.4400 135.70 139.42 11.65
174 13.4600 129.70 139.39 11.39
175 13.4800 130.90 139.37 11.44
176 13.5000 132.70 139.34 11.52
177 13.5200 155.70 139.31 12.48
178 13.5400 117.40 139.28 10.84
179 13.5600 138.00 139.25 11.75
180 13.5800 140.00 139.22 11.83
181 13.6000 137.00 139.19 11.70
182 13.6200 132.30 139.16 11.50
183 13.6400 156.90 139.13 12.53
184 13.6600 134.40 139.10 11.59
185 13.6800 129.10 139.06 11.36
186 13.7000 134.20 139.03 11.58
187 13.7200 132.00 139.00 11.49
188 13.7400 133.20 138.96 11.54
189 13.7600 138.20 138.93 11.76
190 13.7800 126.40 138.89 11.24
191 13.8000 127.90 138.85 11.31
192 13.8200 139.00 138.82 11.79
193 13.8400 138.60 138.78 11.77
194 13.8600 126.60 138.74 11.25
195 13.8800 131.00 138.71 11.45
196 13.9000 125.00 138.67 11.18
197 13.9200 132.50 138.63 11.51
198 13.9400 141.50 138.59 11.90
199 13.9600 142.20 138.55 11.92
200 13.9800 155.10 138.51 12.45
201 14.0000 139.20 138.46 11.80
202 14.0200 122.50 138.42 11.07
203 14.0400 140.20 138.38 11.84
204 14.0600 120.50 138.34 10.98
205 14.0800 135.30 138.29 11.63
206 14.1000 142.60 138.25 11.94
207 14.1200 160.40 138.21 12.66
208 14.1400 136.10 138.16 11.67
209 14.1600 130.40 138.12 11.42
210 14.1800 151.30 138.07 12.30
211 14.2000 139.30 138.02 11.80
212 14.2200 125.70 137.98 11.21
213 14.2400 144.70 137.93 12.03
214 14.2600 138.00 137.88 11.75
215 14.2800 135.90 137.84 11.66
216 14.3000 125.50 137.79 11.20
217 14.3200 136.60 137.74 11.69
218 14.3400 151.90 137.69 12.32
219 14.3600 142.60 137.64 11.94
220 14.3800 125.30 137.59 11.19
221 14.4000 116.70 137.54 10.80
222 14.4200 123.00 137.49 11.09
223 14.4400 148.90 137.44 12.20
224 14.4600 136.20 137.38 11.67
225 14.4800 147.00 137.33 12.12
226 14.5000 138.70 137.28 11.78
227 14.5200 133.40 137.23 11.55
228 14.5400 131.00 137.18 11.45
229 14.5600 141.80 137.12 11.91
230 14.5800 130.10 137.07 11.41
231 14.6000 131.00 137.01 11.45
232 14.6200 141.80 136.96 11.91
233 14.6400 115.80 136.90 10.76
234 14.6600 149.30 136.85 12.22
235 14.6800 126.50 136.79 11.25
236 14.7000 136.60 136.74 11.69
237 14.7200 149.90 136.68 12.24
238 14.7400 132.00 136.62 11.49
239 14.7600 135.70 136.57 11.65
240 14.7800 123.30 136.51 11.10
241 14.8000 133.80 136.45 11.57
242 14.8200 135.30 136.39 11.63
243 14.8400 150.90 136.33 12.28
244 14.8600 140.40 136.27 11.85
245 14.8800 133.30 136.22 11.55
246 14.9000 122.00 136.16 11.05
247 14.9200 133.40 136.10 11.55
248 14.9400 141.50 136.04 11.90
249 14.9600 130.80 135.98 11.44
250 14.9800 134.10 135.92 11.58
251 15.0000 130.60 135.86 11.43
252 15.0200 138.70 135.80 11.78
253 15.0400 140.10 135.74 11.84
254 15.0600 153.00 135.67 12.37
255 15.0800 125.30 135.61 11.19
256 15.1000 120.10 135.55 10.96
257 15.1200 132.00 135.49 11.49
258 15.1400 141.50 135.43 11.90
259 15.1600 131.40 135.36 11.46
260 15.1800 135.00 135.30 11.62
261 15.2000 133.10 135.24 11.54
262 15.2200 128.30 135.17 11.33
263 15.2400 120.90 135.11 11.00
264 15.2600 156.70 135.05 12.52
265 15.2800 129.40 134.98 11.38
266 15.3000 145.30 134.92 12.05
267 15.3200 148.70 134.85 12.19
268 15.3400 151.00 134.79 12.29
269 15.3600 139.70 134.72 11.82
270 15.3800 134.80 134.66 11.61
271 15.4000 139.30 134.59 11.80
272 15.4200 147.80 134.53 12.16
273 15.4400 145.10 134.46 12.05
274 15.4600 141.80 134.40 11.91
275 15.4800 140.80 134.33 11.87
276 15.5000 144.80 134.26 12.03
277 15.5200 143.70 134.20 11.99
278 15.5400 128.00 134.13 11.31
279 15.5600 133.80 134.07 11.57
280 15.5800 135.00 134.00 11.62
281 15.6000 160.10 133.93 12.65
282 15.6200 140.00 133.87 11.83
283 15.6400 138.90 133.80 11.79
284 15.6600 138.00 133.73 11.75
285 15.6800 133.60 133.66 11.56
286 15.7000 140.80 133.60 11.87
287 15.7200 138.40 133.53 11.76
288 15.7400 138.40 135.78 11.76
289 15.7600 135.00 135.90 11.62
290 15.7800 131.40 137.19 11.46
291 15.8000 143.70 137.46 11.99
292 15.8200 145.20 137.77 12.05
293 15.8400 150.60 138.14 12.27
294 15.8600 121.70 138.57 11.03
295 15.8800 142.60 139.09 11.94
296 15.9000 135.10 139.69 11.62
297 15.9200 142.60 140.42 11.94
298 15.9400 139.20 141.30 11.80
299 15.9600 154.30 142.37 12.42
300 15.9800 151.50 143.69 12.31
301 16.0000 151.90 145.33 12.32
302 16.0200 142.50 147.41 11.94
303 16.0400 153.00 150.09 12.37
304 16.0600 145.70 153.62 12.07
305 16.0800 194.00 158.41 13.93
306 16.1000 164.50 165.12 12.83
307 16.1200 167.10 175.17 12.93
308 16.1400 241.00 192.93 15.52
309 16.1600 311.10 233.89 17.64
310 16.1800 389.20 334.77 19.73
311 16.2000 587.70 544.08 24.24
312 16.2200 867.30 885.72 29.45
313 16.2400 1374.00 1352.95 37.07
314 16.2600 1952.30 1736.90 44.18
315 16.2800 2212.90 1927.99 47.04
316 16.3000 1809.80 1645.97 42.54
317 16.3200 1298.60 1175.83 36.04
318 16.3400 825.10 734.25 28.72
319 16.3600 458.80 412.55 21.42
320 16.3800 272.00 259.03 16.49
321 16.4000 199.90 203.13 14.14
322 16.4200 183.70 180.83 13.55
323 16.4400 166.10 168.46 12.89
324 16.4600 174.20 160.27 13.20
325 16.4800 169.90 154.49 13.03
326 16.5000 160.00 150.24 12.65
327 16.5200 139.80 147.02 11.82
328 16.5400 141.30 144.51 11.89
329 16.5600 132.20 142.51 11.50
330 16.5800 127.20 140.90 11.28
331 16.6000 148.10 139.56 12.17
332 16.6200 145.60 138.44 12.07
333 16.6400 146.30 137.49 12.10
334 16.6600 121.80 136.68 11.04
335 16.6800 135.30 135.98 11.63
336 16.7000 138.10 135.37 11.75
337 16.7200 135.10 134.82 11.62
338 16.7400 145.50 134.34 12.06
339 16.7600 132.00 131.36 11.49
340 16.7800 162.20 131.17 12.74
341 16.8000 137.70 130.99 11.73
342 16.8200 136.20 129.65 11.67
343 16.8400 134.10 129.57 11.58
344 16.8600 135.20 129.50 11.63
345 16.8800 118.00 129.43 10.86
346 16.9000 120.40 129.35 10.97
347 16.9200 135.40 129.28 11.64
348 16.9400 139.60 129.21 11.82
349 16.9600 138.40 129.14 11.76
350 16.9800 140.00 129.06 11.83
351 17.0000 132.10 128.99 11.49
352 17.0200 130.10 128.92 11.41
353 17.0400 129.50 128.85 11.38
354 17.0600 132.40 128.77 11.51
355 17.0800 137.80 128.70 11.74
356 17.1000 125.30 128.62 11.19
357 17.1200 143.90 128.55 12.00
358 17.1400 142.00 128.48 11.92
359 17.1600 135.90 128.40 11.66
360 17.1800 121.50 128.33 11.02
361 17.2000 144.00 128.26 12.00
362 17.2200 117.70 128.18 10.85
363 17.2400 144.40 128.11 12.02
364 17.2600 146.00 128.04 12.08
365 17.2800 130.70 127.96 11.43
366 17.3000 129.00 127.89 11.36
367 17.3200 137.90 127.82 11.74
368 17.3400 145.50 127.74 12.06
369 17.3600 124.60 127.67 11.16
370 17.3800 141.00 127.60 11.87
371 17.4000 131.10 127.52 11.45
372 17.4200 119.00 127.45 10.91
373 17.4400 122.60 127.37 11.07
374 17.4600 117.50 127.30 10.84
375 17.4800 123.30 127.22 11.10
376 17.5000 134.10 127.15 11.58
377 17.5200 133.50 127.08 11.55
378 17.5400 133.30 127.10 11.55
379 17.5600 141.50 127.03 11.90
380 17.5800 116.80 127.01 10.81
381 17.6000 130.90 126.95 11.44
382 17.6200 121.50 126.96 11.02
383 17.6400 111.80 126.91 10.57
384 17.6600 131.90 126.99 11.48
385 17.6800 120.10 126.96 10.96
386 17.7000 142.80 126.93 11.95
387 17.7200 146.70 126.92 12.11
388 17.7400 118.30 126.91 10.88
389 17.7600 121.50 126.91 11.02
390 17.7800 128.40 126.93 11.33
391 17.8000 131.70 126.97 11.48
392 17.8200 130.40 127.04 11.42
393 17.8400 140.00 127.15 11.83
394 17.8600 134.10 127.30 11.58
395 17.8800 130.10 127.53 11.41
396 17.9000 129.60 127.88 11.38
397 17.9200 117.80 128.41 10.85
398 17.9400 109.00 129.37 10.44
399 17.9600 128.10 131.50 11.32
400 17.9800 136.00 136.46 11.66
401 18.0000 153.40 146.28 12.39
402 18.0200 140.20 161.62 11.84
403 18.0400 165.10 179.96 12.85
404 18.0600 170.30 194.69 13.05
405 18.0800 171.00 201.79 13.08
406 18.1000 206.50 203.51 14.37
407 18.1200 190.30 211.83 13.79
408 18.1400 227.90 218.34 15.10
409 18.1600 208.40 217.73 14.44
410 18.1800 210.00 200.67 14.49
411 18.2000 187.00 178.47 13.67
412 18.2200 164.40 158.21 12.82
413 18.2400 152.50 141.69 12.35
414 18.2600 138.00 132.86 11.75
415 18.2800 134.80 129.23 11.61
416 18.3000 140.90 127.67 11.87
417 18.3200 128.50 126.76 11.34
418 18.3400 123.00 126.13 11.09
419 18.3600 114.00 125.66 10.68
420 18.3800 117.80 125.29 10.85
421 18.4000 125.80 124.99 11.22
422 18.4200 113.20 124.73 10.64
423 18.4400 115.80 124.51 10.76
424 18.4600 122.90 124.32 11.09
425 18.4800 113.10 124.15 10.63
426 18.5000 131.90 123.99 11.48
427 18.5200 114.50 123.84 10.70
428 18.5400 120.90 123.71 11.00
429 18.5600 120.30 123.48 10.97
430 18.5800 126.00 123.37 11.23
431 18.6000 118.60 123.26 10.89
432 18.6200 139.80 123.11 11.82
433 18.6400 118.40 123.01 10.88
434 18.6600 104.10 122.78 10.20
435 18.6800 105.00 122.70 10.25
436 18.7000 109.60 122.55 10.47
437 18.7200 128.70 122.47 11.34
438 18.7400 135.90 122.39 11.66
439 18.7600 127.70 122.31 11.30
440 18.7800 127.30 122.22 11.28
441 18.8000 117.50 122.14 10.84
442 18.8200 122.70 122.06 11.08
443 18.8400 121.20 121.98 11.01
444 18.8600 109.90 121.90 10.48
445 18.8800 121.90 121.82 11.04
446 18.9000 129.30 121.74 11.37
447 18.9200 120.40 121.66 10.97
448 18.9400 132.70 121.58 11.52
449 18.9600 120.80 121.50 10.99
450 18.9800 124.80 121.41 11.17
451 19.0000 114.30 121.33 10.69
452 19.0200 127.20 121.25 11.28
453 19.0400 133.70 121.17 11.56
454 19.0600 139.40 121.08 11.81
455 19.0800 122.80 121.00 11.08
456 19.1000 124.70 120.92 11.17
457 19.1200 101.70 120.83 10.08
458 19.1400 99.30 120.75 9.96
459 19.1600 121.50 120.67 11.02
460 19.1800 130.60 120.58 11.43
461 19.2000 126.20 120.50 11.23
462 19.2200 107.00 120.42 10.34
463 19.2400 111.00 120.33 10.54
464 19.2600 121.00 120.25 11.00
465 19.2800 113.90 120.17 10.67
466 19.3000 123.60 120.18 11.12
467 19.3200 121.00 120.10 11.00
468 19.3400 124.20 120.07 11.14
469 19.3600 122.80 120.00 11.08
470 19.3800 115.50 120.11 10.75
471 19.4000 110.90 120.05 10.53
472 19.4200 116.00 120.00 10.77
473 19.4400 119.00 120.54 10.91
474 19.4600 118.60 120.55 10.89
475 19.4800 132.30 120.58 11.50
476 19.5000 115.00 120.63 10.72
477 19.5200 128.80 120.69 11.35
478 19.5400 108.40 120.79 10.41
479 19.5600 131.80 120.92 11.48
480 19.5800 132.60 121.09 11.52
481 19.6000 121.40 121.32 11.02
482 19.6200 109.30 121.62 10.45
483 19.6400 122.50 122.03 11.07
484 19.6600 105.20 122.58 10.26
485 19.6800 118.70 123.35 10.90
486 19.7000 121.60 124.51 11.03
487 19.7200 146.00 126.35 12.08
488 19.7400 113.20 129.91 10.64
489 19.7600 136.70 137.33 11.69
490 19.7800 136.90 150.81 11.70
491 19.8000 164.30 171.08 12.82
492 19.8200 184.40 195.63 13.58
493 19.8400 204.60 225.01 14.30
494 19.8600 256.90 264.80 16.03
495 19.8800 345.60 324.29 18.59
496 19.9000 439.60 383.43 20.97
497 19.9200 455.40 403.39 21.34
498 19.9400 454.10 363.22 21.31
499 19.9600 346.00 300.27 18.60
500 19.9800 299.60 242.39 17.31
501 20.0000 205.50 186.33 14.34
502 20.0200 169.80 151.29 13.03
503 20.0400 137.10 135.80 11.71
504 20.0600 113.20 129.57 10.64
505 20.0800 122.00 126.50 11.05
506 20.1000 116.90 124.71 10.81
507 20.1200 120.80 123.74 10.99
508 20.1400 116.40 123.74 10.79
509 20.1600 125.70 125.50 11.21
510 20.1800 116.00 130.25 10.77
511 20.2000 117.70 138.17 10.85
512 20.2200 116.20 146.87 10.78
513 20.2400 150.60 151.26 12.27
514 20.2600 134.40 147.92 11.59
515 20.2800 138.90 140.47 11.79
516 20.3000 117.40 133.46 10.84
517 20.3200 121.50 126.27 11.02
518 20.3400 118.00 121.17 10.86
519 20.3600 109.90 118.75 10.48
520 20.3800 118.50 117.67 10.89
521 20.4000 111.40 117.03 10.55
522 20.4200 106.80 116.14 10.33
523 20.4400 125.30 115.85 11.19
524 20.4600 107.60 115.60 10.37
525 20.4800 109.10 115.17 10.45
526 20.5000 117.00 115.00 10.82
527 20.5200 114.50 114.85 10.70
528 20.5400 113.40 114.71 10.65
529 20.5600 124.60 114.58 11.16
530 20.5800 113.00 114.45 10.63
531 20.6000 127.80 114.33 11.30
532 20.6200 129.70 114.21 11.39
533 20.6400 120.80 114.09 10.99
534 20.6600 100.50 113.98 10.02
535 20.6800 105.20 113.86 10.26
536 20.7000 114.80 113.75 10.71
537 20.7200 104.40 113.64 10.22
538 20.7400 95.00 113.53 9.75
539 20.7600 113.20 113.37 10.64
540 20.7800 94.40 113.27 9.72
541 20.8000 104.20 113.13 10.21
542 20.8200 105.00 113.03 10.25
543 20.8400 101.10 112.93 10.05
544 20.8600 98.60 112.83 9.93
545 20.8800 119.60 112.73 10.94
546 20.9000 115.60 112.62 10.75
547 20.9200 99.20 112.52 9.96
548 20.9400 122.00 112.42 11.05
549 20.9600 112.90 112.31 10.63
550 20.9800 110.90 112.21 10.53
551 21.0000 113.20 112.11 10.64
552 21.0200 105.80 112.00 10.29
553 21.0400 100.40 111.90 10.02
554 21.0600 98.90 111.79 9.94
555 21.0800 107.70 111.69 10.38
556 21.1000 105.90 111.58 10.29
557 21.1200 113.40 111.48 10.65
558 21.1400 117.10 111.37 10.82
559 21.1600 94.60 111.27 9.73
560 21.1800 92.60 111.16 9.62
561 21.2000 99.20 111.06 9.96
562 21.2200 106.20 110.95 10.31
563 21.2400 106.10 110.84 10.30
564 21.2600 108.90 110.74 10.44
565 21.2800 109.50 110.63 10.46
566 21.3000 111.20 110.96 10.55
567 21.3200 120.00 110.89 10.95
568 21.3400 123.30 110.82 11.10
569 21.3600 104.10 111.93 10.20
570 21.3800 120.80 111.97 10.99
571 21.4000 101.70 112.03 10.08
572 21.4200 98.90 112.12 9.94
573 21.4400 95.10 112.24 9.75
574 21.4600 100.70 112.40 10.03
575 21.4800 132.00 112.60 11.49
576 21.5000 114.00 112.85 10.68
577 21.5200 102.70 113.18 10.13
578 21.5400 124.30 113.59 11.15
579 21.5600 113.10 114.12 10.63
580 21.5800 123.00 114.80 11.09
581 21.6000 108.90 115.69 10.44
582 21.6200 119.90 116.86 10.95
583 21.6400 131.40 118.44 11.46
584 21.6600 121.40 120.62 11.02
585 21.6800 130.70 123.74 11.43
586 21.7000 133.80 128.48 11.57
587 21.7200 140.60 136.81 11.86
588 21.7400 183.60 154.79 13.55
589 21.7600 219.20 195.05 14.81
590 21.7800 304.10 271.11 17.44
591 21.8000 408.40 381.05 20.21
592 21.8200 549.70 536.74 23.45
593 21.8400 609.00 653.79 24.68
594 21.8600 574.40 580.04 23.97
595 21.8800 462.20 480.22 21.50
596 21.9000 381.80 399.93 19.54
597 21.9200 264.70 285.79 16.27
598 21.9400 212.30 196.95 14.57
599 21.9600 170.00 153.06 13.04
600 21.9800 160.80 135.13 12.68
601 22.0000 137.10 126.79 11.71
602 22.0200 112.70 121.83 10.62
603 22.0400 117.60 118.48 10.84
604 22.0600 121.00 116.06 11.00
605 22.0800 103.00 114.25 10.15
606 22.1000 114.30 112.84 10.69
607 22.1200 104.80 111.72 10.24
608 22.1400 108.10 110.81 10.40
609 22.1600 110.10 110.05 10.49
610 22.1800 108.20 109.41 10.40
611 22.2000 110.10 108.85 10.49
612 22.2200 109.20 108.37 10.45
613 22.2400 91.10 107.94 9.54
614 22.2600 108.80 107.56 10.43
615 22.2800 113.40 107.21 10.65
616 22.3000 109.20 106.89 10.45
617 22.3200 110.30 106.60 10.50
618 22.3400 106.70 106.33 10.33
619 22.3600 111.70 105.09 10.57
620 22.3800 97.90 104.92 9.89
621 22.4000 95.00 104.76 9.75
622 22.4200 104.60 104.12 10.23
623 22.4400 111.80 104.00 10.57
624 22.4600 90.10 103.88 9.49
625 22.4800 120.40 103.75 10.97
626 22.5000 103.80 103.63 10.19
627 22.5200 105.90 103.51 10.29
628 22.5400 102.00 103.39 10.10
629 22.5600 104.70 103.27 10.23
630 22.5800 116.10 103.15 10.77
631 22.6000 114.60 103.02 10.71
632 22.6200 105.00 102.90 10.25
633 22.6400 101.70 102.78 10.08
634 22.6600 94.90 102.66 9.74
635 22.6800 86.80 102.53 9.32
636 22.7000 96.80 102.41 9.84
637 22.7200 95.20 102.29 9.76
638 22.7400 116.00 102.16 10.77
639 22.7600 108.00 102.04 10.39
640 22.7800 104.10 101.92 10.20
641 22.8000 105.30 101.79 10.26
642 22.8200 101.40 101.67 10.07
643 22.8400 106.50 101.54 10.32
644 22.8600 116.30 101.42 10.78
645 22.8800 102.80 101.29 10.14
646 22.9000 114.30 101.17 10.69
647 22.9200 99.30 101.04 9.96
648 22.9400 98.10 100.92 9.90
649 22.9600 90.20 100.79 9.50
650 22.9800 105.00 100.67 10.25
651 23.0000 103.40 100.54 10.17
652 23.0200 97.10 100.42 9.85
653 23.0400 101.60 100.29 10.08
654 23.0600 114.10 100.16 10.68
655 23.0800 109.60 100.04 10.47
656 23.1000 94.20 99.91 9.71
657 23.1200 107.20 99.79 10.35
658 23.1400 103.30 99.66 10.16
659 23.1600 106.80 99.53 10.33
660 23.1800 103.00 99.40 10.15
661 23.2000 100.80 99.28 10.04
662 23.2200 111.70 99.15 10.57
663 23.2400 95.90 99.02 9.79
664 23.2600 92.50 98.90 9.62
665 23.2800 91.00 98.77 9.54
666 23.3000 90.80 98.64 9.53
667 23.3200 91.10 98.51 9.54
668 23.3400 90.10 98.38 9.49
669 23.3600 84.90 98.26 9.21
670 23.3800 105.40 98.13 10.27
671 23.4000 111.40 98.00 10.55
672 23.4200 116.90 97.87 10.81
673 23.4400 116.10 97.74 10.77
674 23.4600 104.10 97.61 10.20
675 23.4800 98.10 97.48 9.90
676 23.5000 94.70 97.36 9.73
677 23.5200 97.70 97.23 9.88
678 23.5400 86.00 97.10 9.27
679 23.5600 109.80 96.97 10.48
680 23.5800 83.20 96.84 9.12
681 23.6000 95.70 96.71 9.78
682 23.6200 104.70 96.58 10.23
683 23.6400 102.30 96.45 10.11
684 23.6600 102.90 96.32 10.14
685 23.6800 100.50 96.19 10.02
686 23.7000 100.40 96.06 10.02
687 23.7200 98.90 95.93 9.94
688 23.7400 96.30 95.80 9.81
689 23.7600 92.30 95.67 9.61
690 23.7800 108.50 95.54 10.42
691 23.8000 99.70 95.41 9.98
692 23.8200 101.20 95.28 10.06
693 23.8400 96.00 95.15 9.80
694 23.8600 100.60 95.21 10.03
695 23.8800 108.00 95.09 10.39
696 23.9000 93.80 94.98 9.69
697 23.9200 81.40 94.96 9.02
698 23.9400 95.90 94.91 9.79
699 23.9600 108.90 94.82 10.44
700 23.9800 97.40 94.73 9.87
701 24.0000 103.70 95.56 10.18
702 24.0200 97.60 95.56 9.88
703 24.0400 95.20 95.90 9.76
704 24.0600 94.00 95.97 9.70
705 24.0800 99.60 96.06 9.98
706 24.1000 81.80 96.19 9.04
707 24.1200 94.00 96.37 9.70
708 24.1400 93.30 96.60 9.66
709 24.1600 98.60 96.91 9.93
710 24.1800 110.10 97.31 10.49
711 24.2000 102.30 97.83 10.11
712 24.2200 107.10 98.52 10.35
713 24.2400 102.70 99.45 10.13
714 24.2600 96.20 100.72 9.81
715 24.2800 96.80 102.53 9.84
716 24.3000 90.30 105.40 9.50
717 24.3200 105.10 110.63 10.25
718 24.3400 123.20 120.95 11.10
719 24.3600 129.50 139.84 11.38
720 24.3800 152.70 167.58 12.36
721 24.4000 169.30 203.85 13.01
722 24.4200 208.00 230.24 14.42
723 24.4400 232.20 245.61 15.24
724 24.4600 275.80 289.28 16.61
725 24.4800 304.90 357.83 17.46
726 24.5000 422.20 413.01 20.55
727 24.5200 428.00 464.91 20.69
728 24.5400 404.00 436.32 20.10
729 24.5600 345.00 355.07 18.57
730 24.5800 286.30 305.11 16.92
731 24.6000 208.50 250.15 14.44
732 24.6200 156.00 183.68 12.49
733 24.6400 125.70 139.99 11.21
734 24.6600 111.60 119.11 10.56
735 24.6800 112.10 109.66 10.59
736 24.7000 115.90 104.53 10.77
737 24.7200 102.90 101.19 10.14
738 24.7400 99.80 98.81 9.99
739 24.7600 106.30 97.03 10.31
740 24.7800 93.30 95.65 9.66
741 24.8000 98.60 94.56 9.93
742 24.8200 88.30 93.66 9.40
743 24.8400 99.20 92.91 9.96
744 24.8600 92.70 92.27 9.63
745 24.8800 102.00 91.71 10.10
746 24.9000 85.30 91.23 9.24
747 24.9200 89.00 90.80 9.43
748 24.9400 95.00 90.21 9.75
749 24.9600 93.50 89.87 9.67
750 24.9800 99.70 89.56 9.98
751 25.0000 83.70 89.27 9.15
752 25.0200 112.40 88.75 10.60
753 25.0400 104.70 88.52 10.23
754 25.0600 89.10 87.65 9.44
755 25.0800 100.40 87.40 10.02
756 25.1000 92.90 87.25 9.64
757 25.1200 102.70 86.77 10.13
758 25.1400 104.40 86.64 10.22
759 25.1600 96.40 86.51 9.82
760 25.1800 86.30 87.04 9.29
761 25.2000 97.60 86.96 9.88
762 25.2200 96.40 86.89 9.82
763 25.2400 98.00 88.35 9.90
764 25.2600 90.90 88.43 9.53
765 25.2800 94.70 88.53 9.73
766 25.3000 82.20 88.66 9.07
767 25.3200 104.00 88.83 10.20
768 25.3400 75.30 89.05 8.68
769 25.3600 83.60 89.33 9.14
770 25.3800 82.50 89.68 9.08
771 25.4000 93.40 90.12 9.66
772 25.4200 116.80 90.66 10.81
773 25.4400 95.10 91.36 9.75
774 25.4600 104.00 92.24 10.20
775 25.4800 94.50 93.37 9.72
776 25.5000 90.30 94.84 9.50
777 25.5200 105.20 96.79 10.26
778 25.5400 110.20 99.59 10.50
779 25.5600 103.20 103.29 10.16
780 25.5800 102.00 108.66 10.10
781 25.6000 113.40 117.36 10.65
782 25.6200 153.70 132.64 12.40
783 25.6400 146.30 164.87 12.10
784 25.6600 246.00 233.63 15.68
785 25.6800 399.10 357.27 19.98
786 25.7000 575.70 520.28 23.99
787 25.7200 828.50 671.82 28.78
788 25.7400 747.00 640.14 27.33
789 25.7600 604.00 516.78 24.58
790 25.7800 541.40 456.96 23.27
791 25.8000 436.80 385.98 20.90
792 25.8200 339.40 267.90 18.42
793 25.8400 183.40 181.42 13.54
794 25.8600 141.00 138.60 11.87
795 25.8800 122.80 119.89 11.08
796 25.9000 109.20 110.71 10.45
797 25.9200 92.60 105.44 9.62
798 25.9400 91.80 102.38 9.58
799 25.9600 100.60 101.07 10.03
800 25.9800 107.20 101.83 10.35
801 26.0000 98.70 106.39 9.93
802 26.0200 124.40 118.52 11.15
803 26.0400 139.00 142.17 11.79
804 26.0600 178.00 174.36 13.34
805 26.0800 197.00 204.93 14.04
806 26.1000 211.70 199.33 14.55
807 26.1200 164.70 173.49 12.83
808 26.1400 142.30 160.42 11.93
809 26.1600 134.10 147.12 11.58
810 26.1800 125.00 122.88 11.18
811 26.2000 108.10 103.99 10.40
812 26.2200 102.00 94.18 10.10
813 26.2400 94.70 89.65 9.73
814 26.2600 95.30 85.90 9.76
815 26.2800 92.10 84.44 9.60
816 26.3000 80.00 83.40 8.94
817 26.3200 85.50 82.60 9.25
818 26.3400 89.50 81.35 9.46
819 26.3600 95.60 80.88 9.78
820 26.3800 76.00 80.48 8.72
821 26.4000 81.60 80.14 9.03
822 26.4200 86.80 79.85 9.32
823 26.4400 81.50 79.58 9.03
824 26.4600 82.70 79.48 9.09
825 26.4800 93.30 79.26 9.66
826 26.5000 71.90 79.07 8.48
827 26.5200 78.90 79.13 8.88
828 26.5400 77.50 78.99 8.80
829 26.5600 95.40 78.85 9.77
830 26.5800 82.50 78.73 9.08
831 26.6000 64.20 78.62 8.01
832 26.6200 69.90 78.52 8.36
833 26.6400 74.10 78.17 8.61
834 26.6600 78.50 78.12 8.86
835 26.6800 91.30 78.09 9.56
836 26.7000 85.80 77.94 9.26
837 26.7200 88.20 77.95 9.39
838 26.7400 63.00 78.00 7.94
839 26.7600 68.50 78.08 8.28
840 26.7800 86.10 78.21 9.28
841 26.8000 87.50 78.41 9.35
842 26.8200 94.70 78.71 9.73
843 26.8400 84.70 79.15 9.20
844 26.8600 73.40 79.80 8.57
845 26.8800 90.90 80.81 9.53
846 26.9000 80.10 82.47 8.95
847 26.9200 87.90 85.65 9.38
848 26.9400 101.00 92.48 10.05
849 26.9600 116.40 106.82 10.79
850 26.9800 120.70 131.07 10.99
851 27.0000 150.60 160.45 12.27
852 27.0200 161.60 178.82 12.71
853 27.0400 152.10 163.59 12.33
854 27.0600 125.50 144.68 11.20
855 27.0800 141.50 137.56 11.90
856 27.1000 107.80 124.58 10.38
857 27.1200 101.70 104.49 10.08
858 27.1400 99.10 90.55 9.95
859 27.1600 85.00 83.62 9.22
860 27.1800 80.80 80.41 8.99
861 27.2000 84.80 78.67 9.21
862 27.2200 75.50 77.53 8.69
863 27.2400 87.40 76.72 9.35
864 27.2600 67.50 76.10 8.22
865 27.2800 86.70 75.61 9.31
866 27.3000 84.90 75.21 9.21
867 27.3200 77.30 74.87 8.79
868 27.3400 72.20 74.58 8.50
869 27.3600 79.20 74.32 8.90
870 27.3800 80.30 74.09 8.96
871 27.4000 86.70 73.88 9.31
872 27.4200 74.50 73.68 8.63
873 27.4400 78.50 73.50 8.86
874 27.4600 65.00 73.33 8.06
875 27.4800 74.20 73.17 8.61
876 27.5000 78.50 73.01 8.86
877 27.5200 75.20 72.87 8.67
878 27.5400 68.60 72.72 8.28
879 27.5600 69.20 72.59 8.32
880 27.5800 66.20 72.23 8.14
881 27.6000 71.00 72.11 8.43
882 27.6200 65.30 72.00 8.08
883 27.6400 64.10 71.77 8.01
884 27.6600 73.40 71.66 8.57
885 27.6800 64.40 71.56 8.02
886 27.7000 58.50 71.46 7.65
887 27.7200 69.20 71.36 8.32
888 27.7400 66.10 71.25 8.13
889 27.7600 73.70 71.15 8.58
890 27.7800 71.90 71.05 8.48
891 27.8000 72.40 70.95 8.51
892 27.8200 74.90 70.85 8.65
893 27.8400 67.80 70.75 8.23
894 27.8600 72.20 70.65 8.50
895 27.8800 70.50 70.55 8.40
896 27.9000 57.40 70.45 7.58
897 27.9200 61.20 70.35 7.82
898 27.9400 73.10 70.25 8.55
899 27.9600 71.70 70.15 8.47
900 27.9800 62.90 70.05 7.93
901 28.0000 63.40 69.95 7.96
902 28.0200 66.70 69.85 8.17
903 28.0400 70.40 69.76 8.39
904 28.0600 67.90 69.66 8.24
905 28.0800 61.80 69.56 7.86
906 28.1000 61.00 69.47 7.81
907 28.1200 73.30 69.37 8.56
908 28.1400 75.30 69.27 8.68
909 28.1600 57.10 69.18 7.56
910 28.1800 66.00 69.08 8.12
911 28.2000 63.60 68.99 7.97
912 28.2200 64.20 68.89 8.01
913 28.2400 59.90 68.80 7.74
914 28.2600 71.90 68.70 8.48
915 28.2800 60.30 68.61 7.77
916 28.3000 71.40 68.52 8.45
917 28.3200 71.90 68.42 8.48
918 28.3400 55.90 68.33 7.48
919 28.3600 74.40 68.24 8.63
920 28.3800 69.00 68.15 8.31
921 28.4000 66.30 68.05 8.14
922 28.4200 63.70 67.96 7.98
923 28.4400 72.00 67.87 8.49
924 28.4600 57.60 67.78 7.59
925 28.4800 62.00 67.69 7.87
926 28.5000 62.40 67.60 7.90
927 28.5200 61.40 67.51 7.84
928 28.5400 84.60 67.42 9.20
929 28.5600 66.60 67.33 8.16
930 28.5800 50.10 67.24 7.08
931 28.6000 64.30 67.15 8.02
932 28.6200 65.40 67.06 8.09
933 28.6400 75.70 66.98 8.70
934 28.6600 59.60 66.89 7.72
935 28.6800 59.20 66.80 7.69
936 28.7000 59.70 66.71 7.73
937 28.7200 60.60 66.63 7.78
938 28.7400 56.90 66.54 7.54
939 28.7600 57.60 66.45 7.59
940 28.7800 66.60 66.37 8.16
941 28.8000 66.00 66.28 8.12
942 28.8200 74.50 66.20 8.63
943 28.8400 70.40 66.11 8.39
944 28.8600 67.10 66.03 8.19
945 28.8800 59.30 65.94 7.70
946 28.9000 58.10 65.86 7.62
947 28.9200 69.60 65.78 8.34
948 28.9400 59.90 65.69 7.74
949 28.9600 66.70 65.61 8.17
950 28.9800 58.50 65.53 7.65
951 29.0000 53.40 65.45 7.31
952 29.0200 58.90 65.36 7.67
953 29.0400 57.70 65.28 7.60
954 29.0600 62.00 65.20 7.87
955 29.0800 60.70 65.12 7.79
956 29.1000 72.00 65.04 8.49
957 29.1200 72.90 64.96 8.54
958 29.1400 65.60 64.88 8.10
959 29.1600 62.70 64.80 7.92
960 29.1800 60.30 64.72 7.77
961 29.2000 65.80 64.64 8.11
962 29.2200 60.30 64.56 7.77
963 29.2400 54.20 64.48 7.36
964 29.2600 58.60 64.40 7.66
965 29.2800 52.20 64.33 7.22
966 29.3000 59.90 64.25 7.74
967 29.3200 69.70 64.17 8.35
968 29.3400 67.90 64.10 8.24
969 29.3600 70.80 64.02 8.41
970 29.3800 64.10 63.94 8.01
971 29.4000 70.50 63.87 8.40
972 29.4200 63.00 63.79 7.94
973 29.4400 63.60 63.72 7.97
974 29.4600 66.80 63.64 8.17
975 29.4800 74.00 63.57 8.60
976 29.5000 71.10 63.49 8.43
977 29.5200 61.80 63.42 7.86
978 29.5400 61.20 63.34 7.82
979 29.5600 51.80 63.27 7.20
980 29.5800 63.70 63.20 7.98
981 29.6000 67.30 63.12 8.20
982 29.6200 64.00 63.05 8.00
983 29.6400 60.60 62.98 7.78
984 29.6600 61.10 62.91 7.82
985 29.6800 59.10 62.84 7.69
986 29.7000 75.80 62.76 8.71
987 29.7200 70.70 62.69 8.41
988 29.7400 81.30 62.62 9.02
989 29.7600 75.00 62.55 8.66
990 29.7800 73.70 62.48 8.58
991 29.8000 67.10 62.41 8.19
992 29.8200 64.60 62.34 8.04
993 29.8400 67.70 62.27 8.23
994 29.8600 70.10 62.20 8.37
995 29.8800 71.70 62.14 8.47
996 29.9000 64.50 62.07 8.03
997 29.9200 71.90 62.00 8.48
998 29.9400 63.30 61.93 7.96
999 29.9600 68.10 61.86 8.25
1000 29.9800 64.10 61.80 8.01
1001 30.0000 61.40 61.73 7.84
1002 30.0200 72.70 61.85 8.53
1003 30.0400 79.90 61.80 8.94
1004 30.0600 74.20 61.75 8.61
1005 30.0800 79.60 61.70 8.92
1006 30.1000 57.40 62.06 7.58
1007 30.1200 72.80 62.04 8.53
1008 30.1400 71.60 62.09 8.46
1009 30.1600 68.70 62.10 8.29
1010 30.1800 70.00 62.17 8.37
1011 30.2000 62.80 62.21 7.92
1012 30.2200 61.90 62.26 7.87
1013 30.2400 63.70 62.34 7.98
1014 30.2600 72.10 62.43 8.49
1015 30.2800 76.30 62.56 8.73
1016 30.3000 63.40 62.72 7.96
1017 30.3200 68.40 62.93 8.27
1018 30.3400 62.60 63.20 7.91
1019 30.3600 55.80 63.55 7.47
1020 30.3800 64.10 64.02 8.01
1021 30.4000 47.70 64.64 6.91
1022 30.4200 62.70 65.49 7.92
1023 30.4400 70.20 66.68 8.38
1024 30.4600 71.10 68.41 8.43
1025 30.4800 70.00 71.13 8.37
1026 30.5000 76.40 75.91 8.74
1027 30.5200 90.00 85.51 9.49
1028 30.5400 99.40 105.13 9.97
1029 30.5600 130.70 138.97 11.43
1030 30.5800 156.70 179.13 12.52
1031 30.6000 183.80 199.86 13.56
1032 30.6200 164.80 178.24 12.84
1033 30.6400 137.60 158.56 11.73
1034 30.6600 150.90 159.07 12.28
1035 30.6800 142.30 158.74 11.93
1036 30.7000 142.00 135.09 11.92
1037 30.7200 85.20 107.55 9.23
1038 30.7400 84.30 91.80 9.18
1039 30.7600 73.90 84.99 8.60
1040 30.7800 75.00 79.25 8.66
1041 30.8000 58.30 72.80 7.64
1042 30.8200 63.10 68.23 7.94
1043 30.8400 59.00 65.58 7.68
1044 30.8600 59.60 64.04 7.72
1045 30.8800 62.30 63.03 7.89
1046 30.9000 76.60 62.31 8.75
1047 30.9200 55.80 61.74 7.47
1048 30.9400 49.30 61.30 7.02
1049 30.9600 53.00 60.93 7.28
1050 30.9800 56.20 60.62 7.50
1051 31.0000 64.60 60.36 8.04
1052 31.0200 63.20 60.13 7.95
1053 31.0400 53.00 59.93 7.28
1054 31.0600 63.30 59.75 7.96
1055 31.0800 71.30 59.59 8.44
1056 31.1000 58.80 59.44 7.67
1057 31.1200 50.30 59.31 7.09
1058 31.1400 58.70 59.18 7.66
1059 31.1600 58.00 59.07 7.62
1060 31.1800 55.10 58.62 7.42
1061 31.2000 60.40 58.54 7.77
1062 31.2200 53.20 58.46 7.29
1063 31.2400 62.00 58.39 7.87
1064 31.2600 57.90 58.09 7.61
1065 31.2800 55.40 58.03 7.44
1066 31.3000 65.90 57.98 8.12
1067 31.3200 62.50 57.93 7.91
1068 31.3400 56.50 57.84 7.52
1069 31.3600 56.50 57.79 7.52
1070 31.3800 68.30 57.74 8.26
1071 31.4000 72.00 57.69 8.49
1072 31.4200 73.20 57.74 8.56
1073 31.4400 54.80 57.70 7.40
1074 31.4600 59.40 57.66 7.71
1075 31.4800 49.20 57.62 7.01
1076 31.5000 50.00 57.91 7.07
1077 31.5200 59.10 57.90 7.69
1078 31.5400 57.90 57.89 7.61
1079 31.5600 49.20 57.89 7.01
1080 31.5800 48.60 57.90 6.97
1081 31.6000 61.10 57.91 7.82
1082 31.6200 66.30 57.94 8.14
1083 31.6400 56.50 57.97 7.52
1084 31.6600 56.00 58.03 7.48
1085 31.6800 46.00 58.09 6.78
1086 31.7000 59.40 58.19 7.71
1087 31.7200 31.00 58.31 5.57
1088 31.7400 54.60 58.46 7.39
1089 31.7600 53.90 58.67 7.34
1090 31.7800 60.90 58.94 7.80
1091 31.8000 57.90 59.30 7.61
1092 31.8200 62.20 59.80 7.89
1093 31.8400 66.30 60.49 8.14
1094 31.8600 55.50 61.47 7.45
1095 31.8800 58.40 62.96 7.64
1096 31.9000 56.40 65.42 7.51
1097 31.9200 60.00 70.04 7.75
1098 31.9400 70.00 79.49 8.37
1099 31.9600 98.40 97.73 9.92
1100 31.9800 97.30 124.39 9.86
1101 32.0000 112.60 147.80 10.61
1102 32.0200 129.90 143.69 11.40
1103 32.0400 112.10 122.26 10.59
1104 32.0600 100.70 112.33 10.03
1105 32.0800 83.20 111.90 9.12
1106 32.1000 89.90 103.87 9.48
1107 32.1200 75.50 86.68 8.69
1108 32.1400 65.20 73.59 8.07
1109 32.1600 64.80 66.51 8.05
1110 32.1800 58.50 62.98 7.65
1111 32.2000 59.70 61.06 7.73
1112 32.2200 56.10 59.84 7.49
1113 32.2400 47.80 58.99 6.91
1114 32.2600 55.50 58.36 7.45
1115 32.2800 52.60 57.89 7.25
1116 32.3000 48.00 57.51 6.93
1117 32.3200 53.50 57.58 7.31
1118 32.3400 57.30 57.35 7.57
1119 32.3600 41.70 57.17 6.46
1120 32.3800 51.40 57.02 7.17
1121 32.4000 59.20 57.08 7.69
1122 32.4200 54.50 57.11 7.38
1123 32.4400 36.80 57.05 6.07
1124 32.4600 50.30 57.01 7.09
1125 32.4800 60.80 57.00 7.80
1126 32.5000 67.20 57.25 8.20
1127 32.5200 46.90 57.30 6.85
1128 32.5400 49.70 57.37 7.05
1129 32.5600 53.30 57.48 7.30
1130 32.5800 47.50 57.62 6.89
1131 32.6000 39.70 57.57 6.30
1132 32.6200 42.20 57.82 6.50
1133 32.6400 49.30 58.14 7.02
1134 32.6600 50.90 58.55 7.13
1135 32.6800 49.90 58.95 7.06
1136 32.7000 64.20 59.63 8.01
1137 32.7200 63.00 60.54 7.94
1138 32.7400 63.00 61.76 7.94
1139 32.7600 51.60 63.46 7.18
1140 32.7800 59.70 65.97 7.73
1141 32.8000 62.00 69.99 7.87
1142 32.8200 54.10 77.30 7.36
1143 32.8400 80.90 91.79 8.99
1144 32.8600 86.10 119.10 9.28
1145 32.8800 113.90 158.56 10.67
1146 32.9000 139.00 192.63 11.79
1147 32.9200 124.90 187.98 11.18
1148 32.9400 112.20 164.76 10.59
1149 32.9600 121.00 165.83 11.00
1150 32.9800 147.90 187.73 12.16
1151 33.0000 162.60 197.19 12.75
1152 33.0200 137.30 170.09 11.72
1153 33.0400 99.20 133.41 9.96
1154 33.0600 102.30 114.47 10.11
1155 33.0800 90.90 109.30 9.53
1156 33.1000 83.10 101.96 9.12
1157 33.1200 75.90 86.84 8.71
1158 33.1400 71.90 74.41 8.48
1159 33.1600 65.20 67.21 8.07
1160 33.1800 58.80 63.36 7.67
1161 33.2000 60.60 61.13 7.78
1162 33.2200 60.20 59.66 7.76
1163 33.2400 50.10 58.60 7.08
1164 33.2600 57.00 57.80 7.55
1165 33.2800 57.40 57.18 7.58
1166 33.3000 57.40 56.67 7.58
1167 33.3200 57.00 56.26 7.55
1168 33.3400 40.40 55.91 6.36
1169 33.3600 59.00 55.62 7.68
1170 33.3800 56.80 55.36 7.54
1171 33.4000 45.60 55.14 6.75
1172 33.4200 47.60 54.95 6.90
1173 33.4400 51.90 54.85 7.20
1174 33.4600 42.50 54.69 6.52
1175 33.4800 43.20 54.56 6.57
1176 33.5000 51.80 54.08 7.20
1177 33.5200 58.50 53.99 7.65
1178 33.5400 54.30 54.06 7.37
1179 33.5600 46.60 54.00 6.83
1180 33.5800 47.80 53.77 6.91
1181 33.6000 57.40 53.53 7.58
1182 33.6200 49.70 53.51 7.05
1183 33.6400 53.70 53.50 7.33
1184 33.6600 51.10 53.49 7.15
1185 33.6800 60.90 53.39 7.80
1186 33.7000 57.70 53.41 7.60
1187 33.7200 41.00 53.44 6.40
1188 33.7400 57.10 53.48 7.56
1189 33.7600 48.60 53.53 6.97
1190 33.7800 51.80 53.61 7.20
1191 33.8000 45.50 53.71 6.75
1192 33.8200 51.80 53.86 7.20
1193 33.8400 51.50 54.05 7.18
1194 33.8600 51.30 54.31 7.16
1195 33.8800 52.50 54.68 7.25
1196 33.9000 46.10 55.22 6.79
1197 33.9200 51.90 56.02 7.20
1198 33.9400 60.40 57.33 7.77
1199 33.9600 69.00 59.74 8.31
1200 33.9800 58.60 64.54 7.66
1201 34.0000 66.30 73.77 8.14
1202 34.0200 82.00 87.65 9.06
1203 34.0400 112.20 100.09 10.59
1204 34.0600 94.10 98.35 9.70
1205 34.0800 88.80 86.62 9.42
1206 34.1000 78.00 80.66 8.83
1207 34.1200 91.30 80.89 9.56
1208 34.1400 86.10 79.34 9.28
1209 34.1600 76.50 71.22 8.75
1210 34.1800 63.60 63.41 7.97
1211 34.2000 62.20 58.76 7.89
1212 34.2200 70.00 56.35 8.37
1213 34.2400 58.30 55.06 7.64
1214 34.2600 37.70 54.26 6.14
1215 34.2800 56.30 53.71 7.50
1216 34.3000 51.70 53.31 7.19
1217 34.3200 60.50 53.01 7.78
1218 34.3400 48.90 52.76 6.99
1219 34.3600 51.10 52.56 7.15
1220 34.3800 58.80 52.40 7.67
1221 34.4000 56.70 52.26 7.53
1222 34.4200 57.50 52.13 7.58
1223 34.4400 50.20 52.02 7.09
1224 34.4600 51.00 51.93 7.14
1225 34.4800 40.50 51.84 6.36
1226 34.5000 53.00 51.75 7.28
1227 34.5200 49.50 51.68 7.04
1228 34.5400 47.40 51.61 6.88
1229 34.5600 50.90 51.54 7.13
1230 34.5800 57.80 51.47 7.60
1231 34.6000 48.60 51.41 6.97
1232 34.6200 53.40 51.35 7.31
1233 34.6400 40.00 51.16 6.32
1234 34.6600 51.50 51.11 7.18
1235 34.6800 57.00 51.06 7.55
1236 34.7000 52.40 51.02 7.24
1237 34.7200 53.60 50.98 7.32
1238 34.7400 54.00 50.87 7.35
1239 34.7600 64.40 50.83 8.02
1240 34.7800 61.50 50.79 7.84
1241 34.8000 60.90 50.75 7.80
1242 34.8200 62.50 50.71 7.91
1243 34.8400 59.80 50.67 7.73
1244 34.8600 64.90 50.63 8.06
1245 34.8800 64.20 50.59 8.01
1246 34.9000 61.60 50.55 7.85
1247 34.9200 63.30 50.51 7.96
1248 34.9400 61.40 50.47 7.84
1249 34.9600 59.20 50.43 7.69
1250 34.9800 59.00 50.39 7.68
1251 35.0000 61.80 50.35 7.86
1252 35.0200 66.50 50.31 8.15
1253 35.0400 63.60 50.27 7.97
1254 35.0600 64.80 50.23 8.05
1255 35.0800 67.80 50.19 8.23
1256 35.1000 64.80 50.15 8.05
1257 35.1200 64.50 50.11 8.03
1258 35.1400 70.40 50.07 8.39
1259 35.1600 72.90 50.03 8.54
1260 35.1800 80.90 49.99 8.99
1261 35.2000 82.90 49.94 9.10
1262 35.2200 67.70 49.90 8.23
1263 35.2400 72.70 50.00 8.53
1264 35.2600 65.90 49.97 8.12
1265 35.2800 85.10 49.94 9.22
1266 35.3000 86.70 49.91 9.31
1267 35.3200 88.30 50.30 9.40
1268 35.3400 100.90 50.30 10.04
1269 35.3600 94.00 50.31 9.70
1270 35.3800 91.20 50.33 9.55
1271 35.4000 91.80 50.35 9.58
1272 35.4200 86.80 50.39 9.32
1273 35.4400 88.40 50.43 9.40
1274 35.4600 88.00 50.49 9.38
1275 35.4800 72.10 50.57 8.49
1276 35.5000 73.80 50.66 8.59
1277 35.5200 80.70 50.78 8.98
1278 35.5400 85.00 50.93 9.22
1279 35.5600 89.70 51.12 9.47
1280 35.5800 81.10 51.36 9.01
1281 35.6000 83.40 51.67 9.13
1282 35.6200 77.30 52.07 8.79
1283 35.6400 69.60 52.59 8.34
1284 35.6600 66.40 53.30 8.15
1285 35.6800 65.10 54.28 8.07
1286 35.7000 83.80 55.67 9.15
1287 35.7200 75.40 57.76 8.68
1288 35.7400 87.80 61.15 9.37
1289 35.7600 81.80 67.31 9.04
1290 35.7800 94.80 79.37 9.74
1291 35.8000 120.40 101.63 10.97
1292 35.8200 123.50 133.31 11.11
1293 35.8400 143.30 157.49 11.97
1294 35.8600 156.80 146.96 12.52
1295 35.8800 109.40 120.73 10.46
1296 35.9000 106.30 109.37 10.31
1297 35.9200 105.50 111.51 10.27
1298 35.9400 99.90 109.96 9.99
1299 35.9600 93.70 93.18 9.68
1300 35.9800 75.80 75.64 8.71
1301 36.0000 49.70 64.90 7.05
1302 36.0200 61.10 59.15 7.82
1303 36.0400 60.10 56.04 7.75
1304 36.0600 52.30 54.15 7.23
1305 36.0800 48.20 52.92 6.94
1306 36.1000 55.20 52.01 7.43
1307 36.1200 51.00 51.33 7.14
1308 36.1400 53.00 50.81 7.28
1309 36.1600 50.80 50.39 7.13
1310 36.1800 45.40 50.08 6.74
1311 36.2000 51.60 49.81 7.18
1312 36.2200 58.20 49.59 7.63
1313 36.2400 61.50 49.40 7.84
1314 36.2600 45.10 49.25 6.72
1315 36.2800 39.00 49.16 6.24
1316 36.3000 50.10 49.06 7.08
1317 36.3200 69.80 48.98 8.35
1318 36.3400 55.50 48.93 7.45
1319 36.3600 56.60 48.90 7.52
1320 36.3800 61.30 48.90 7.83
1321 36.4000 39.70 49.06 6.30
1322 36.4200 44.70 49.15 6.69
1323 36.4400 42.40 49.31 6.51
1324 36.4600 48.70 49.25 6.98
1325 36.4800 53.50 49.68 7.31
1326 36.5000 47.10 50.65 6.86
1327 36.5200 59.10 51.87 7.69
1328 36.5400 52.40 54.22 7.24
1329 36.5600 60.60 58.52 7.78
1330 36.5800 67.40 65.62 8.21
1331 36.6000 78.10 72.83 8.84
1332 36.6200 80.00 73.46 8.94
1333 36.6400 72.40 67.40 8.51
1334 36.6600 64.30 63.34 8.02
1335 36.6800 69.20 63.40 8.32
1336 36.7000 79.90 64.70 8.94
1337 36.7200 71.40 63.13 8.45
1338 36.7400 53.00 60.37 7.28
1339 36.7600 66.40 60.15 8.15
1340 36.7800 66.20 62.24 8.14
1341 36.8000 80.80 63.57 8.99
1342 36.8200 69.10 61.30 8.31
1343 36.8400 64.00 58.72 8.00
1344 36.8600 72.80 58.41 8.53
1345 36.8800 69.10 59.84 8.31
1346 36.9000 62.00 61.20 7.87
1347 36.9200 64.40 62.21 8.02
1348 36.9400 68.80 66.13 8.29
1349 36.9600 81.40 76.17 9.02
1350 36.9800 115.60 94.45 10.75
1351 37.0000 120.00 115.83 10.95
1352 37.0200 116.60 122.34 10.80
1353 37.0400 108.20 105.90 10.40
1354 37.0600 87.50 90.83 9.35
1355 37.0800 104.50 87.75 10.22
1356 37.1000 106.10 90.54 10.30
1357 37.1200 85.50 86.30 9.25
1358 37.1400 78.80 73.41 8.88
1359 37.1600 67.00 62.63 8.19
1360 37.1800 54.80 56.33 7.40
1361 37.2000 51.90 52.95 7.20
1362 37.2200 51.00 51.14 7.14
1363 37.2400 46.40 49.87 6.81
1364 37.2600 45.70 49.21 6.76
1365 37.2800 61.00 48.63 7.81
1366 37.3000 34.80 48.22 5.90
1367 37.3200 54.60 48.00 7.39
1368 37.3400 47.00 47.80 6.86
1369 37.3600 48.50 47.68 6.96
1370 37.3800 50.20 47.63 7.09
1371 37.4000 55.60 47.67 7.46
1372 37.4200 43.00 47.77 6.56
1373 37.4400 38.20 48.06 6.18
1374 37.4600 45.60 48.58 6.75
1375 37.4800 45.90 49.56 6.77
1376 37.5000 43.20 51.46 6.57
1377 37.5200 47.30 54.90 6.88
1378 37.5400 61.00 59.83 7.81
1379 37.5600 62.00 63.63 7.87
1380 37.5800 50.40 62.27 7.10
1381 37.6000 44.40 58.69 6.66
1382 37.6200 41.10 57.49 6.41
1383 37.6400 53.70 58.64 7.33
1384 37.6600 52.20 60.67 7.22
1385 37.6800 58.30 61.71 7.64
1386 37.7000 55.20 64.52 7.43
1387 37.7200 59.30 71.44 7.70
1388 37.7400 91.60 80.18 9.57
1389 37.7600 72.50 85.18 8.51
1390 37.7800 81.70 87.60 9.04
1391 37.8000 92.90 92.44 9.64
1392 37.8200 87.20 98.91 9.34
1393 37.8400 87.90 102.25 9.38
1394 37.8600 83.10 93.62 9.12
1395 37.8800 77.60 82.10 8.81
1396 37.9000 77.90 75.43 8.83
1397 37.9200 73.80 72.27 8.59
1398 37.9400 51.60 68.96 7.18
1399 37.9600 55.60 62.03 7.46
1400 37.9800 44.10 55.40 6.64
1401 38.0000 39.70 51.21 6.30
1402 38.0200 42.70 48.81 6.53
1403 38.0400 32.00 47.39 5.66
1404 38.0600 39.60 46.47 6.29
1405 38.0800 43.80 45.85 6.62
1406 38.1000 44.90 45.36 6.70
1407 38.1200 45.90 44.97 6.77
1408 38.1400 36.60 44.65 6.05
1409 38.1600 42.20 44.39 6.50
1410 38.1800 45.20 44.29 6.72
1411 38.2000 44.00 44.06 6.63
1412 38.2200 35.00 43.90 5.92
1413 38.2400 32.30 43.77 5.68
1414 38.2600 36.10 43.65 6.01
1415 38.2800 36.50 43.52 6.04
1416 38.3000 34.30 43.43 5.86
1417 38.3200 28.10 43.53 5.30
1418 38.3400 42.70 43.47 6.53
1419 38.3600 40.40 43.42 6.36
1420 38.3800 40.10 43.32 6.33
1421 38.4000 39.30 43.30 6.27
1422 38.4200 44.70 43.80 6.69
1423 38.4400 33.50 43.86 5.79
1424 38.4600 32.40 43.84 5.69
1425 38.4800 40.00 43.94 6.32
1426 38.5000 39.50 44.11 6.28
1427 38.5200 39.90 44.31 6.32
1428 38.5400 42.30 44.62 6.50
1429 38.5600 42.30 44.98 6.50
1430 38.5800 34.20 45.55 5.85
1431 38.6000 35.90 46.39 5.99
1432 38.6200 45.50 47.72 6.75
1433 38.6400 39.50 50.00 6.28
1434 38.6600 41.50 54.18 6.44
1435 38.6800 60.80 61.35 7.80
1436 38.7000 75.20 70.70 8.67
1437 38.7200 71.60 76.18 8.46
1438 38.7400 72.20 71.87 8.50
1439 38.7600 56.50 65.71 7.52
1440 38.7800 53.50 64.31 7.31
1441 38.8000 53.30 67.18 7.30
1442 38.8200 51.20 70.39 7.16
1443 38.8400 64.90 70.86 8.06
1444 38.8600 75.10 73.59 8.67
1445 38.8800 90.30 84.78 9.50
1446 38.9000 120.90 108.95 11.00
1447 38.9200 149.40 144.66 12.22
1448 38.9400 192.10 170.63 13.86
1449 38.9600 163.30 156.14 12.78
1450 38.9800 138.40 124.49 11.76
1451 39.0000 105.80 109.03 10.29
1452 39.0200 113.10 111.16 10.63
1453 39.0400 104.10 115.63 10.20
1454 39.0600 103.40 102.99 10.17
1455 39.0800 90.30 81.42 9.50
1456 39.1000 62.30 65.81 7.89
1457 39.1200 36.80 56.86 6.07
1458 39.1400 50.70 51.91 7.12
1459 39.1600 47.20 48.97 6.87
1460 39.1800 44.70 47.04 6.69
1461 39.2000 36.80 45.67 6.07
1462 39.2200 47.40 44.65 6.88
1463 39.2400 32.40 43.86 5.69
1464 39.2600 42.80 43.24 6.54
1465 39.2800 36.00 42.73 6.00
1466 39.3000 32.40 42.31 5.69
1467 39.3200 34.20 41.95 5.85
1468 39.3400 41.80 41.65 6.47
1469 39.3600 31.90 41.29 5.65
1470 39.3800 38.60 41.06 6.21
1471 39.4000 36.20 40.85 6.02
1472 39.4200 29.40 40.67 5.42
1473 39.4400 29.00 40.50 5.39
1474 39.4600 41.60 40.30 6.45
1475 39.4800 40.80 40.16 6.39
1476 39.5000 38.50 40.03 6.20
1477 39.5200 41.50 39.91 6.44
1478 39.5400 38.10 39.79 6.17
1479 39.5600 31.50 39.68 5.61
1480 39.5800 29.80 39.18 5.46
1481 39.6000 39.00 39.11 6.24
1482 39.6200 36.50 39.03 6.04
1483 39.6400 29.20 38.96 5.40
1484 39.6600 32.30 38.89 5.68
1485 39.6800 42.60 38.63 6.53
1486 39.7000 34.40 38.57 5.87
1487 39.7200 36.00 38.51 6.00
1488 39.7400 46.60 38.46 6.83
1489 39.7600 37.60 38.40 6.13
1490 39.7800 34.30 38.34 5.86
1491 39.8000 33.50 38.29 5.79
1492 39.8200 37.00 38.23 6.08
1493 39.8400 30.50 38.21 5.52
1494 39.8600 25.90 38.15 5.09
1495 39.8800 36.30 38.10 6.02
1496 39.9000 30.40 38.05 5.51
1497 39.9200 35.20 37.99 5.93
1498 39.9400 45.40 38.00 6.74
1499 39.9600 42.40 37.95 6.51
1500 39.9800 30.60 37.90 5.53
1501 40.0000 37.60 37.86 6.13
1502 40.0200 40.20 37.81 6.34
1503 40.0400 35.40 37.77 5.95
1504 40.0600 44.70 37.73 6.69
1505 40.0800 39.60 37.69 6.29
1506 40.1000 38.00 37.66 6.16
1507 40.1200 43.40 37.63 6.59
1508 40.1400 31.60 37.60 5.62
1509 40.1600 32.80 37.58 5.73
1510 40.1800 30.70 37.57 5.54
1511 40.2000 31.90 37.57 5.65
1512 40.2200 40.80 37.60 6.39
1513 40.2400 37.90 37.65 6.16
1514 40.2600 38.40 37.76 6.20
1515 40.2800 42.90 37.94 6.55
1516 40.3000 39.10 38.13 6.25
1517 40.3200 38.00 38.26 6.16
1518 40.3400 31.10 38.36 5.58
1519 40.3600 29.50 38.64 5.43
1520 40.3800 36.80 39.23 6.07
1521 40.4000 37.90 40.33 6.16
1522 40.4200 40.80 42.33 6.39
1523 40.4400 43.20 45.83 6.57
1524 40.4600 54.00 50.66 7.35
1525 40.4800 50.70 53.72 7.12
1526 40.5000 46.40 51.31 6.81
1527 40.5200 46.60 47.09 6.83
1528 40.5400 51.40 45.05 7.17
1529 40.5600 41.70 45.32 6.46
1530 40.5800 32.10 46.10 5.67
1531 40.6000 50.70 44.75 7.12
1532 40.6200 44.20 41.87 6.65
1533 40.6400 35.70 39.66 5.97
1534 40.6600 45.90 38.32 6.77
1535 40.6800 36.40 37.54 6.03
1536 40.7000 42.00 37.07 6.48
1537 40.7200 37.80 36.74 6.15
1538 40.7400 41.40 36.65 6.43
1539 40.7600 39.00 36.47 6.24
1540 40.7800 36.60 36.33 6.05
1541 40.8000 35.80 36.22 5.98
1542 40.8200 41.60 36.12 6.45
1543 40.8400 30.30 36.04 5.50
1544 40.8600 32.80 36.42 5.73
1545 40.8800 40.50 36.39 6.36
1546 40.9000 37.90 36.38 6.16
1547 40.9200 32.90 36.65 5.74
1548 40.9400 32.20 36.69 5.67
1549 40.9600 41.50 36.75 6.44
1550 40.9800 40.30 36.83 6.35
1551 41.0000 38.40 37.23 6.20
1552 41.0200 43.20 37.40 6.57
1553 41.0400 36.70 37.62 6.06
1554 41.0600 41.70 37.90 6.46
1555 41.0800 39.90 38.30 6.32
1556 41.1000 34.30 38.87 5.86
1557 41.1200 39.30 39.71 6.27
1558 41.1400 38.90 40.76 6.24
1559 41.1600 38.60 41.86 6.21
1560 41.1800 39.90 42.77 6.32
1561 41.2000 39.30 44.17 6.27
1562 41.2200 46.20 46.96 6.80
1563 41.2400 47.70 52.00 6.91
1564 41.2600 53.30 59.58 7.30
1565 41.2800 66.10 66.93 8.13
1566 41.3000 63.70 68.41 7.98
1567 41.3200 64.50 66.30 8.03
1568 41.3400 61.20 68.64 7.82
1569 41.3600 90.80 78.56 9.53
1570 41.3800 79.30 94.44 8.91
1571 41.4000 91.40 107.62 9.56
1572 41.4200 98.70 113.08 9.93
1573 41.4400 118.20 124.61 10.87
1574 41.4600 117.70 144.30 10.85
1575 41.4800 126.50 152.66 11.25
1576 41.5000 114.80 146.14 10.71
1577 41.5200 128.10 146.14 11.32
1578 41.5400 148.20 157.87 12.17
1579 41.5600 141.50 163.77 11.90
1580 41.5800 125.80 146.31 11.22
1581 41.6000 99.90 118.75 9.99
1582 41.6200 79.70 99.47 8.93
1583 41.6400 84.80 93.46 9.21
1584 41.6600 81.40 90.95 9.02
1585 41.6800 65.40 80.48 8.09
1586 41.7000 69.00 66.14 8.31
1587 41.7200 47.40 55.96 6.88
1588 41.7400 41.50 49.90 6.44
1589 41.7600 39.20 46.38 6.26
1590 41.7800 37.00 44.23 6.08
1591 41.8000 37.00 42.86 6.08
1592 41.8200 35.30 41.99 5.94
1593 41.8400 34.80 41.49 5.90
1594 41.8600 38.40 41.31 6.20
1595 41.8800 34.00 41.44 5.83
1596 41.9000 32.00 41.94 5.66
1597 41.9200 34.80 42.95 5.90
1598 41.9400 38.40 44.74 6.20
1599 41.9600 39.60 48.17 6.29
1600 41.9800 53.90 54.18 7.34
1601 42.0000 52.30 63.04 7.23
1602 42.0200 64.30 70.87 8.02
1603 42.0400 65.70 70.60 8.11
1604 42.0600 63.20 65.86 7.95
1605 42.0800 64.00 65.61 8.00
1606 42.1000 71.30 72.37 8.44
1607 42.1200 73.90 85.57 8.60
1608 42.1400 96.50 99.40 9.82
1609 42.1600 96.10 107.03 9.80
1610 42.1800 125.70 115.17 11.21
1611 42.2000 132.00 138.42 11.49
1612 42.2200 150.50 172.24 12.27
1613 42.2400 158.30 184.16 12.58
1614 42.2600 135.50 156.69 11.64
1615 42.2800 101.50 124.08 10.07
1616 42.3000 97.00 108.34 9.85
1617 42.3200 105.20 109.66 10.26
1618 42.3400 93.00 113.96 9.64
1619 42.3600 85.80 101.50 9.26
1620 42.3800 64.30 79.14 8.02
1621 42.4000 59.00 62.23 7.68
1622 42.4200 50.70 52.10 7.12
1623 42.4400 44.90 46.22 6.70
1624 42.4600 48.50 42.63 6.96
1625 42.4800 34.60 40.24 5.88
1626 42.5000 45.70 38.54 6.76
1627 42.5200 36.20 37.28 6.02
1628 42.5400 35.50 36.30 5.96
1629 42.5600 36.90 35.53 6.07
1630 42.5800 32.70 34.91 5.72
1631 42.6000 30.90 34.39 5.56
1632 42.6200 32.00 33.96 5.66
1633 42.6400 39.40 33.59 6.28
1634 42.6600 45.40 33.27 6.74
1635 42.6800 36.40 32.99 6.03
1636 42.7000 33.80 32.65 5.81
1637 42.7200 33.10 32.44 5.75
1638 42.7400 40.20 32.24 6.34
1639 42.7600 40.30 32.07 6.35
1640 42.7800 44.10 31.91 6.64
1641 42.8000 42.60 31.72 6.53
1642 42.8200 36.80 31.49 6.07
1643 42.8400 35.40 31.37 5.95
1644 42.8600 31.70 31.26 5.63
1645 42.8800 32.00 31.16 5.66
1646 42.9000 29.20 30.63 5.40
1647 42.9200 33.70 30.52 5.81
1648 42.9400 37.80 30.45 6.15
1649 42.9600 44.50 30.39 6.67
1650 42.9800 46.20 30.34 6.80
1651 43.0000 50.80 30.28 7.13
1652 43.0200 42.90 30.02 6.55
1653 43.0400 43.20 29.98 6.57
1654 43.0600 40.90 29.93 6.40
1655 43.0800 27.80 29.89 5.27
1656 43.1000 40.00 29.85 6.32
1657 43.1200 37.00 29.81 6.08
1658 43.1400 37.80 29.77 6.15
1659 43.1600 33.00 29.73 5.74
1660 43.1800 41.80 29.69 6.47
1661 43.2000 37.00 29.64 6.08
1662 43.2200 43.60 29.60 6.60
1663 43.2400 45.60 29.56 6.75
1664 43.2600 40.90 29.52 6.40
1665 43.2800 33.30 29.48 5.77
1666 43.3000 34.00 29.44 5.83
1667 43.3200 36.60 29.40 6.05
1668 43.3400 19.90 29.36 4.46
1669 43.3600 29.50 29.32 5.43
1670 43.3800 31.10 29.28 5.58
1671 43.4000 35.80 29.24 5.98
1672 43.4200 24.70 29.21 4.97
1673 43.4400 27.00 29.17 5.20
1674 43.4600 40.10 29.13 6.33
1675 43.4800 37.50 29.09 6.12
1676 43.5000 33.10 29.05 5.75
1677 43.5200 41.60 29.01 6.45
1678 43.5400 36.20 28.97 6.02
1679 43.5600 30.50 28.94 5.52
1680 43.5800 31.50 28.90 5.61
1681 43.6000 34.80 28.86 5.90
1682 43.6200 28.70 28.82 5.36
1683 43.6400 36.30 28.78 6.02
1684 43.6600 41.40 28.75 6.43
1685 43.6800 29.90 28.71 5.47
1686 43.7000 28.80 28.67 5.37
1687 43.7200 32.20 28.64 5.67
1688 43.7400 29.10 28.60 5.39
1689 43.7600 31.90 28.56 5.65
1690 43.7800 25.20 28.53 5.02
1691 43.8000 38.40 28.49 6.20
1692 43.8200 31.70 28.45 5.63
1693 43.8400 35.30 28.42 5.94
1694 43.8600 34.40 28.41 5.87
1695 43.8800 32.40 28.38 5.69
1696 43.9000 22.80 28.35 4.77
1697 43.9200 39.40 28.31 6.28
1698 43.9400 35.00 28.28 5.92
1699 43.9600 35.20 28.25 5.93
1700 43.9800 26.00 28.30 5.10
1701 44.0000 35.30 28.30 5.94
1702 44.0200 32.10 28.28 5.67
1703 44.0400 32.50 28.25 5.70
1704 44.0600 33.80 28.23 5.81
1705 44.0800 35.70 28.22 5.97
1706 44.1000 36.70 28.31 6.06
1707 44.1200 28.70 28.30 5.36
1708 44.1400 24.00 28.30 4.90
1709 44.1600 27.10 28.39 5.21
1710 44.1800 35.50 28.41 5.96
1711 44.2000 30.50 28.43 5.52
1712 44.2200 26.00 28.46 5.10
1713 44.2400 26.40 28.50 5.14
1714 44.2600 32.70 28.55 5.72
1715 44.2800 31.20 28.62 5.59
1716 44.3000 31.50 28.72 5.61
1717 44.3200 22.20 28.84 4.71
1718 44.3400 32.20 29.00 5.67
1719 44.3600 35.90 29.21 5.99
1720 44.3800 31.80 29.50 5.64
1721 44.4000 33.00 29.89 5.74
1722 44.4200 28.00 30.47 5.29
1723 44.4400 28.20 31.34 5.31
1724 44.4600 29.40 32.76 5.42
1725 44.4800 28.80 35.19 5.37
1726 44.5000 42.20 39.21 6.50
1727 44.5200 38.10 44.69 6.17
1728 44.5400 52.90 48.60 7.27
1729 44.5600 58.90 47.46 7.67
1730 44.5800 53.30 44.59 7.30
1731 44.6000 47.00 44.14 6.86
1732 44.6200 56.70 47.45 7.53
1733 44.6400 49.50 53.83 7.04
1734 44.6600 58.00 58.81 7.62
1735 44.6800 52.10 58.46 7.22
1736 44.7000 50.70 57.70 7.12
1737 44.7200 46.20 58.64 6.80
1738 44.7400 56.80 56.48 7.54
1739 44.7600 48.30 51.64 6.95
1740 44.7800 42.30 47.66 6.50
1741 44.8000 35.50 44.51 5.96
1742 44.8200 37.80 43.13 6.15
1743 44.8400 33.00 42.53 5.74
1744 44.8600 40.70 39.83 6.38
1745 44.8800 37.90 35.99 6.16
1746 44.9000 45.70 33.04 6.76
1747 44.9200 32.20 31.20 5.67
1748 44.9400 37.20 30.07 6.10
1749 44.9600 26.80 29.33 5.18
1750 44.9800 28.40 28.83 5.33
1751 45.0000 25.40 28.76 5.04
1752 45.0200 25.10 28.49 5.01
1753 45.0400 33.00 28.38 5.74
1754 45.0600 26.70 28.23 5.17
1755 45.0800 31.50 28.11 5.61
1756 45.1000 23.80 28.03 4.88
1757 45.1200 18.30 27.97 4.28
1758 45.1400 24.40 27.93 4.94
1759 45.1600 27.30 27.91 5.22
1760 45.1800 30.20 27.91 5.50
1761 45.2000 29.20 27.93 5.40
1762 45.2200 25.00 27.91 5.00
1763 45.2400 20.80 27.98 4.56
1764 45.2600 30.70 28.08 5.54
1765 45.2800 27.20 28.21 5.22
1766 45.3000 24.00 28.38 4.90
1767 45.3200 28.30 28.60 5.32
1768 45.3400 25.90 28.87 5.09
1769 45.3600 26.00 29.20 5.10
1770 45.3800 26.80 29.70 5.18
1771 45.4000 28.50 30.38 5.34
1772 45.4200 29.30 31.24 5.41
1773 45.4400 31.60 32.56 5.62
1774 45.4600 43.20 34.48 6.57
1775 45.4800 33.20 37.54 5.76
1776 45.5000 35.40 42.66 5.95
1777 45.5200 47.40 51.44 6.88
1778 45.5400 62.30 65.70 7.89
1779 45.5600 76.40 83.56 8.74
1780 45.5800 75.90 93.14 8.71
1781 45.6000 81.60 87.20 9.03
1782 45.6200 73.20 76.44 8.56
1783 45.6400 59.00 67.10 7.68
1784 45.6600 55.80 63.59 7.47
1785 45.6800 63.00 65.62 7.94
1786 45.7000 63.00 65.83 7.94
1787 45.7200 67.00 59.69 8.19
1788 45.7400 42.20 51.71 6.50
1789 45.7600 46.90 44.01 6.85
1790 45.7800 35.10 38.17 5.92
1791 45.8000 26.30 34.47 5.13
1792 45.8200 28.00 32.18 5.29
1793 45.8400 30.90 30.71 5.56
1794 45.8600 34.60 29.72 5.88
1795 45.8800 26.00 29.00 5.10
1796 45.9000 34.40 28.46 5.87
1797 45.9200 28.60 28.05 5.35
1798 45.9400 21.20 27.73 4.60
1799 45.9600 24.20 27.47 4.92
1800 45.9800 21.50 27.27 4.64
1801 46.0000 18.30 27.19 4.28
1802 46.0200 18.80 27.07 4.34
1803 46.0400 20.80 26.98 4.56
1804 46.0600 35.10 26.91 5.92
1805 46.0800 34.30 26.88 5.86
1806 46.1000 32.10 26.88 5.67
1807 46.1200 27.20 26.91 5.22
1808 46.1400 22.20 26.99 4.71
1809 46.1600 19.60 27.13 4.43
1810 46.1800 28.50 27.36 5.34
1811 46.2000 29.20 27.72 5.40
1812 46.2200 24.60 28.30 4.96
1813 46.2400 28.70 29.28 5.36
1814 46.2600 36.00 30.99 6.00
1815 46.2800 35.70 33.68 5.97
1816 46.3000 35.50 37.74 5.96
1817 46.3200 31.80 40.63 5.64
1818 46.3400 24.60 39.23 4.96
1819 46.3600 47.70 35.70 6.91
1820 46.3800 38.10 33.44 6.17
1821 46.4000 24.90 33.04 4.99
1822 46.4200 29.00 34.10 5.39
1823 46.4400 28.10 35.24 5.30
1824 46.4600 30.20 34.70 5.50
1825 46.4800 29.30 33.30 5.41
1826 46.5000 33.30 32.97 5.77
1827 46.5200 43.30 34.36 6.58
1828 46.5400 32.50 37.72 5.70
1829 46.5600 39.60 40.81 6.29
1830 46.5800 31.40 40.25 5.60
1831 46.6000 27.20 36.73 5.22
1832 46.6200 31.70 33.86 5.63
1833 46.6400 30.30 32.80 5.50
1834 46.6600 25.90 33.28 5.09
1835 46.6800 24.00 34.29 4.90
1836 46.7000 27.90 33.86 5.28
1837 46.7200 27.90 31.98 5.28
1838 46.7400 28.30 30.07 5.32
1839 46.7600 29.00 28.89 5.39
1840 46.7800 29.00 28.24 5.39
1841 46.8000 31.10 27.91 5.58
1842 46.8200 29.10 27.78 5.39
1843 46.8400 36.60 27.79 6.05
1844 46.8600 33.00 27.91 5.74
1845 46.8800 32.00 28.14 5.66
1846 46.9000 29.20 28.49 5.40
1847 46.9200 26.20 28.98 5.12
1848 46.9400 32.60 29.68 5.71
1849 46.9600 44.00 30.65 6.63
1850 46.9800 32.00 32.06 5.66
1851 47.0000 31.30 34.15 5.59
1852 47.0200 24.60 37.47 4.96
1853 47.0400 41.50 42.93 6.44
1854 47.0600 65.60 52.25 8.10
1855 47.0800 52.60 66.78 7.25
1856 47.1000 72.50 82.74 8.51
1857 47.1200 80.30 86.27 8.96
1858 47.1400 78.80 74.27 8.88
1859 47.1600 50.90 62.35 7.13
1860 47.1800 65.70 57.69 8.11
1861 47.2000 60.40 60.19 7.77
1862 47.2200 54.10 67.58 7.36
1863 47.2400 66.50 73.53 8.15
1864 47.2600 60.70 74.91 7.79
1865 47.2800 74.50 78.20 8.63
1866 47.3000 52.10 81.24 7.22
1867 47.3200 56.20 73.71 7.50
1868 47.3400 48.60 60.64 6.97
1869 47.3600 36.70 51.74 6.06
1870 47.3800 46.40 48.58 6.81
1871 47.4000 46.70 49.95 6.83
1872 47.4200 41.00 52.46 6.40
1873 47.4400 40.00 50.05 6.32
1874 47.4600 34.50 43.15 5.87
1875 47.4800 40.20 37.09 6.34
1876 47.5000 31.00 33.18 5.57
1877 47.5200 35.90 30.77 5.99
1878 47.5400 35.60 29.24 5.97
1879 47.5600 27.20 28.20 5.22
1880 47.5800 23.40 27.46 4.84
1881 47.6000 31.30 26.90 5.59
1882 47.6200 20.00 26.47 4.47
1883 47.6400 32.40 26.13 5.69
1884 47.6600 19.40 25.85 4.40
1885 47.6800 25.60 25.62 5.06
1886 47.7000 21.60 25.42 4.65
1887 47.7200 23.50 25.25 4.85
1888 47.7400 28.00 25.10 5.29
1889 47.7600 26.50 24.98 5.15
1890 47.7800 19.50 24.88 4.42
1891 47.8000 26.00 24.77 5.10
1892 47.8200 24.60 24.48 4.96
1893 47.8400 24.30 24.41 4.93
1894 47.8600 24.10 24.34 4.91
1895 47.8800 33.30 24.28 5.77
1896 47.9000 20.50 24.23 4.53
1897 47.9200 24.10 24.24 4.91
1898 47.9400 24.30 24.19 4.93
1899 47.9600 30.00 24.06 5.48
1900 47.9800 32.80 24.03 5.73
1901 48.0000 28.10 24.00 5.30
1902 48.0200 29.90 23.87 5.47
1903 48.0400 27.40 23.86 5.23
1904 48.0600 34.90 23.85 5.91
1905 48.0800 21.10 23.84 4.59
1906 48.1000 24.10 23.84 4.91
1907 48.1200 19.50 23.84 4.42
1908 48.1400 23.60 23.76 4.86
1909 48.1600 28.00 23.77 5.29
1910 48.1800 25.00 23.78 5.00
1911 48.2000 24.00 23.80 4.90
1912 48.2200 26.00 23.83 5.10
1913 48.2400 26.60 23.86 5.16
1914 48.2600 23.40 23.90 4.84
1915 48.2800 20.00 23.96 4.47
1916 48.3000 30.80 24.03 5.55
1917 48.3200 28.10 24.13 5.30
1918 48.3400 28.50 24.26 5.34
1919 48.3600 26.40 24.45 5.14
1920 48.3800 28.90 24.71 5.38
1921 48.4000 30.70 25.10 5.54
1922 48.4200 23.00 25.73 4.80
1923 48.4400 32.20 26.74 5.67
1924 48.4600 27.20 28.37 5.22
1925 48.4800 27.90 30.58 5.28
1926 48.5000 41.30 32.24 6.43
1927 48.5200 33.20 32.01 5.76
1928 48.5400 34.70 31.28 5.89
1929 48.5600 27.20 31.82 5.22
1930 48.5800 28.60 34.15 5.35
1931 48.6000 47.80 37.53 6.91
1932 48.6200 41.70 38.92 6.46
1933 48.6400 38.70 36.41 6.22
1934 48.6600 43.10 32.81 6.57
1935 48.6800 36.00 30.49 6.00
1936 48.7000 32.60 29.78 5.71
1937 48.7200 27.80 30.17 5.27
1938 48.7400 21.50 30.48 4.64
1939 48.7600 27.10 29.36 5.21
1940 48.7800 21.00 27.52 4.58
1941 48.8000 36.10 26.09 6.01
1942 48.8200 25.60 25.34 5.06
1943 48.8400 17.00 24.78 4.12
1944 48.8600 25.10 24.52 5.01
1945 48.8800 20.20 24.28 4.49
1946 48.9000 16.10 24.12 4.01
1947 48.9200 26.60 24.00 5.16
1948 48.9400 22.00 23.91 4.69
1949 48.9600 25.70 23.85 5.07
1950 48.9800 30.60 23.81 5.53
1951 49.0000 20.40 23.79 4.52
1952 49.0200 26.50 23.78 5.15
1953 49.0400 23.80 23.79 4.88
1954 49.0600 27.60 23.81 5.25
1955 49.0800 25.10 23.85 5.01
1956 49.1000 32.10 23.90 5.67
1957 49.1200 17.50 23.98 4.18
1958 49.1400 18.10 24.08 4.25
1959 49.1600 17.00 24.21 4.12
1960 49.1800 17.80 24.38 4.22
1961 49.2000 21.90 24.59 4.68
1962 49.2200 22.00 24.88 4.69
1963 49.2400 29.00 25.23 5.39
1964 49.2600 23.70 25.74 4.87
1965 49.2800 23.00 26.44 4.80
1966 49.3000 34.00 27.45 5.83
1967 49.3200 29.80 28.93 5.46
1968 49.3400 20.80 31.21 4.56
1969 49.3600 27.00 34.98 5.20
1970 49.3800 33.60 41.18 5.80
1971 49.4000 51.00 50.41 7.14
1972 49.4200 56.00 60.24 7.48
1973 49.4400 54.40 64.40 7.38
1974 49.4600 53.30 59.87 7.30
1975 49.4800 53.90 51.05 7.34
1976 49.5000 31.30 44.93 5.59
1977 49.5200 39.30 43.27 6.27
1978 49.5400 34.50 44.92 5.87
1979 49.5600 36.60 46.69 6.05
1980 49.5800 34.60 45.33 5.88
1981 49.6000 34.90 40.28 5.91
1982 49.6200 39.80 34.83 6.31
1983 49.6400 30.10 30.99 5.49
1984 49.6600 32.60 28.83 5.71
1985 49.6800 22.40 27.43 4.73
1986 49.7000 27.60 26.48 5.25
1987 49.7200 28.00 25.84 5.29
1988 49.7400 25.50 25.40 5.05
1989 49.7600 22.60 25.09 4.75
1990 49.7800 18.80 24.88 4.34
1991 49.8000 17.90 24.74 4.23
1992 49.8200 18.40 24.66 4.29
1993 49.8400 18.00 24.64 4.24
1994 49.8600 17.30 24.66 4.16
1995 49.8800 24.20 24.73 4.92
1996 49.9000 30.60 24.86 5.53
1997 49.9200 22.70 25.04 4.76
1998 49.9400 26.40 25.31 5.14
1999 49.9600 20.90 25.69 4.57
2000 49.9800 20.40 26.23 4.52
2001 50.0000 20.10 26.99 4.48
2002 50.0200 31.40 28.01 5.60
2003 50.0400 26.00 29.18 5.10
2004 50.0600 29.50 30.36 5.43
2005 50.0800 35.80 31.95 5.98
2006 50.1000 29.90 34.61 5.47
2007 50.1200 35.50 39.12 5.96
2008 50.1400 36.90 46.55 6.07
2009 50.1600 57.90 57.58 7.61
2010 50.1800 72.90 69.00 8.54
2011 50.2000 77.10 72.31 8.78
2012 50.2200 70.70 68.74 8.41
2013 50.2400 64.60 68.96 8.04
2014 50.2600 60.30 76.63 7.77
2015 50.2800 61.70 86.07 7.85
2016 50.3000 71.30 86.51 8.44
2017 50.3200 64.90 77.88 8.06
2018 50.3400 57.60 66.32 7.59
2019 50.3600 48.80 57.20 6.99
2020 50.3800 53.10 53.32 7.29
2021 50.4000 57.80 53.77 7.60
2022 50.4200 51.20 53.36 7.16
2023 50.4400 34.20 47.74 5.85
2024 50.4600 29.30 40.38 5.41
2025 50.4800 22.00 34.90 4.69
2026 50.5000 27.00 31.40 5.20
2027 50.5200 20.20 29.18 4.49
2028 50.5400 26.40 27.72 5.14
2029 50.5600 26.30 26.72 5.13
2030 50.5800 23.40 26.02 4.84
2031 50.6000 27.90 25.51 5.28
2032 50.6200 20.10 25.14 4.48
2033 50.6400 26.30 24.89 5.13
2034 50.6600 18.80 24.72 4.34
2035 50.6800 24.80 24.64 4.98
2036 50.7000 26.00 24.63 5.10
2037 50.7200 28.00 24.70 5.29
2038 50.7400 17.60 24.85 4.20
2039 50.7600 24.70 25.11 4.97
2040 50.7800 30.20 25.51 5.50
2041 50.8000 22.70 26.09 4.76
2042 50.8200 24.90 26.94 4.99
2043 50.8400 21.00 28.20 4.58
2044 50.8600 24.00 30.10 4.90
2045 50.8800 33.00 33.11 5.74
2046 50.9000 39.10 38.01 6.25
2047 50.9200 43.80 46.03 6.62
2048 50.9400 46.20 57.70 6.80
2049 50.9600 52.70 69.09 7.26
2050 50.9800 64.70 70.24 8.04
2051 51.0000 70.50 61.89 8.40
2052 51.0200 44.60 52.74 6.68
2053 51.0400 46.40 46.65 6.81
2054 51.0600 41.30 45.27 6.43
2055 51.0800 45.00 47.62 6.71
2056 51.1000 59.10 50.03 7.69
2057 51.1200 36.90 47.39 6.07
2058 51.1400 31.60 41.35 5.62
2059 51.1600 34.40 35.50 5.87
2060 51.1800 27.90 30.99 5.28
2061 51.2000 30.00 28.07 5.48
2062 51.2200 30.20 26.19 5.50
2063 51.2400 24.70 24.94 4.97
2064 51.2600 33.10 24.07 5.75
2065 51.2800 28.40 23.43 5.33
2066 51.3000 19.10 22.95 4.37
2067 51.3200 28.10 22.58 5.30
2068 51.3400 21.00 22.28 4.58
2069 51.3600 28.40 22.03 5.33
2070 51.3800 24.00 21.83 4.90
2071 51.4000 21.20 21.66 4.60
2072 51.4200 17.20 21.51 4.15
2073 51.4400 22.50 21.38 4.74
2074 51.4600 28.00 21.27 5.29
2075 51.4800 28.90 21.17 5.38
2076 51.5000 25.30 21.07 5.03
2077 51.5200 23.90 20.99 4.89
2078 51.5400 22.00 20.92 4.69
2079 51.5600 23.60 20.85 4.86
2080 51.5800 28.90 20.78 5.38
2081 51.6000 19.50 20.72 4.42
2082 51.6200 27.60 20.67 5.25
2083 51.6400 25.20 20.61 5.02
2084 51.6600 26.60 20.56 5.16
2085 51.6800 18.60 20.52 4.31
2086 51.7000 15.50 20.47 3.94
2087 51.7200 19.00 20.27 4.36
2088 51.7400 20.90 20.23 4.57
2089 51.7600 20.10 20.17 4.48
2090 51.7800 22.70 20.14 4.76
2091 51.8000 19.10 20.11 4.37
2092 51.8200 27.00 20.08 5.20
2093 51.8400 18.90 20.06 4.35
2094 51.8600 17.10 19.95 4.14
2095 51.8800 23.80 19.92 4.88
2096 51.9000 19.60 19.89 4.43
2097 51.9200 17.20 19.86 4.15
2098 51.9400 18.00 19.84 4.24
2099 51.9600 17.60 19.82 4.20
2100 51.9800 17.60 19.79 4.20
2101 52.0000 14.60 19.77 3.82
2102 52.0200 22.10 19.75 4.70
2103 52.0400 17.10 19.72 4.14
2104 52.0600 22.70 19.70 4.76
2105 52.0800 27.10 19.68 5.21
2106 52.1000 23.30 19.65 4.83
2107 52.1200 15.90 19.64 3.99
2108 52.1400 19.80 19.62 4.45
2109 52.1600 31.70 19.59 5.63
2110 52.1800 19.60 19.57 4.43
2111 52.2000 24.00 19.55 4.90
2112 52.2200 24.20 19.52 4.92
2113 52.2400 23.00 19.50 4.80
2114 52.2600 23.70 19.51 4.87
2115 52.2800 21.30 19.48 4.62
2116 52.3000 20.00 19.46 4.47
2117 52.3200 29.60 19.44 5.44
2118 52.3400 18.00 19.44 4.24
2119 52.3600 17.20 19.42 4.15
2120 52.3800 24.00 19.41 4.90
2121 52.4000 15.70 19.39 3.96
2122 52.4200 18.70 19.37 4.32
2123 52.4400 19.20 19.36 4.38
2124 52.4600 22.30 19.34 4.72
2125 52.4800 15.10 19.40 3.89
2126 52.5000 18.10 19.39 4.25
2127 52.5200 22.90 19.38 4.79
2128 52.5400 19.30 19.38 4.39
2129 52.5600 30.90 19.39 5.56
2130 52.5800 20.40 19.40 4.52
2131 52.6000 15.50 19.40 3.94
2132 52.6200 15.40 19.42 3.92
2133 52.6400 14.30 19.44 3.78
2134 52.6600 20.90 19.47 4.57
2135 52.6800 21.10 19.51 4.59
2136 52.7000 20.20 19.58 4.49
2137 52.7200 26.10 19.66 5.11
2138 52.7400 24.00 19.78 4.90
2139 52.7600 29.70 19.96 5.45
2140 52.7800 26.10 20.22 5.11
2141 52.8000 26.70 20.62 5.17
2142 52.8200 22.70 21.28 4.76
2143 52.8400 31.40 22.30 5.60
2144 52.8600 25.70 23.74 5.07
2145 52.8800 22.70 25.02 4.76
2146 52.9000 29.70 24.95 5.45
2147 52.9200 26.10 23.84 5.11
2148 52.9400 24.20 22.93 4.92
2149 52.9600 15.40 22.68 3.92
2150 52.9800 25.10 22.98 5.01
2151 53.0000 23.30 23.84 4.83
2152 53.0200 25.60 25.03 5.06
2153 53.0400 30.10 26.15 5.49
2154 53.0600 37.00 27.44 6.08
2155 53.0800 37.60 29.66 6.13
2156 53.1000 35.60 31.90 5.97
2157 53.1200 34.40 31.77 5.87
2158 53.1400 34.80 29.75 5.90
2159 53.1600 31.00 28.31 5.57
2160 53.1800 32.80 27.95 5.73
2161 53.2000 31.60 27.78 5.62
2162 53.2200 30.90 27.59 5.56
2163 53.2400 24.70 27.61 4.97
2164 53.2600 25.90 26.97 5.09
2165 53.2800 32.30 25.41 5.68
2166 53.3000 29.40 24.16 5.42
2167 53.3200 30.00 23.49 5.48
2168 53.3400 30.00 22.86 5.48
2169 53.3600 29.00 22.25 5.39
2170 53.3800 33.60 21.57 5.80
2171 53.4000 23.10 21.14 4.81
2172 53.4200 25.00 20.94 5.00
2173 53.4400 23.50 20.90 4.85
2174 53.4600 23.00 21.01 4.80
2175 53.4800 23.40 21.28 4.84
2176 53.5000 20.70 21.76 4.55
2177 53.5200 29.10 22.54 5.39
2178 53.5400 31.30 23.82 5.59
2179 53.5600 22.50 25.85 4.74
2180 53.5800 30.80 28.66 5.55
2181 53.6000 34.70 31.11 5.89
2182 53.6200 33.10 31.42 5.75
2183 53.6400 31.80 30.65 5.64
2184 53.6600 32.80 30.47 5.73
2185 53.6800 25.40 30.41 5.04
2186 53.7000 28.30 30.07 5.32
2187 53.7200 32.60 30.53 5.71
2188 53.7400 37.40 31.98 6.12
2189 53.7600 38.00 33.24 6.16
2190 53.7800 34.30 33.38 5.86
2191 53.8000 28.90 32.45 5.38
2192 53.8200 32.50 31.38 5.70
2193 53.8400 34.00 30.77 5.83
2194 53.8600 34.90 31.10 5.91
2195 53.8800 38.50 32.39 6.20
2196 53.9000 41.70 34.55 6.46
2197 53.9200 40.30 37.75 6.35
2198 53.9400 41.60 42.51 6.45
2199 53.9600 39.10 50.22 6.25
2200 53.9800 62.40 59.88 7.90
2201 54.0000 65.10 63.84 8.07
2202 54.0200 63.70 57.15 7.98
2203 54.0400 58.70 47.41 7.66
2204 54.0600 41.10 40.76 6.41
2205 54.0800 39.60 37.89 6.29
2206 54.1000 33.80 38.43 5.81
2207 54.1200 36.40 41.24 6.03
2208 54.1400 43.50 42.82 6.60
2209 54.1600 36.90 39.41 6.07
2210 54.1800 35.80 33.54 5.98
2211 54.2000 31.20 28.76 5.59
2212 54.2200 29.80 25.60 5.46
2213 54.2400 22.40 23.57 4.73
2214 54.2600 17.90 22.21 4.23
2215 54.2800 25.00 21.28 5.00
2216 54.3000 22.50 20.61 4.74
2217 54.3200 12.90 20.11 3.59
2218 54.3400 21.90 19.73 4.68
2219 54.3600 25.00 19.44 5.00
2220 54.3800 23.00 19.21 4.80
2221 54.4000 19.20 19.00 4.38
2222 54.4200 18.80 18.86 4.34
2223 54.4400 16.40 18.76 4.05
2224 54.4600 26.30 18.67 5.13
2225 54.4800 21.10 18.63 4.59
2226 54.5000 18.90 18.63 4.35
2227 54.5200 22.20 18.65 4.71
2228 54.5400 21.00 18.70 4.58
2229 54.5600 19.40 18.82 4.40
2230 54.5800 35.60 18.99 5.97
2231 54.6000 10.70 19.28 3.27
2232 54.6200 23.80 19.71 4.88
2233 54.6400 25.80 20.37 5.08
2234 54.6600 21.00 21.41 4.58
2235 54.6800 19.10 23.07 4.37
2236 54.7000 23.40 25.71 4.84
2237 54.7200 22.40 29.45 4.73
2238 54.7400 30.50 32.94 5.52
2239 54.7600 27.50 33.04 5.24
2240 54.7800 30.80 29.83 5.55
2241 54.8000 24.00 26.41 4.90
2242 54.8200 18.00 24.51 4.24
2243 54.8400 20.70 23.97 4.55
2244 54.8600 19.30 24.57 4.39
2245 54.8800 17.10 25.76 4.14
2246 54.9000 30.40 26.01 5.51
2247 54.9200 30.70 24.41 5.54
2248 54.9400 24.40 22.17 4.94
2249 54.9600 23.00 20.52 4.80
2250 54.9800 21.20 19.43 4.60
2251 55.0000 21.40 18.71 4.63
2252 55.0200 27.50 18.24 5.24
2253 55.0400 18.50 17.91 4.30
2254 55.0600 19.90 17.66 4.46
2255 55.0800 19.00 17.48 4.36
2256 55.1000 17.40 17.33 4.17
2257 55.1200 13.40 17.21 3.66
2258 55.1400 17.50 17.12 4.18
2259 55.1600 20.70 17.04 4.55
2260 55.1800 23.80 16.97 4.88
2261 55.2000 18.10 16.91 4.25
2262 55.2200 19.80 16.86 4.45
2263 55.2400 22.90 16.82 4.79
2264 55.2600 21.30 16.78 4.62
2265 55.2800 11.40 16.74 3.38
2266 55.3000 13.90 16.71 3.73
2267 55.3200 13.30 16.68 3.65
2268 55.3400 17.00 16.66 4.12
2269 55.3600 19.60 16.64 4.43
2270 55.3800 21.80 16.63 4.67
2271 55.4000 19.90 16.61 4.46
2272 55.4200 18.00 16.60 4.24
2273 55.4400 16.70 16.59 4.09
2274 55.4600 20.10 16.58 4.48
2275 55.4800 18.80 16.58 4.34
2276 55.5000 16.20 16.58 4.02
2277 55.5200 23.50 16.58 4.85
2278 55.5400 23.70 16.60 4.87
2279 55.5600 24.10 16.57 4.91
2280 55.5800 19.70 16.61 4.44
2281 55.6000 11.00 16.68 3.32
2282 55.6200 15.50 16.79 3.94
2283 55.6400 19.00 16.97 4.36
2284 55.6600 19.60 17.25 4.43
2285 55.6800 19.60 17.67 4.43
2286 55.7000 30.00 18.15 5.48
2287 55.7200 20.10 18.36 4.48
2288 55.7400 14.70 18.09 3.83
2289 55.7600 16.70 17.64 4.09
2290 55.7800 22.10 17.32 4.70
2291 55.8000 18.10 17.19 4.25
2292 55.8200 20.00 17.20 4.47
2293 55.8400 18.50 17.39 4.30
2294 55.8600 20.60 17.52 4.54
2295 55.8800 17.10 17.46 4.14
2296 55.9000 22.70 17.22 4.76
2297 55.9200 21.70 16.98 4.66
2298 55.9400 17.90 16.86 4.23
2299 55.9600 26.30 16.76 5.13
2300 55.9800 20.70 16.71 4.55
2301 56.0000 28.40 16.71 5.33
2302 56.0200 16.60 16.71 4.07
2303 56.0400 23.30 16.74 4.83
2304 56.0600 23.40 16.85 4.84
2305 56.0800 19.20 16.93 4.38
2306 56.1000 12.30 17.05 3.51
2307 56.1200 19.10 17.24 4.37
2308 56.1400 21.60 17.51 4.65
2309 56.1600 24.00 17.94 4.90
2310 56.1800 24.40 18.57 4.94
2311 56.2000 29.60 19.33 5.44
2312 56.2200 21.50 19.76 4.64
2313 56.2400 30.20 19.51 5.50
2314 56.2600 20.50 18.98 4.53
2315 56.2800 18.40 18.62 4.29
2316 56.3000 22.60 18.52 4.75
2317 56.3200 20.20 18.67 4.49
2318 56.3400 24.10 19.04 4.91
2319 56.3600 29.50 19.52 5.43
2320 56.3800 26.60 19.89 5.16
2321 56.4000 28.50 20.09 5.34
2322 56.4200 24.00 20.49 4.90
2323 56.4400 26.80 21.37 5.18
2324 56.4600 29.30 22.93 5.41
2325 56.4800 27.40 25.36 5.23
2326 56.5000 30.70 28.56 5.54
2327 56.5200 33.10 30.77 5.75
2328 56.5400 30.90 30.39 5.56
2329 56.5600 30.30 28.56 5.50
2330 56.5800 29.50 27.48 5.43
2331 56.6000 35.10 27.87 5.92
2332 56.6200 34.50 29.55 5.87
2333 56.6400 43.50 31.25 6.60
2334 56.6600 46.00 32.06 6.78
2335 56.6800 33.10 31.92 5.75
2336 56.7000 33.00 30.56 5.74
2337 56.7200 45.90 28.49 6.77
2338 56.7400 38.80 26.81 6.23
2339 56.7600 31.00 26.11 5.57
2340 56.7800 34.40 26.15 5.87
2341 56.8000 29.10 26.32 5.39
2342 56.8200 30.10 26.68 5.49
2343 56.8400 35.70 27.80 5.97
2344 56.8600 35.90 29.79 5.99
2345 56.8800 40.00 32.49 6.32
2346 56.9000 47.70 34.73 6.91
2347 56.9200 34.00 34.19 5.83
2348 56.9400 51.20 31.22 7.16
2349 56.9600 43.60 28.35 6.60
2350 56.9800 36.50 26.74 6.04
2351 57.0000 44.60 26.42 6.68
2352 57.0200 36.20 27.27 6.02
2353 57.0400 36.00 28.98 6.00
2354 57.0600 39.80 30.37 6.31
2355 57.0800 39.10 30.27 6.25
2356 57.1000 32.50 29.33 5.70
2357 57.1200 33.90 29.06 5.82
2358 57.1400 38.30 30.16 6.19
2359 57.1600 44.60 32.92 6.68
2360 57.1800 40.10 37.29 6.33
2361 57.2000 54.40 41.81 7.38
2362 57.2200 40.90 43.57 6.40
2363 57.2400 47.90 42.69 6.92
2364 57.2600 48.00 42.73 6.93
2365 57.2800 48.40 46.01 6.96
2366 57.3000 56.60 53.22 7.52
2367 57.3200 59.10 62.76 7.69
2368 57.3400 65.50 69.24 8.09
2369 57.3600 77.00 67.37 8.77
2370 57.3800 70.40 58.55 8.39
2371 57.4000 50.10 49.10 7.08
2372 57.4200 40.50 42.87 6.36
2373 57.4400 44.50 40.40 6.67
2374 57.4600 52.50 40.99 7.25
2375 57.4800 42.40 42.86 6.51
2376 57.5000 42.10 42.82 6.49
2377 57.5200 42.10 39.25 6.49
2378 57.5400 27.00 33.97 5.20
2379 57.5600 35.40 29.40 5.95
2380 57.5800 27.60 26.23 5.25
2381 57.6000 27.90 24.16 5.28
2382 57.6200 31.00 22.85 5.57
2383 57.6400 27.20 22.05 5.22
2384 57.6600 17.60 21.69 4.20
2385 57.6800 18.80 21.71 4.34
2386 57.7000 24.70 22.17 4.97
2387 57.7200 21.50 23.08 4.64
2388 57.7400 20.40 24.15 4.52
2389 57.7600 23.10 24.48 4.81
2390 57.7800 24.70 23.55 4.97
2391 57.8000 30.70 22.31 5.54
2392 57.8200 22.00 21.43 4.69
2393 57.8400 30.60 21.08 5.53
2394 57.8600 21.70 21.23 4.66
2395 57.8800 24.40 21.85 4.94
2396 57.9000 30.80 22.75 5.55
2397 57.9200 32.20 23.53 5.67
2398 57.9400 31.20 24.24 5.59
2399 57.9600 32.50 25.24 5.70
2400 57.9800 25.70 26.12 5.07
2401 58.0000 32.60 25.65 5.71
2402 58.0200 25.60 23.95 5.06
2403 58.0400 28.80 22.30 5.37
2404 58.0600 22.70 21.21 4.76
2405 58.0800 25.00 20.67 5.00
2406 58.1000 17.00 20.73 4.12
2407 58.1200 21.70 21.16 4.66
2408 58.1400 29.00 21.49 5.39
2409 58.1600 23.00 21.10 4.80
2410 58.1800 22.20 20.15 4.71
2411 58.2000 20.40 19.16 4.52
2412 58.2200 21.60 18.40 4.65
2413 58.2400 25.00 17.92 5.00
2414 58.2600 17.40 17.61 4.17
2415 58.2800 17.70 17.40 4.21
2416 58.3000 17.90 17.26 4.23
2417 58.3200 15.00 17.15 3.87
2418 58.3400 14.00 17.07 3.74
2419 58.3600 21.10 16.98 4.59
2420 58.3800 17.70 16.93 4.21
2421 58.4000 19.00 16.90 4.36
2422 58.4200 20.50 16.88 4.53
2423 58.4400 22.00 16.87 4.69
2424 58.4600 20.90 16.86 4.57
2425 58.4800 24.30 16.86 4.93
2426 58.5000 15.80 16.93 3.97
2427 58.5200 19.00 17.04 4.36
2428 58.5400 14.30 17.06 3.78
2429 58.5600 19.70 17.09 4.44
2430 58.5800 22.70 17.13 4.76
2431 58.6000 18.40 17.17 4.29
2432 58.6200 17.00 17.22 4.12
2433 58.6400 20.70 17.26 4.55
2434 58.6600 15.10 17.33 3.89
2435 58.6800 16.00 17.46 4.00
2436 58.7000 20.10 17.57 4.48
2437 58.7200 23.30 17.69 4.83
2438 58.7400 22.10 17.85 4.70
2439 58.7600 19.40 18.05 4.40
2440 58.7800 27.10 18.30 5.21
2441 58.8000 18.00 18.63 4.24
2442 58.8200 11.70 19.09 3.42
2443 58.8400 26.00 19.77 5.10
2444 58.8600 19.10 20.77 4.37
2445 58.8800 20.30 22.20 4.51
2446 58.9000 26.30 24.29 5.13
2447 58.9200 27.20 26.77 5.22
2448 58.9400 34.70 28.42 5.89
2449 58.9600 42.40 27.91 6.51
2450 58.9800 32.30 26.02 5.68
2451 59.0000 25.00 24.33 5.00
2452 59.0200 23.70 23.46 4.87
2453 59.0400 17.00 23.35 4.12
2454 59.0600 25.70 23.96 5.07
2455 59.0800 21.80 25.09 4.67
2456 59.1000 22.60 26.13 4.75
2457 59.1200 24.20 26.35 4.92
2458 59.1400 30.20 26.17 5.50
2459 59.1600 22.60 26.50 4.75
2460 59.1800 35.20 27.87 5.93
2461 59.2000 31.60 30.41 5.62
2462 59.2200 31.10 33.45 5.58
2463 59.2400 34.00 35.02 5.83
2464 59.2600 31.10 33.80 5.58
2465 59.2800 32.80 31.46 5.73
2466 59.3000 30.30 29.89 5.50
2467 59.3200 21.20 29.73 4.60
2468 59.3400 23.50 31.15 4.85
2469 59.3600 31.00 34.32 5.57
2470 59.3800 36.00 39.22 6.00
2471 59.4000 43.20 44.87 6.57
2472 59.4200 46.20 48.93 6.80
2473 59.4400 44.20 48.48 6.65
2474 59.4600 42.00 43.53 6.48
2475 59.4800 33.00 37.80 5.74
2476 59.5000 19.50 33.82 4.42
2477 59.5200 25.60 31.95 5.06
2478 59.5400 21.30 32.01 4.62
2479 59.5600 31.70 33.65 5.63
2480 59.5800 34.70 35.70 5.89
2481 59.6000 35.80 35.88 5.98
2482 59.6200 28.60 33.34 5.35
2483 59.6400 21.40 30.02 4.63
2484 59.6600 20.00 27.50 4.47
2485 59.6800 19.70 26.10 4.44
2486 59.7000 18.70 25.72 4.32
2487 59.7200 25.00 26.26 5.00
2488 59.7400 28.30 27.52 5.32
2489 59.7600 23.30 28.72 4.83
2490 59.7800 25.00 28.90 5.00
2491 59.8000 28.70 28.15 5.36
2492 59.8200 33.90 27.43 5.82
2493 59.8400 25.40 27.29 5.04
2494 59.8600 30.40 27.18 5.51
2495 59.8800 30.60 26.56 5.53
2496 59.9000 20.00 25.80 4.47
2497 59.9200 20.60 25.34 4.54
2498 59.9400 23.00 24.91 4.80
2499 59.9600 20.30 24.18 4.51
2500 59.9800 20.80 23.44 4.56
2501 60.0000 19.60 22.99 4.43
2502 60.0200 26.60 22.61 5.16
2503 60.0400 20.80 21.99 4.56
2504 60.0600 17.80 21.19 4.22
2505 60.0800 23.30 20.52 4.83
2506 60.1000 17.90 20.09 4.23
2507 60.1200 18.50 19.84 4.30
2508 60.1400 21.10 19.72 4.59
2509 60.1600 18.60 19.69 4.31
2510 60.1800 24.00 19.90 4.90
2511 60.2000 12.00 20.35 3.46
2512 60.2200 14.40 21.03 3.79
2513 60.2400 19.70 21.73 4.44
2514 60.2600 22.70 21.92 4.76
2515 60.2800 25.40 21.47 5.04
2516 60.3000 16.00 20.80 4.00
2517 60.3200 16.50 20.29 4.06
2518 60.3400 17.00 20.09 4.12
2519 60.3600 23.00 20.08 4.80
2520 60.3800 15.90 20.41 3.99
2521 60.4000 15.20 20.90 3.90
2522 60.4200 17.20 21.34 4.15
2523 60.4400 17.60 21.59 4.20
2524 60.4600 18.20 21.99 4.27
2525 60.4800 27.90 22.69 5.28
2526 60.5000 24.50 23.97 4.95
2527 60.5200 23.50 25.87 4.85
2528 60.5400 29.90 28.50 5.47
2529 60.5600 36.80 31.14 6.07
2530 60.5800 42.70 32.03 6.53
2531 60.6000 28.00 30.38 5.29
2532 60.6200 33.70 27.68 5.81
2533 60.6400 27.20 25.55 5.22
2534 60.6600 26.40 24.39 5.14
2535 60.6800 18.00 24.09 4.24
2536 60.7000 24.00 24.57 4.90
2537 60.7200 29.20 25.38 5.40
2538 60.7400 26.90 25.76 5.19
2539 60.7600 35.00 24.93 5.92
2540 60.7800 20.30 23.33 4.51
2541 60.8000 22.30 21.81 4.72
2542 60.8200 13.80 20.71 3.71
2543 60.8400 24.60 19.96 4.96
2544 60.8600 26.50 19.46 5.15
2545 60.8800 15.40 19.14 3.92
2546 60.9000 17.20 18.93 4.15
2547 60.9200 18.40 18.80 4.29
2548 60.9400 14.50 18.74 3.81
2549 60.9600 18.50 18.72 4.30
2550 60.9800 22.00 18.76 4.69
2551 61.0000 22.70 18.84 4.76
2552 61.0200 22.40 18.98 4.73
2553 61.0400 23.90 19.18 4.89
2554 61.0600 22.30 19.46 4.72
2555 61.0800 22.90 19.86 4.79
2556 61.1000 22.70 20.43 4.76
2557 61.1200 20.70 21.24 4.55
2558 61.1400 18.40 22.43 4.29
2559 61.1600 22.80 24.19 4.77
2560 61.1800 19.50 26.73 4.42
2561 61.2000 23.20 30.02 4.82
2562 61.2200 31.10 33.18 5.58
2563 61.2400 28.50 34.25 5.34
2564 61.2600 25.90 32.69 5.09
2565 61.2800 23.20 30.36 4.82
2566 61.3000 29.30 28.89 5.41
2567 61.3200 28.40 28.75 5.33
2568 61.3400 25.40 30.00 5.04
2569 61.3600 25.50 32.57 5.05
2570 61.3800 36.30 35.89 6.02
2571 61.4000 35.70 38.49 5.97
2572 61.4200 35.50 39.63 5.96
2573 61.4400 40.10 40.48 6.33
2574 61.4600 38.00 41.78 6.16
2575 61.4800 25.80 41.83 5.08
2576 61.5000 29.10 39.15 5.39
2577 61.5200 30.20 35.27 5.50
2578 61.5400 23.40 32.26 4.84
2579 61.5600 21.90 30.35 4.68
2580 61.5800 30.00 29.19 5.48
2581 61.6000 24.00 28.76 4.90
2582 61.6200 27.20 29.08 5.22
2583 61.6400 29.90 29.33 5.47
2584 61.6600 25.50 28.32 5.05
2585 61.6800 23.00 26.16 4.80
2586 61.7000 21.50 23.84 4.64
2587 61.7200 31.20 22.11 5.59
2588 61.7400 23.70 20.83 4.87
2589 61.7600 25.40 19.94 5.04
2590 61.7800 29.90 19.31 5.47
2591 61.8000 24.90 18.86 4.99
2592 61.8200 21.10 18.53 4.59
2593 61.8400 23.30 18.28 4.83
2594 61.8600 19.20 18.09 4.38
2595 61.8800 18.80 17.96 4.34
2596 61.9000 22.00 17.86 4.69
2597 61.9200 21.20 17.79 4.60
2598 61.9400 23.20 17.75 4.82
2599 61.9600 27.30 17.73 5.22
2600 61.9800 29.80 17.75 5.46
2601 62.0000 30.00 17.81 5.48
2602 62.0200 29.20 17.91 5.40
2603 62.0400 28.50 18.06 5.34
2604 62.0600 25.40 18.30 5.04
2605 62.0800 25.00 18.61 5.00
2606 62.1000 32.80 19.07 5.73
2607 62.1200 24.30 19.75 4.93
2608 62.1400 31.00 20.75 5.57
2609 62.1600 27.60 22.23 5.25
2610 62.1800 29.60 24.32 5.44
2611 62.2000 39.60 26.86 6.29
2612 62.2200 37.80 29.17 6.15
2613 62.2400 45.90 29.98 6.77
2614 62.2600 40.90 28.73 6.40
2615 62.2800 37.00 26.62 6.08
2616 62.3000 36.90 24.89 6.07
2617 62.3200 43.80 24.01 6.62
2618 62.3400 32.30 24.01 5.68
2619 62.3600 35.40 24.80 5.95
2620 62.3800 34.00 26.14 5.83
2621 62.4000 46.00 27.50 6.78
2622 62.4200 35.50 28.40 5.96
2623 62.4400 39.00 29.00 6.24
2624 62.4600 38.50 30.08 6.20
2625 62.4800 48.00 31.68 6.93
2626 62.5000 55.60 33.51 7.46
2627 62.5200 53.80 34.67 7.33
2628 62.5400 58.90 33.79 7.67
2629 62.5600 49.50 31.12 7.04
2630 62.5800 38.10 28.42 6.17
2631 62.6000 34.10 26.72 5.84
2632 62.6200 42.60 26.16 6.53
2633 62.6400 36.70 26.64 6.06
2634 62.6600 43.50 27.66 6.60
2635 62.6800 48.90 28.73 6.99
2636 62.7000 48.50 28.84 6.96
2637 62.7200 60.30 27.32 7.77
2638 62.7400 47.50 24.97 6.89
2639 62.7600 38.50 22.86 6.20
2640 62.7800 33.00 21.38 5.74
2641 62.8000 29.10 20.48 5.39
2642 62.8200 33.90 20.06 5.82
2643 62.8400 32.50 19.94 5.70
2644 62.8600 34.90 19.95 5.91
2645 62.8800 28.90 19.89 5.38
2646 62.9000 31.70 19.77 5.63
2647 62.9200 22.10 19.79 4.70
2648 62.9400 28.10 20.14 5.30
2649 62.9600 31.90 20.94 5.65
2650 62.9800 22.70 22.30 4.76
2651 63.0000 27.00 24.30 5.20
2652 63.0200 35.00 26.72 5.92
2653 63.0400 34.10 28.61 5.84
2654 63.0600 28.50 28.84 5.34
2655 63.0800 28.10 27.90 5.30
2656 63.1000 26.80 27.13 5.18
2657 63.1200 42.80 27.47 6.54
2658 63.1400 26.30 29.12 5.13
2659 63.1600 33.40 31.64 5.78
2660 63.1800 38.20 33.66 6.18
2661 63.2000 33.50 33.67 5.79
2662 63.2200 37.90 31.76 6.16
2663 63.2400 29.40 28.99 5.42
2664 63.2600 21.10 26.42 4.59
2665 63.2800 24.80 24.72 4.98
2666 63.3000 25.60 24.04 5.06
2667 63.3200 23.10 24.28 4.81
2668 63.3400 25.70 25.01 5.07
2669 63.3600 27.00 25.47 5.20
2670 63.3800 25.80 25.27 5.08
2671 63.4000 21.80 25.01 4.67
2672 63.4200 28.70 25.41 5.36
2673 63.4400 19.00 26.42 4.36
2674 63.4600 21.10 27.03 4.59
2675 63.4800 24.40 26.19 4.94
2676 63.5000 25.50 24.21 5.05
2677 63.5200 29.80 22.19 5.46
2678 63.5400 23.40 20.84 4.84
2679 63.5600 23.30 20.24 4.83
2680 63.5800 21.20 20.29 4.60
2681 63.6000 21.80 20.93 4.67
2682 63.6200 27.50 21.87 5.24
2683 63.6400 28.30 22.40 5.32
2684 63.6600 28.40 21.91 5.33
2685 63.6800 23.40 20.73 4.84
2686 63.7000 17.00 19.52 4.12
2687 63.7200 16.80 18.61 4.10
2688 63.7400 16.90 18.04 4.11
2689 63.7600 16.00 17.72 4.00
2690 63.7800 17.00 17.73 4.12
2691 63.8000 21.50 17.98 4.64
2692 63.8200 22.10 18.41 4.70
2693 63.8400 18.30 19.05 4.28
2694 63.8600 17.50 20.03 4.18
2695 63.8800 19.20 21.38 4.38
2696 63.9000 39.60 22.65 6.29
2697 63.9200 37.00 22.95 6.08
2698 63.9400 20.70 21.91 4.55
2699 63.9600 29.00 20.28 5.39
2700 63.9800 29.50 18.83 5.43
2701 64.0000 24.00 17.87 4.90
2702 64.0200 23.60 17.42 4.86
2703 64.0400 21.20 17.39 4.60
2704 64.0600 23.20 17.76 4.82
2705 64.0800 18.00 18.15 4.24
2706 64.1000 22.60 18.10 4.75
2707 64.1200 25.80 17.46 5.08
2708 64.1400 23.00 16.62 4.80
2709 64.1600 22.00 15.94 4.69
2710 64.1800 16.80 15.51 4.10
2711 64.2000 14.60 15.43 3.82
2712 64.2200 17.50 15.62 4.18
2713 64.2400 16.40 16.13 4.05
2714 64.2600 26.50 16.81 5.15
2715 64.2800 16.30 17.31 4.04
2716 64.3000 19.00 17.20 4.36
2717 64.3200 22.00 16.55 4.69
2718 64.3400 20.90 15.84 4.57
2719 64.3600 15.60 15.32 3.95
2720 64.3800 16.80 15.13 4.10
2721 64.4000 15.00 15.21 3.87
2722 64.4200 17.40 15.57 4.17
2723 64.4400 10.00 16.14 3.16
2724 64.4600 12.40 16.79 3.52
2725 64.4800 18.70 17.34 4.32
2726 64.5000 27.20 18.03 5.22
2727 64.5200 19.40 19.19 4.40
2728 64.5400 18.00 21.01 4.24
2729 64.5600 27.90 23.29 5.28
2730 64.5800 25.10 24.94 5.01
2731 64.6000 27.90 24.68 5.28
2732 64.6200 21.00 22.70 4.58
2733 64.6400 16.20 20.38 4.02
2734 64.6600 25.00 18.59 5.00
2735 64.6800 21.40 17.57 4.63
2736 64.7000 20.00 17.27 4.47
2737 64.7200 14.20 17.56 3.77
2738 64.7400 14.80 18.23 3.85
2739 64.7600 19.40 18.69 4.40
2740 64.7800 12.70 18.25 3.56
2741 64.8000 16.40 17.06 4.05
2742 64.8200 15.70 15.65 3.96
2743 64.8400 19.70 14.48 4.44
2744 64.8600 16.90 13.62 4.11
2745 64.8800 14.70 13.00 3.83
2746 64.9000 11.50 12.56 3.39
2747 64.9200 13.20 12.24 3.63
2748 64.9400 14.90 11.96 3.86
2749 64.9600 19.10 11.83 4.37
2750 64.9800 18.80 11.68 4.34
2751 65.0000 14.00 11.56 3.74
2752 65.0200 15.50 11.47 3.94
2753 65.0400 12.50 11.39 3.54
2754 65.0600 15.90 11.33 3.99
2755 65.0800 21.60 11.28 4.65
2756 65.1000 19.90 11.24 4.46
2757 65.1200 21.90 11.21 4.68
2758 65.1400 9.50 11.19 3.08
2759 65.1600 18.10 11.19 4.25
2760 65.1800 17.90 11.19 4.23
2761 65.2000 16.40 11.22 4.05
2762 65.2200 14.00 11.26 3.74
2763 65.2400 22.40 11.32 4.73
2764 65.2600 15.30 11.41 3.91
2765 65.2800 22.10 11.53 4.70
2766 65.3000 24.10 11.72 4.91
2767 65.3200 13.40 12.01 3.66
2768 65.3400 11.10 12.39 3.33
2769 65.3600 11.40 12.94 3.38
2770 65.3800 21.00 13.66 4.58
2771 65.4000 22.70 14.45 4.76
2772 65.4200 22.90 14.97 4.79
2773 65.4400 24.80 14.93 4.98
2774 65.4600 19.90 14.48 4.46
2775 65.4800 19.50 14.06 4.42
2776 65.5000 24.60 13.80 4.96
2777 65.5200 19.40 13.83 4.40
2778 65.5400 13.30 14.16 3.65
2779 65.5600 22.90 14.79 4.79
2780 65.5800 18.80 15.73 4.34
2781 65.6000 19.20 16.88 4.38
2782 65.6200 18.00 18.08 4.24
2783 65.6400 17.60 19.38 4.20
2784 65.6600 17.00 20.44 4.12
2785 65.6800 20.80 20.67 4.56
2786 65.7000 11.20 20.05 3.35
2787 65.7200 13.60 19.34 3.69
2788 65.7400 14.40 19.22 3.79
2789 65.7600 18.00 19.95 4.24
2790 65.7800 15.00 21.64 3.87
2791 65.8000 21.10 24.10 4.59
2792 65.8200 33.90 26.60 5.82
2793 65.8400 30.60 27.62 5.53
2794 65.8600 25.10 26.35 5.01
2795 65.8800 25.70 23.72 5.07
2796 65.9000 23.60 21.12 4.86
2797 65.9200 21.90 19.25 4.68
2798 65.9400 20.20 18.23 4.49
2799 65.9600 19.00 17.98 4.36
2800 65.9800 26.50 18.33 5.15
2801 66.0000 30.50 18.91 5.52
2802 66.0200 22.50 19.06 4.74
2803 66.0400 12.60 18.40 3.55
2804 66.0600 13.70 17.26 3.70
2805 66.0800 13.10 16.31 3.62
2806 66.1000 18.30 15.70 4.28
2807 66.1200 17.10 15.52 4.14
2808 66.1400 20.40 15.72 4.52
2809 66.1600 17.30 16.17 4.16
2810 66.1800 18.00 16.54 4.24
2811 66.2000 17.40 16.54 4.17
2812 66.2200 17.00 16.24 4.12
2813 66.2400 18.70 16.05 4.32
2814 66.2600 20.80 16.21 4.56
2815 66.2800 18.60 16.87 4.31
2816 66.3000 15.60 18.10 3.95
2817 66.3200 19.50 19.86 4.42
2818 66.3400 24.10 21.73 4.91
2819 66.3600 28.60 22.74 5.35
2820 66.3800 30.30 22.11 5.50
2821 66.4000 25.00 20.39 5.00
2822 66.4200 32.40 18.58 5.69
2823 66.4400 26.20 17.25 5.12
2824 66.4600 22.00 16.51 4.69
2825 66.4800 23.60 16.30 4.86
2826 66.5000 17.70 16.56 4.21
2827 66.5200 14.50 17.07 3.81
2828 66.5400 16.30 17.44 4.04
2829 66.5600 16.10 17.24 4.01
2830 66.5800 15.10 16.58 3.89
2831 66.6000 17.00 15.87 4.12
2832 66.6200 16.10 15.42 4.01
2833 66.6400 16.90 15.30 4.11
2834 66.6600 17.20 15.47 4.15
2835 66.6800 24.70 15.80 4.97
2836 66.7000 19.20 16.01 4.38
2837 66.7200 24.30 15.88 4.93
2838 66.7400 23.50 15.51 4.85
2839 66.7600 18.70 15.23 4.32
2840 66.7800 16.10 15.16 4.01
2841 66.8000 21.10 15.36 4.59
2842 66.8200 17.60 15.86 4.20
2843 66.8400 13.30 16.71 3.65
2844 66.8600 18.30 17.95 4.28
2845 66.8800 28.90 19.59 5.38
2846 66.9000 16.40 21.52 4.05
2847 66.9200 26.40 23.71 5.14
2848 66.9400 27.60 25.83 5.25
2849 66.9600 28.80 27.31 5.37
2850 66.9800 36.90 27.43 6.07
2851 67.0000 31.30 26.01 5.59
2852 67.0200 21.70 23.94 4.66
2853 67.0400 18.00 22.24 4.24
2854 67.0600 11.00 21.35 3.32
2855 67.0800 28.50 21.30 5.34
2856 67.1000 17.70 22.03 4.21
2857 67.1200 28.20 23.09 5.31
2858 67.1400 23.00 23.81 4.80
2859 67.1600 21.30 23.62 4.62
2860 67.1800 21.10 22.39 4.59
2861 67.2000 17.60 20.64 4.20
2862 67.2200 21.40 18.99 4.63
2863 67.2400 18.70 17.76 4.32
2864 67.2600 11.50 16.97 3.39
2865 67.2800 15.70 16.58 3.96
2866 67.3000 12.10 16.48 3.48
2867 67.3200 17.70 16.49 4.21
2868 67.3400 15.50 16.47 3.94
2869 67.3600 23.30 16.44 4.83
2870 67.3800 22.30 16.57 4.72
2871 67.4000 24.60 17.02 4.96
2872 67.4200 15.00 17.86 3.87
2873 67.4400 19.60 18.97 4.43
2874 67.4600 24.70 20.06 4.97
2875 67.4800 17.70 20.43 4.21
2876 67.5000 16.00 19.75 4.00
2877 67.5200 16.60 18.52 4.07
2878 67.5400 20.50 17.36 4.53
2879 67.5600 12.50 16.55 3.54
2880 67.5800 20.50 16.12 4.53
2881 67.6000 12.80 16.05 3.58
2882 67.6200 17.80 16.25 4.22
2883 67.6400 12.40 16.63 3.52
2884 67.6600 14.30 16.87 3.78
2885 67.6800 19.30 16.64 4.39
2886 67.7000 19.00 16.00 4.36
2887 67.7200 20.60 15.25 4.54
2888 67.7400 23.10 14.61 4.81
2889 67.7600 17.00 14.13 4.12
2890 67.7800 18.40 13.77 4.29
2891 67.8000 19.80 13.51 4.45
2892 67.8200 17.00 13.32 4.12
2893 67.8400 16.50 13.18 4.06
2894 67.8600 16.00 13.07 4.00
2895 67.8800 15.20 12.99 3.90
2896 67.9000 17.80 13.00 4.22
2897 67.9200 16.40 12.94 4.05
2898 67.9400 20.10 12.89 4.48
2899 67.9600 11.80 12.84 3.44
2900 67.9800 15.80 12.80 3.97
2901 68.0000 9.10 12.76 3.02
2902 68.0200 13.60 12.71 3.69
2903 68.0400 12.00 12.67 3.46
2904 68.0600 15.10 12.64 3.89
2905 68.0800 17.80 12.61 4.22
2906 68.1000 14.00 12.58 3.74
2907 68.1200 13.40 12.54 3.66
2908 68.1400 9.80 12.51 3.13
2909 68.1600 10.40 12.48 3.22
2910 68.1800 11.20 12.44 3.35
2911 68.2000 16.00 12.41 4.00
2912 68.2200 15.70 12.36 3.96
2913 68.2400 19.50 12.31 4.42
2914 68.2600 15.80 12.25 3.97
2915 68.2800 19.30 12.20 4.39
2916 68.3000 16.10 12.16 4.01
2917 68.3200 10.30 12.12 3.21
2918 68.3400 8.50 12.07 2.92
2919 68.3600 8.70 12.04 2.95
2920 68.3800 9.30 11.98 3.05
2921 68.4000 14.80 11.93 3.85
2922 68.4200 20.20 11.86 4.49
2923 68.4400 12.80 11.80 3.58
2924 68.4600 9.20 11.74 3.03
2925 68.4800 10.20 11.68 3.19
2926 68.5000 14.70 11.61 3.83
2927 68.5200 18.00 11.55 4.24
2928 68.5400 11.00 11.48 3.32
2929 68.5600 7.90 11.43 2.81
2930 68.5800 12.90 11.34 3.59
2931 68.6000 21.50 11.28 4.64
2932 68.6200 8.50 11.22 2.92
2933 68.6400 16.40 11.17 4.05
2934 68.6600 11.50 11.12 3.39
2935 68.6800 17.70 11.08 4.21
2936 68.7000 10.90 11.06 3.30
2937 68.7200 9.30 11.05 3.05
2938 68.7400 11.40 11.10 3.38
2939 68.7600 15.10 11.15 3.89
2940 68.7800 13.00 11.23 3.61
2941 68.8000 9.10 11.37 3.02
2942 68.8200 15.20 11.60 3.90
2943 68.8400 16.70 11.94 4.09
2944 68.8600 15.50 12.44 3.94
2945 68.8800 11.60 13.19 3.41
2946 68.9000 15.30 14.29 3.91
2947 68.9200 14.80 15.93 3.85
2948 68.9400 13.70 18.26 3.70
2949 68.9600 20.80 21.43 4.56
2950 68.9800 30.70 25.29 5.54
2951 69.0000 36.60 28.84 6.05
2952 69.0200 34.00 30.24 5.83
2953 69.0400 34.30 28.52 5.86
2954 69.0600 29.50 25.03 5.43
2955 69.0800 22.30 21.50 4.72
2956 69.1000 18.60 18.86 4.31
2957 69.1200 22.00 17.27 4.69
2958 69.1400 22.70 16.68 4.76
2959 69.1600 21.90 17.04 4.68
2960 69.1800 22.50 18.07 4.74
2961 69.2000 22.50 19.10 4.74
2962 69.2200 23.10 19.19 4.81
2963 69.2400 27.40 18.05 5.23
2964 69.2600 30.30 16.33 5.50
2965 69.2800 28.00 14.56 5.29
2966 69.3000 28.00 12.70 5.29
2967 69.3200 20.00 10.70 4.47
2968 69.3400 22.40 8.78 4.73
2969 69.3600 21.50 7.11 4.64
2970 69.3800 15.60 5.76 3.95
2971 69.4000 9.20 4.70 3.03
2972 69.4200 20.00 3.94 4.47
2973 69.4400 12.00 3.42 3.46
2974 69.4600 16.70 3.05 4.09
2975 69.4800 16.90 2.67 4.11
2976 69.5000 12.00 2.13 3.46
2977 69.5200 9.00 1.45 3.00
2978 69.5400 18.60 0.79 4.31
2979 69.5600 17.80 0.29 4.22
2980 69.5800 17.30 0.05 4.16
2981 69.6000 16.00 0.16 4.00
2982 69.6200 19.90 0.71 4.46
2983 69.6400 16.40 1.73 4.05
2984 69.6600 16.70 3.05 4.09
2985 69.6800 28.70 4.09 5.36
2986 69.7000 17.70 4.00 4.21
2987 69.7200 17.90 2.62 4.23
2988 69.7400 25.10 0.54 5.01
2989 69.7600 25.00 -1.54 5.00
2990 69.7800 21.90 -3.30 4.68
2991 69.8000 21.70 -4.67 4.66
2992 69.8200 15.50 -5.60 3.94
2993 69.8400 22.00 -6.06 4.69
2994 69.8600 20.40 -6.18 4.52
2995 69.8800 15.40 -6.32 3.92
2996 69.9000 21.20 -6.86 4.60
2997 69.9200 28.60 -7.79 5.35
2998 69.9400 12.30 -8.71 3.51
2999 69.9600 20.40 -9.24 4.52
loop_
_pd_proc_info_excluded_regions
'from 2 to 10.000'
loop_
_restr_distance_atom_site_label_1
_restr_distance_atom_site_label_2
_restr_distance_site_symmetry_2
_restr_distance_target
_restr_distance_target_weight_param
C1 C2 . 1.4 0.005
C2 C1 4_575 1.4 0.005
C1 C4 . 1.4 0.005
C4 C6 . 1.4 0.005
C6 C4 4_575 1.4 0.005
C4 C5 . 1.51 0.005
C5 N1 . 1.45 0.001
S1 O1 . 1.48 0.005
S1 O2 2_465 1.48 0.005
S1 O3 . 1.44 0.005
S1 O3 4_565 1.44 0.005
loop_
_restr_angle_atom_site_label_1
_restr_angle_atom_site_label_2
_restr_angle_atom_site_label_3
_restr_angle_site_symmetry_3
_restr_angle_target
_restr_angle_target_weight_param
C5 C4 C6 . 120 0.1
C5 C4 C1 . 120 0.1
C4 C1 C2 . 120 0.1
C4 C6 C4 4_575 120 0.1
C1 C2 C1 4_575 120 0.1
C4 C5 N1 . 109.47 0.01
loop_
_restr_torsion_atom_site_label_1
_restr_torsion_atom_site_label_2
_restr_torsion_atom_site_label_3
_restr_torsion_site_symmetry_3
_restr_torsion_atom_site_label_4
_restr_torsion_site_symmetry_4
_restr_torsion_angle_target
_restr_torsion_weight_param
C5 C4 C1 . C2 . 180 0.01
C5 C4 C6 . C4 4_575 180 0.01
C4 C1 C2 . C1 4_575 0 0.01
C4 C6 C4 4_575 C1 4_575 0 0.01
loop_
_restr_equal_angle_atom_site_label_1
_restr_equal_angle_site_symmetry_1
_restr_equal_angle_atom_site_label_2
_restr_equal_angle_atom_site_label_3
_restr_equal_angle_site_symmetry_3
_restr_equal_angle_class_class_id
_restr_equal_angle_class_target_weight_param
O1 . S1 O2 2_465 0 0.01
O1 . S1 O3 . 0 0.01
O2 2_465 S1 O3 . 0 0.01
O3 . S1 O3 4_565 0 0.01
