#------------------------------------------------------------------------------
#$Date: 2019-11-17 14:29:30 +0200 (Sun, 17 Nov 2019) $
#$Revision: 230506 $
#$URL: file:///home/coder/svn-repositories/cod/cif/7/05/77/7057761.cif $
#------------------------------------------------------------------------------
#
# This file is available in the Crystallography Open Database (COD),
# http://www.crystallography.net/
#
# All data on this site have been placed in the public domain by the
# contributors.
#
data_7057761
loop_
_publ_author_name
'Biancalana, Lorenzo'
'Batchelor, Lucinda K.'
'Dyson, Paul J.'
'Zacchini, Stefano'
'Schoch, Silvia'
'Pampaloni, Guido'
'Marchetti, Fabio'
_publ_section_title
;
 \a-Diimine homologues of cisplatin: synthesis, speciation in DMSO/water
 and cytotoxicity
;
_journal_issue                   21
_journal_name_full               'New Journal of Chemistry'
_journal_page_first              17453
_journal_paper_doi               10.1039/C8NJ04195D
_journal_volume                  42
_journal_year                    2018
_chemical_formula_sum            'C4 H8 Cl2 N2 O2 Pt'
_chemical_formula_weight         382.11
_space_group_crystal_system      monoclinic
_space_group_IT_number           14
_space_group_name_Hall           '-P 2yn'
_space_group_name_H-M_alt        'P 1 21/n 1'
_symmetry_space_group_name_Hall  '-P 2yn'
_symmetry_space_group_name_H-M   'P 1 21/n 1'
_atom_sites_solution_hydrogens   mixed
_audit_creation_method           SHELXL-2014/7
_audit_update_record
;
2018-06-25 deposited with the CCDC.
2018-09-27 downloaded from the CCDC.
;
_cell_angle_alpha                90
_cell_angle_beta                 106.402(2)
_cell_angle_gamma                90
_cell_formula_units_Z            4
_cell_length_a                   9.1298(9)
_cell_length_b                   6.7916(6)
_cell_length_c                   14.3444(14)
_cell_measurement_reflns_used    9954
_cell_measurement_temperature    100(2)
_cell_measurement_theta_max      35.0865
_cell_measurement_theta_min      2.9605
_cell_volume                     853.24(14)
_computing_cell_refinement       'APEX3 (Bruker AXS, 2015)'
_computing_data_collection       'APEX3 (Bruker AXS, 2015)'
_computing_data_reduction        'SAINT (Bruker AXS, 2015)'
_computing_molecular_graphics    'ORTEPIII (Johnson, 1996)'
_computing_publication_material  'XCIF 2014/2 (Bruker AXS, 2014)'
_computing_structure_refinement  'SHELXL-2014/7 (Sheldrick, 2014)'
_computing_structure_solution    'SHELXT (Sheldrick, 2015)'
_diffrn_ambient_temperature      100(2)
_diffrn_measured_fraction_theta_full 0.995
_diffrn_measured_fraction_theta_max 0.995
_diffrn_measurement_device_type  'CCD area detector'
_diffrn_measurement_method       'phi and omega scans'
_diffrn_radiation_type           MoK\a
_diffrn_radiation_wavelength     0.71073
_diffrn_reflns_av_R_equivalents  0.0491
_diffrn_reflns_av_unetI/netI     0.0384
_diffrn_reflns_Laue_measured_fraction_full 0.995
_diffrn_reflns_Laue_measured_fraction_max 0.995
_diffrn_reflns_limit_h_max       10
_diffrn_reflns_limit_h_min       -10
_diffrn_reflns_limit_k_max       8
_diffrn_reflns_limit_k_min       -8
_diffrn_reflns_limit_l_max       17
_diffrn_reflns_limit_l_min       -17
_diffrn_reflns_number            8075
_diffrn_reflns_point_group_measured_fraction_full 0.995
_diffrn_reflns_point_group_measured_fraction_max 0.995
_diffrn_reflns_theta_full        25.096
_diffrn_reflns_theta_max         25.096
_diffrn_reflns_theta_min         2.378
_diffrn_source                   'fine-focus sealed tube'
_exptl_absorpt_coefficient_mu    17.023
_exptl_absorpt_correction_T_max  0.2197
_exptl_absorpt_correction_T_min  0.0799
_exptl_absorpt_correction_type   empirical
_exptl_absorpt_process_details
; 
 Data were corrected for Lorentz polarization and absorption
 effects (empirical absorption correction SADABS).
 R(int) =  0.1480 (selected reflections only, before parameter refinement)
 R(int) =  0.0796 (selected reflections only, after parameter refinement)
;
_exptl_crystal_colour            orange
_exptl_crystal_density_diffrn    2.975
_exptl_crystal_description       prism
_exptl_crystal_F_000             696
_exptl_crystal_size_max          0.180
_exptl_crystal_size_mid          0.140
_exptl_crystal_size_min          0.110
_refine_diff_density_max         2.901
_refine_diff_density_min         -1.745
_refine_diff_density_rms         0.246
_refine_ls_extinction_method     none
_refine_ls_goodness_of_fit_ref   1.101
_refine_ls_hydrogen_treatment    mixed
_refine_ls_matrix_type           full
_refine_ls_number_parameters     108
_refine_ls_number_reflns         1506
_refine_ls_number_restraints     8
_refine_ls_restrained_S_all      1.099
_refine_ls_R_factor_all          0.0329
_refine_ls_R_factor_gt           0.0307
_refine_ls_shift/su_max          0.000
_refine_ls_shift/su_mean         0.000
_refine_ls_structure_factor_coef Fsqd
_refine_ls_weighting_details
'w=1/[\s^2^(Fo^2^)+(0.0353P)^2^+7.0552P] where P=(Fo^2^+2Fc^2^)/3'
_refine_ls_weighting_scheme      calc
_refine_ls_wR_factor_gt          0.0741
_refine_ls_wR_factor_ref         0.0752
_reflns_Friedel_coverage         0.000
_reflns_number_gt                1421
_reflns_number_total             1506
_reflns_threshold_expression     'I > 2\s(I)'
_cod_data_source_file            c8nj04195d2.cif
_cod_data_source_block           5
_cod_depositor_comments
'Adding full bibliography for 7057760--7057761.cif.'
_cod_database_code               7057761
_shelx_shelxl_version_number     2014/7
_shelx_space_group_comment
;
The symmetry employed for this shelxl refinement is uniquely defined
by the following loop, which should always be used as a source of
symmetry information in preference to the above space-group names.
They are only intended as comments.
;
_shelx_estimated_absorpt_t_min   0.150
_shelx_estimated_absorpt_t_max   0.256
_shelx_res_file
;

    p21n.res created by SHELXL-2014/7


TITL p21n_a.res in P2(1)/n
CELL  0.71073   9.1298   6.7916  14.3444   90.000  106.402   90.000
ZERR    4.000   0.0009   0.0006   0.0014    0.000    0.002    0.000
LATT 1
SYMM 1/2-X, 1/2+Y, 1/2-Z
SFAC C  H  N  O  Cl Pt
UNIT 16  32  8  8  8  4
OMIT -3 50.2

omit 0 0 2
omit 1 0 1
omit -3 8 1

omit -6 7 4
omit 4 7 0
L.S. 10
ACTA
BOND $H
htab
FMAP 2
PLAN 20
size 0.18 0.14 0.11
DFIX 0.84 0.01 O1 H1 O2 H2
isor .005 n1
TEMP -173.000

REM Instructions for potential hydrogen bonds
HTAB O1 Cl2
EQIV $1 x+1/2, -y+1/2, z+1/2
HTAB O1 O2_$1
HTAB O2 Cl1
EQIV $2 x-1/2, -y+1/2, z+1/2
HTAB C3 Cl1_$2
EQIV $3 x-1, y, z
HTAB C3 Cl2_$3

WGHT    0.035300    7.055200
FVAR       0.07022
PT1   6    0.796915    0.343638    0.249323    11.00000    0.00688    0.00798 =
         0.01252    0.00028    0.00468   -0.00054
CL1   5    0.886708    0.344067    0.114756    11.00000    0.01918    0.02089 =
         0.01953   -0.00172    0.01354   -0.00148
CL2   5    1.035489    0.345286    0.358587    11.00000    0.00842    0.01957 =
         0.02189    0.00243    0.00399    0.00000
N1    3    0.687476    0.344241    0.351305    11.00000    0.01371    0.00876 =
         0.00678   -0.00119   -0.00410    0.00142
N2    3    0.581511    0.341502    0.172175    11.00000    0.01366    0.01625 =
         0.01269    0.00140    0.00306   -0.00196
O1    4    0.755604    0.345532    0.448770    11.00000    0.01192    0.03525 =
         0.01107    0.00172   -0.00037    0.00055
H1    2    0.850913    0.339964    0.460390    11.00000   -1.50000
O2    4    0.532360    0.341162    0.070892    11.00000    0.01629    0.02728 =
         0.00832    0.00007    0.00033   -0.00223
H2    2    0.616806    0.327660    0.059183    11.00000   -1.50000
C1    1    0.540663    0.340221    0.322922    11.00000    0.00692    0.00959 =
         0.01881   -0.00365    0.00579    0.00054
C2    1    0.475787    0.342580    0.216154    11.00000    0.00783    0.01289 =
         0.00902    0.00160    0.00679    0.00098
C3    1    0.445046    0.333313    0.390800    11.00000    0.01210    0.01936 =
         0.01765   -0.00125    0.00860    0.00220
AFIX 137
H3A   2    0.494256    0.249324    0.446372    11.00000   -1.50000
H3B   2    0.344417    0.279392    0.357199    11.00000   -1.50000
H3C   2    0.433179    0.466652    0.413757    11.00000   -1.50000
AFIX   0
C4    1    0.310171    0.344192    0.166161    11.00000    0.01177    0.02196 =
         0.01993   -0.00079    0.00494    0.00152
AFIX 137
H4A   2    0.290574    0.426519    0.107821    11.00000   -1.50000
H4B   2    0.254841    0.397588    0.209949    11.00000   -1.50000
H4C   2    0.275379    0.209538    0.147593    11.00000   -1.50000
AFIX   0
HKLF 4

REM  p21n_a.res in P2(1)/n
REM R1 =  0.0307 for    1421 Fo > 4sig(Fo)  and  0.0329 for all    1506 data
REM    108 parameters refined using      8 restraints

END

WGHT      0.0353      7.0546

REM Instructions for potential hydrogen bonds
HTAB O1 Cl2
HTAB O1 O2_$1
HTAB O2 Cl1
HTAB C3 Cl1_$2
HTAB C3 Cl2_$3

REM Highest difference peak  2.901,  deepest hole -1.745,  1-sigma level  0.246
Q1    1   0.6857  0.4369  0.2472  11.00000  0.05    2.90
Q2    1   1.0008  0.3482  0.2562  11.00000  0.05    1.72
Q3    1   0.8727  0.3449  0.2522  11.00000  0.05    1.35
Q4    1   0.7765  0.4505  0.2481  11.00000  0.05    1.30
Q5    1   0.7666  0.3554  0.1881  11.00000  0.05    1.29
Q6    1   0.8383  0.3482  0.3203  11.00000  0.05    1.10
Q7    1   0.7902  0.2512  0.2493  11.00000  0.05    0.92
Q8    1   0.6726  0.3361  0.3226  11.00000  0.05    0.79
Q9    1   0.9192  0.1264  0.2561  11.00000  0.05    0.77
Q10   1   0.6809  0.1530  0.2484  11.00000  0.05    0.67
Q11   1   0.6913  0.3366  0.1142  11.00000  0.05    0.66
Q12   1   0.7746  0.5075  0.1628  11.00000  0.05    0.65
Q13   1   0.9335  0.3559  0.1634  11.00000  0.05    0.61
Q14   1   0.5827  0.2609  0.2420  11.00000  0.05    0.57
Q15   1   0.1546  0.3308  0.1836  11.00000  0.05    0.54
Q16   1   0.8324  0.5071  0.3253  11.00000  0.05    0.54
Q17   1   0.3975  0.3360  0.2017  11.00000  0.05    0.53
Q18   1   0.4615  0.5001  0.1385  11.00000  0.05    0.52
Q19   1   0.2800  0.2730  0.2149  11.00000  0.05    0.52
Q20   1   0.2398  0.3422  0.3763  11.00000  0.05    0.50
;
_shelx_res_checksum              85593
_shelx_hkl_file
;
   1   0   0    0.80    0.27
   1   0   0    0.33    0.06
   1   0   0    0.20    0.14
  -1   0   0    0.32    0.06
  -1   0   0    0.61    0.14
  -2   0   0  130.78    9.08
  -2   0   0  126.14    9.04
   2   0   0  141.60    9.08
   2   0   0  121.19    9.04
   3   0   0   -0.64    0.59
  -3   0   0   -0.02    0.16
   3   0   0   -0.10    0.11
   4   0   0   82.38    6.69
  -4   0   0   96.12    6.56
  -4   0   0   98.45    6.47
   5   0   0    1.17    0.78
  -5   0   0   -0.02    0.24
  -5   0   0    0.19    0.54
   6   0   0    5.48    1.89
  -6   0   0    5.80    0.93
  -6   0   0    5.22    0.56
   7   0   0   -0.11    0.81
  -7   0   0   -0.11    0.33
  -7   0   0   -1.16    0.65
  -8   0   0   76.69    5.75
   8   0   0   79.38    5.98
  -8   0   0   80.13    5.59
  -9   0   0   -0.07    0.51
  -9   0   0    0.16    0.82
   9   0   0    0.07    1.27
 -10   0   0   88.26    6.60
  10   0   0  105.70    7.37
 -10   0   0   86.87    6.85
  11   0   0   -2.24    2.18
 -11   0   0    3.96    1.40
 -12   0   0   96.04    7.40
  12   0   0  102.47    8.08
  13   0   0    0.36    2.28
   0  -1   0    0.46    0.13
   0  -1   0    0.26    0.09
   0   1   0    0.35    0.30
  -1  -1   0    6.01    0.47
  -1  -1   0    5.95    0.40
  -1  -1   0    5.54    0.59
   1  -1   0    6.25    0.47
   1  -1   0    4.42    0.52
  -1  -1   0    5.10    0.45
   1   1   0    5.05    0.47
  -1   1   0    5.74    0.54
   1   1   0    5.04    0.39
  -1   1   0    4.37    0.42
   1   1   0    6.42    0.49
   2  -1   0  105.24    6.85
  -2  -1   0   95.17    6.83
  -2  -1   0   95.25    6.79
   2  -1   0   91.36    6.80
   2   1   0   88.59    6.84
  -2   1   0   90.77    6.77
   2   1   0  105.39    6.77
   2   1   0   97.13    6.80
   2   1   0  104.94    6.76
  -3  -1   0   54.68    4.20
   3  -1   0   61.87    4.28
  -3   1   0   57.02    4.12
   3   1   0   57.31    4.27
   3   1   0   62.14    4.10
  -3   1   0   56.62    4.16
   3   1   0   60.43    4.14
   4  -1   0  234.80   16.68
  -4  -1   0  245.75   16.57
  -4  -1   0  247.35   16.48
   4   1   0  212.20   16.66
  -4   1   0  233.64   16.49
   4   1   0  246.40   16.47
   5  -1   0   51.16    3.75
  -5  -1   0   49.35    3.33
  -5  -1   0   42.48    3.47
  -5   1   0   46.70    3.34
   5   1   0   45.19    3.72
  -6  -1   0   58.35    4.78
  -6  -1   0   65.52    4.53
  -6   1   0   64.14    4.54
   6   1   0   70.25    5.49
  -6   1   0   62.92    4.64
   7  -1   0   32.54    2.86
  -7  -1   0   26.21    2.43
  -7  -1   0   30.30    2.17
   7   1   0   29.25    2.93
  -7   1   0   30.81    2.19
  -7   1   0   27.80    2.36
  -8  -1   0   86.36    6.57
   8  -1   0   93.53    6.79
   8   1   0   91.86    6.92
  -8   1   0   89.59    6.41
  -8   1   0   91.65    6.53
  -9  -1   0   12.05    1.73
   9  -1   0   15.27    2.24
   9   1   0   12.92    2.37
  -9   1   0   14.01    1.66
  -9   1   0   13.64    1.17
 -10  -1   0    4.70    1.25
  10  -1   0    1.80    1.51
 -10   1   0    4.21    0.71
 -10   1   0    4.83    1.18
  10   1   0    2.50    1.79
  11  -1   0   -1.27    1.98
 -11  -1   0    3.03    1.35
  11   1   0   -1.85    1.96
 -11   1   0    1.76    0.67
 -12  -1   0   20.35    2.54
 -12   1   0   17.28    2.43
 -13  -1   0   39.63    3.48
 -13   1   0   36.31    3.47
   0  -2   0  224.15   15.02
   0   2   0  195.60   14.95
   0   2   0  225.34   15.00
  -1  -2   0  479.70   30.91
   1  -2   0  429.25   30.88
  -1  -2   0  428.14   30.85
  -1   2   0  424.38   30.84
   1   2   0  493.38   30.84
   1   2   0  407.59   30.87
  -2  -2   0    9.12    0.99
  -2  -2   0   11.29    0.82
   2  -2   0   13.12    1.00
  -2  -2   0   12.32    1.11
   2   2   0   10.67    0.82
  -2   2   0   10.47    0.86
   2   2   0   12.14    0.94
  -3  -2   0   90.05    6.76
   3  -2   0  107.13    6.79
  -3   2   0  101.96    6.71
   3   2   0   87.50    6.79
  -3   2   0   91.70    6.70
  -4  -2   0    7.22    1.01
   4  -2   0   10.59    1.19
   4   2   0    9.09    1.04
  -4   2   0    8.27    0.72
   5  -2   0   -0.39    0.92
  -5  -2   0   -0.28    0.60
  -5   2   0   -0.47    0.37
   5   2   0    0.50    0.76
  -5   2   0    0.07    0.27
   6  -2   0    0.95    1.17
  -6  -2   0   -0.02    0.73
  -6   2   0    0.22    0.50
  -6   2   0    0.79    0.44
   6   2   0    1.12    0.92
  -7  -2   0    4.01    0.97
   7  -2   0    5.45    1.46
   7   2   0    4.15    1.39
  -7   2   0    3.81    0.58
  -7   2   0    4.66    0.78
  -8  -2   0    7.50    1.34
   8  -2   0   12.58    1.91
  -8   2   0    9.07    0.92
   8   2   0   13.04    1.98
  -8   2   0    8.17    1.15
   9  -2   0   91.02    6.92
  -9  -2   0   89.71    6.57
  -9   2   0   88.73    6.34
  -9   2   0   88.86    6.46
   9   2   0   87.01    6.93
 -10  -2   0   16.19    2.12
  10  -2   0   17.10    2.72
 -10   2   0   11.63    1.35
  10   2   0   13.57    2.44
 -10   2   0   17.74    1.80
  11  -2   0   65.58    5.61
 -11  -2   0   64.46    5.00
  11   2   0   67.09    5.53
 -11   2   0   57.09    4.59
  12  -2   0   13.00    2.73
 -12   2   0   13.45    1.34
  12   2   0   13.77    2.72
  13   2   0   24.53    3.40
   0  -3   0    0.49    0.48
   0   3   0    0.24    0.21
   0   3   0    0.46    0.30
  -1  -3   0   22.55    1.81
  -1  -3   0   20.25    1.63
   1  -3   0   19.28    1.74
  -1   3   0   22.62    1.60
  -1   3   0   22.77    1.66
   1   3   0   21.13    1.57
   1   3   0   25.06    1.60
   1   3   0   21.37    1.64
  -2  -3   0    2.56    0.53
  -2  -3   0    3.08    0.69
   2   3   0    2.91    0.32
  -2   3   0    3.39    0.49
   2   3   0    2.89    0.46
  -2   3   0    2.93    0.39
   3  -3   0  180.96   11.32
  -3  -3   0  155.51   11.28
   3  -3   0  145.97   11.26
   3   3   0  154.13   11.31
   3   3   0  166.35   11.19
  -3   3   0  161.74   11.24
  -4  -3   0    6.34    1.13
  -4  -3   0    6.39    1.01
  -4   3   0    8.54    0.68
  -4   3   0    6.81    0.68
   4   3   0    8.50    0.89
   5  -3   0  151.68    9.74
  -5  -3   0  129.76    9.62
  -5   3   0  125.52    9.52
  -5   3   0  143.54    9.53
   5   3   0  128.19    9.70
  -6  -3   0    3.56    1.05
  -6  -3   0    1.36    0.85
  -6   3   0    3.01    0.50
  -6   3   0    2.10    0.51
   6   3   0    3.59    1.18
  -7  -3   0   78.95    5.75
   7  -3   0   71.16    6.11
  -7   3   0   80.65    5.59
   7   3   0   82.33    6.02
  -8  -3   0    4.36    1.10
  -8  -3   0    5.27    1.28
  -8   3   0    5.16    0.92
   8   3   0    2.61    1.60
  -8   3   0    4.49    0.68
   9  -3   0   35.49    3.90
  -9  -3   0   37.70    3.15
  -9   3   0   37.74    2.73
  -9   3   0   36.97    2.78
   9   3   0   30.03    3.63
 -10  -3   0    4.20    1.78
  10  -3   0   -1.31    4.16
 -10   3   0    2.05    0.83
  10   3   0   -2.04    2.20
 -10   3   0    0.86    0.69
  11  -3   0    4.40    2.69
  11   3   0   -0.25    2.22
 -11   3   0    2.08    0.83
 -13  -3   0   61.43    4.94
 -13   3   0   54.90    4.69
   0  -4   0  366.83   25.34
   0   4   0  357.46   25.22
   0   4   0  362.93   25.30
  -1  -4   0  171.40   11.45
   1  -4   0  164.32   11.41
  -1   4   0  159.53   11.30
   1   4   0  154.19   11.37
  -1   4   0  159.40   11.37
   2  -4   0   40.84    3.29
  -2  -4   0   45.55    3.39
  -2  -4   0   38.36    3.19
  -2   4   0   47.65    3.25
  -2   4   0   45.53    3.17
   2   4   0   43.10    3.23
   2   4   0   48.04    3.13
   3  -4   0   34.58    2.70
  -3  -4   0   31.73    2.68
  -3  -4   0   39.66    2.93
   3  -4   0   38.55    2.80
   3   4   0   38.59    2.55
  -3   4   0   34.27    2.61
   3   4   0   33.87    2.74
   4  -4   0   19.53    1.59
  -4  -4   0   23.05    2.24
  -4  -4   0   15.75    1.68
   4  -4   0   21.37    1.79
   4   4   0   18.74    1.63
  -4   4   0   17.91    1.47
  -5  -4   0    0.59    0.90
  -5  -4   0   -0.72    0.70
   5  -4   0    0.08    0.76
  -5   4   0    0.07    0.31
   5   4   0    0.60    0.71
  -5   4   0   -0.43    0.36
   6  -4   0    3.59    1.24
  -6  -4   0    2.69    0.83
  -6  -4   0    2.31    1.06
  -6   4   0    2.54    0.48
  -6   4   0    2.52    0.54
   6   4   0    2.69    0.90
   7  -4   0    2.94    1.30
  -7  -4   0    3.71    1.18
  -7  -4   0    3.73    0.94
   7   4   0    3.33    1.11
  -7   4   0    2.79    0.57
  -7   4   0    2.79    0.55
  -8  -4   0   24.71    2.44
  -8  -4   0   28.62    2.67
   8  -4   0   24.38    3.44
  -8   4   0   24.30    1.97
  -8   4   0   23.79    1.97
   8   4   0   25.70    2.81
  -9  -4   0   49.43    3.60
  -9   4   0   40.78    3.13
  -9   4   0   38.83    3.10
   9   4   0   38.47    4.04
  10  -4   0   36.10    4.43
 -10  -4   0   40.48    3.24
 -10  -4   0   30.53    3.46
 -10   4   0   31.28    2.64
  10   4   0   28.52    3.84
 -10   4   0   34.08    2.57
  11  -4   0   25.56    4.74
  11   4   0   23.74    3.80
 -11   4   0   25.35    2.19
  12  -4   0   39.31    4.57
  12   4   0   30.92    4.03
 -12   4   0   31.51    2.71
 -13   4   0   11.29    1.56
   0  -5   0    0.42    0.72
   0   5   0    0.24    0.36
   0   5   0   -0.16    0.43
  -1  -5   0   -0.06    0.75
   1  -5   0    1.07    0.69
  -1   5   0   -0.38    0.34
   1   5   0    0.52    0.45
  -1   5   0    0.51    0.46
  -2  -5   0   56.65    4.33
  -2  -5   0   56.00    4.58
  -2   5   0   61.58    4.43
  -2   5   0   63.36    4.34
   2   5   0   58.14    4.42
   2   5   0   67.64    4.30
  -3  -5   0    5.27    0.78
   3   5   0    5.29    0.57
   3   5   0    5.04    0.80
  -3   5   0    4.67    0.68
   4  -5   0  144.40   10.97
  -4  -5   0  157.42   11.05
  -4  -5   0  151.77   10.89
   4   5   0  155.50   10.98
  -4   5   0  163.35   10.86
  -5  -5   0    5.04    1.16
  -5  -5   0    4.02    0.80
  -5   5   0    4.22    0.63
   5   5   0    3.56    0.83
   6  -5   0   49.26    4.23
  -6  -5   0   54.45    4.02
  -6  -5   0   54.70    4.22
  -6   5   0   55.60    3.88
   6   5   0   51.99    4.16
  -7  -5   0    3.28    1.01
  -7  -5   0    3.05    1.24
   7   5   0    3.31    1.23
  -7   5   0    2.90    0.66
   8  -5   0   62.73    6.11
  -8  -5   0   71.46    5.59
  -8  -5   0   77.33    5.42
   8   5   0   70.52    5.72
  -8   5   0   71.86    5.16
  -9  -5   0   10.57    3.45
  10  -5   0    4.58    3.13
  10   5   0   -1.72    2.33
 -10   5   0    3.80    0.94
  11  -5   0    3.96    3.18
 -11   5   0    2.68    0.94
  12  -5   0   16.69    4.26
 -12   5   0    9.64    1.50
   0  -6   0  299.36   22.53
   0   6   0  323.08   22.50
   0   6   0  340.06   22.39
  -1   6   0   24.99    1.96
   1   6   0   24.40    1.96
  -1   6   0   21.21    1.78
  -2  -6   0   43.93    3.71
   2  -6   0   41.16    3.62
  -2   6   0   46.34    3.52
   2   6   0   48.44    3.54
   2   6   0   52.35    3.37
  -2   6   0   47.28    3.41
  -3  -6   0    9.61    0.90
   3   6   0    8.16    0.76
   3   6   0    6.58    1.01
  -3   6   0    6.66    0.85
  -4  -6   0   19.37    2.21
   4  -6   0   21.65    2.06
   4  -6   0   20.58    1.91
  -4   6   0   19.44    1.67
   4   6   0   23.68    1.57
   4   6   0   19.92    1.86
  -5  -6   0   -0.02    1.05
   5  -6   0   -0.74    1.01
  -5  -6   0    0.97    0.65
   5  -6   0    1.79    0.81
   5   6   0    0.12    0.75
  -5   6   0    0.32    0.54
   6  -6   0    4.38    1.48
  -6  -6   0    2.65    1.32
  -6   6   0    3.35    0.70
   6   6   0    1.55    1.02
  -7  -6   0    0.96    1.31
   7  -6   0    2.93    1.81
   7   6   0    0.73    1.29
  -7   6   0    1.20    0.71
  -8  -6   0   30.92    3.35
   8  -6   0   31.75    4.25
   8   6   0   33.19    3.48
  -8   6   0   35.05    2.66
  -9  -6   0    8.30    2.00
   9   6   0    8.86    2.25
  -9   6   0   10.57    1.36
 -10  -6   0   40.31    3.58
  10  -6   0   37.48    5.83
 -10   6   0   40.35    3.13
  10   6   0   35.94    4.41
  11  -6   0   29.02    4.42
   0  -7   0   -0.19    0.95
   0   7   0    0.28    0.58
   0   7   0    0.57    0.52
   1  -7   0   12.20    1.80
  -1  -7   0   11.26    1.76
  -1   7   0    9.52    1.19
   1   7   0    9.68    1.24
  -1   7   0   11.31    1.07
  -2   7   0   11.79    1.36
  -2   7   0   12.20    1.19
   2   7   0   12.34    1.42
   2   7   0   13.74    1.16
   3  -7   0   44.76    3.49
  -3  -7   0   47.73    3.66
   3   7   0   36.98    3.18
   3   7   0   42.60    3.37
  -3   7   0   41.41    3.16
   4  -7   0   54.15    4.39
   4  -7   0   58.80    4.24
  -4  -7   0   50.07    4.40
   5  -7   0   47.77    4.12
  -5  -7   0   54.10    3.54
  -5  -7   0   44.81    4.04
   5   7   0   43.58    3.85
  -5   7   0   46.92    3.58
  -6  -7   0   28.75    2.42
   6  -7   0   30.58    3.44
  -7  -7   0   30.07    3.43
   7  -7   0   34.46    4.02
   7   7   0   33.71    3.36
  -7   7   0   34.41    2.70
  -8  -7   0   16.88    2.78
  -8   7   0   15.60    1.67
   8   7   0   12.71    2.45
  -9  -7   0   14.25    2.94
   9   7   0   11.31    2.64
  -9   7   0   14.52    1.66
  10  -7   0    9.05    3.07
   0   8   0    0.79    0.83
   0   8   0    1.36    0.69
   1  -8   0   89.59    7.21
  -1  -8   0   88.16    7.23
  -1   8   0  105.73    6.89
  -1   8   0   98.92    7.05
   1   8   0   97.86    7.07
  -2  -8   0    3.98    1.66
  -3  -8   0   29.32    3.22
   3  -8   0   32.26    2.95
  -3   8   0   29.04    2.40
   3   8   0   27.53    2.84
  -4  -8   0    3.79    1.46
  -5  -8   0    0.56    1.55
   5  -8   0   -0.28    1.71
  -5   8   0    2.09    0.90
   5   8   0    2.27    1.23
   6  -8   0    3.24    2.16
  -6  -8   0    0.64    1.66
   6   8   0    1.02    1.46
  -6   8   0    1.33    0.97
  -7  -8   0    5.70    1.94
   7  -8   0    7.92    2.88
  -7   8   0    7.18    1.28
  -8  -8   0    5.18    1.89
  -8   8   0    2.93    0.97
   8   8   0    0.72    1.84
  -9  -8   0   17.86    2.73
   0  -9   0    6.58    1.92
   0   9   0    0.03    0.77
   0   9   0    0.03    1.01
  -1   9   0    3.82    1.21
  -1   9   0    6.01    1.33
   1   9   0    4.79    1.24
  -2  -9   0   20.36    2.83
   3  -9   0   26.54    3.81
   3   9   0   24.34    2.61
  -3   9   0   27.68    2.32
   4  -9   0   34.56    4.40
  -4  -9   0   42.16    4.18
   4  -9   0   44.24    3.85
   5  -9   0   35.41    3.95
  -5   9   0   30.63    2.77
   5   9   0   31.03    3.26
   6   9   0    8.03    1.94
  -6   9   0   12.45    1.56
   7   9   0   17.87    3.11
  -7   9   0   21.62    1.99
   0 -10   0  100.93    7.12
   0  10   0   80.12    6.76
  -1  10   0   16.75    1.74
   2 -10   0   41.25    3.64
  -2 -10   0   35.74    3.62
  -2  10   0   27.09    2.90
   4 -10   0   17.59    2.64
  -4  10   0   10.52    1.63
   4  10   0    9.30    1.70
  13   0  -1   39.29    4.80
 -13   0   1   48.33    3.83
  12   0  -1    3.68    2.49
 -11   0   1   68.16    5.10
  11   0  -1   79.35    6.04
 -11   0   1   59.27    5.55
 -10   0   1    1.23    1.01
 -10   0   1    0.42    0.59
  10   0  -1   -0.12    1.65
  -9   0   1  155.47   11.43
   9   0  -1  169.94   11.71
  -9   0   1  158.28   11.32
   8   0  -1   -1.70    1.00
  -8   0   1   -0.92    0.60
  -8   0   1    0.34    0.43
   7   0  -1    8.95    1.65
  -7   0   1    7.54    1.10
  -7   0   1    9.92    0.82
   6   0  -1   -0.43    0.88
  -6   0   1   -0.61    0.27
   5   0  -1    6.84    1.17
  -5   0   1    5.54    0.78
  -5   0   1    6.52    0.57
  -3   0   1   59.71    3.96
   3   0  -1   48.61    4.16
  -3   0   1   60.14    4.01
   2   0  -1   -0.03    0.11
   2   0  -1   -0.55    0.25
  -2   0   1    0.41    0.39
  -2   0   1    0.08    0.13
   2   0  -1   -0.40    0.56
  -1   0   1  484.98   33.72
  -1   0  -1  186.02   13.78
  -1   0  -1  197.65   13.78
   1   0   1  209.02   13.77
  -2   0  -1    0.08    0.25
   2   0   1    0.22    0.25
   2   0   1    0.11    0.17
   2   0   1    0.14    0.52
  -2   0  -1   -0.06    0.13
   2   0   1   -0.19    0.12
  -2   0  -1    0.07    0.53
  -2   0  -1    0.63    0.37
  -3   0  -1  202.64   14.23
  -3   0  -1  214.51   14.31
   3   0   1  196.84   14.23
  -4   0  -1   -0.32    0.19
   4   0   1    0.32    0.61
  -4   0  -1    0.05    0.52
  -5   0  -1    8.66    0.69
   5   0   1    6.65    1.29
  -5   0  -1    8.50    1.08
   6   0   1   -0.26    1.37
  -6   0  -1   -0.08    0.29
  -7   0  -1   10.84    1.47
  -7   0  -1   12.73    1.00
   7   0   1   11.56    1.69
  -8   0  -1   -0.34    0.77
   8   0   1    0.44    1.07
  -8   0  -1    0.31    0.41
  -9   0  -1   94.28    7.03
   9   0   1  108.06    7.60
  -9   0  -1   96.88    7.26
 -10   0  -1    1.15    1.20
 -10   0  -1    0.58    0.53
  10   0   1    1.82    2.01
  11   0   1   95.25    7.43
 -11   0  -1   89.38    6.96
 -13   0  -1   63.61    5.05
 -13  -1   1   41.53    3.36
 -13   1   1   39.19    3.42
  13   1  -1   28.01    4.46
  12  -1  -1    7.85    2.80
 -12  -1   1   14.60    2.25
 -12   1   1   13.85    2.12
  11  -1  -1    4.13    1.90
 -11  -1   1    4.83    1.32
 -11   1   1    3.52    1.37
  11   1  -1    1.45    1.93
 -11   1   1    2.06    0.73
 -10  -1   1    1.93    0.93
  10  -1  -1    0.53    1.73
  10   1  -1    1.00    1.73
  10   1  -1   -0.38    0.63
 -10   1   1    2.19    0.97
   9  -1  -1   42.47    3.45
  -9  -1   1   36.73    3.10
  -9   1   1   37.14    3.01
   9   1  -1   39.29    3.64
  -9   1   1   37.33    2.84
  -8  -1   1   38.04    3.11
  -8   1   1   40.46    2.93
   8   1  -1   42.60    3.66
  -8   1   1   39.47    3.05
   7  -1  -1   80.26    5.51
  -7  -1   1   66.55    5.15
   7   1  -1   65.73    5.54
  -7   1   1   70.29    5.12
  -7   1   1   71.43    5.03
  -6  -1   1   31.67    2.90
   6  -1  -1   44.40    3.97
  -6   1   1   37.72    2.63
  -6   1   1   35.02    2.72
   5  -1  -1  164.36   11.17
  -5  -1   1  153.81   11.00
  -5   1   1  157.21   10.97
  -5   1   1  150.22   10.92
  -4  -1   1   54.02    3.97
   4  -1  -1   62.44    4.21
  -4   1   1   56.86    3.90
   4   1  -1   47.56    4.16
  -3  -1   1   27.70    2.17
   3  -1  -1   35.48    2.34
   3   1  -1   25.27    2.29
   3   1  -1   31.55    2.08
  -3   1   1   28.08    2.10
  -3   1   1   28.79    2.12
   2  -1  -1   25.92    1.95
   2   1  -1   26.20    2.01
   2   1  -1   29.87    2.03
  -2   1   1   26.41    1.92
  -1  -1   1   13.33    1.04
  -1  -1   1   16.46    1.11
   1  -1  -1   15.11    1.05
   1  -1  -1   12.61    1.01
  -1   1   1   13.12    1.01
   1   1  -1   14.20    1.05
  -1   1   1   15.10    1.05
   0  -1  -1    0.37    0.12
   0  -1   1    0.26    0.10
   0  -1  -1    0.15    0.10
   0  -1  -1    0.32    0.13
   0  -1  -1    0.29    0.08
   0  -1   1    0.34    0.12
   0  -1  -1    0.13    0.08
   0   1  -1    0.23    0.11
   0   1   1    0.28    0.13
   0   1  -1    0.30    0.16
   0   1   1    0.42    0.14
   0   1  -1    0.12    0.27
   1  -1   1   11.95    0.92
  -1  -1  -1   11.55    0.94
  -1  -1  -1   13.05    0.94
   1  -1   1   13.65    0.92
   1  -1   1   12.37    0.98
   1   1   1   14.63    0.95
  -1   1  -1   11.03    0.98
  -1   1  -1   12.09    0.92
  -1   1  -1   13.92    0.92
   1   1   1   12.98    0.96
   1   1   1   12.70    0.95
   2  -1   1   34.71    2.52
   2  -1   1   36.49    2.63
  -2  -1  -1   36.30    2.58
  -2  -1  -1   33.13    2.57
   2  -1   1   39.81    2.60
   2   1   1   37.05    2.60
  -2   1  -1   33.32    2.51
   2   1   1   34.54    2.55
  -3  -1  -1  304.57   19.95
   3  -1   1  277.01   20.02
   3   1   1  285.79   19.92
  -3   1  -1  272.93   19.88
  -3   1  -1  304.27   19.94
   3   1   1  270.44   19.99
  -4  -1  -1  124.36    8.71
  -4  -1  -1  138.39    8.59
   4  -1   1  106.51    8.80
   4   1   1  131.30    8.65
   4   1   1  114.63    8.57
   4   1   1  120.58    8.80
  -4   1  -1  125.83    8.61
  -5  -1  -1   97.00    6.88
   5  -1   1   83.24    6.99
  -5  -1  -1  103.30    6.73
   5   1   1   98.52    7.03
  -5   1  -1   97.67    6.74
  -6  -1  -1   28.55    2.59
  -6  -1  -1   32.40    2.29
   6  -1   1   36.49    3.06
   6   1   1   31.66    2.88
  -6   1  -1   29.97    2.52
  -6   1  -1   32.30    2.31
  -7  -1  -1   75.47    5.79
   7  -1   1   79.59    6.01
  -7  -1  -1   79.65    5.57
  -7   1  -1   76.93    5.73
   7   1   1   80.34    6.05
  -7   1  -1   81.30    5.59
  -8  -1  -1   23.65    2.19
   8  -1   1   25.95    2.50
  -8  -1  -1   23.55    1.85
  -8   1  -1   25.36    2.14
  -8   1  -1   24.96    1.87
   8   1   1   22.93    2.61
   9  -1   1   16.57    2.40
  -9  -1  -1   16.33    2.05
  -9   1  -1   16.84    1.40
   9   1   1   17.54    2.43
  -9   1  -1   17.55    1.91
  10  -1   1    4.22    1.72
 -10  -1  -1    6.46    1.50
  10   1   1    4.68    2.07
 -10   1  -1    6.44    0.87
 -10   1  -1    9.69    1.51
  11  -1   1    2.36    2.17
 -11  -1  -1    5.18    1.70
 -11   1  -1    3.53    0.97
 -11   1  -1    4.87    1.45
  11   1   1    4.53    2.24
 -12  -1  -1   21.77    2.74
 -12   1  -1   19.50    2.63
 -13  -1  -1   53.80    4.26
 -13   1  -1   51.08    4.32
  13  -2  -1    4.49    2.39
  13   2  -1    6.99    2.28
 -12  -2   1   54.93    4.17
  12  -2  -1   44.97    4.97
 -12   2   1   46.44    3.67
  12   2  -1   48.99    4.80
  11  -2  -1   13.51    2.51
 -11  -2   1   14.65    2.03
 -11   2   1    9.30    1.25
  11   2  -1   10.74    2.41
  10  -2  -1  104.43    7.76
 -10  -2   1   99.71    7.28
 -10   2   1   93.07    7.06
  10   2  -1  101.31    7.79
  -9  -2   1   19.83    1.98
  -9   2   1   21.30    1.70
   9   2  -1   14.93    1.58
   9   2  -1   17.62    2.71
  -9   2   1   18.92    1.52
   8  -2  -1   61.13    4.81
  -8  -2   1   58.08    4.41
  -8   2   1   60.15    4.26
  -8   2   1   62.57    4.35
   8   2  -1   53.56    4.85
  -7  -2   1   -0.01    0.72
   7  -2  -1    0.84    1.25
   7   2  -1    1.56    1.24
  -7   2   1    1.79    0.44
   7   2  -1    1.31    0.75
  -7   2   1    0.98    0.56
   6  -2  -1    7.63    1.39
  -6  -2   1    4.71    0.87
  -6   2   1    4.61    0.70
  -6   2   1    5.21    0.65
   6   2  -1    5.19    0.85
   6   2  -1    5.59    1.32
   5  -2  -1    0.86    0.73
  -5  -2   1   -0.29    0.50
  -5   2   1    0.76    0.28
   5   2  -1    0.91    0.51
  -5   2   1   -0.06    0.32
   5   2  -1    1.31    0.72
  -4  -2   1   42.77    3.17
  -4   2   1   44.37    3.09
   4   2  -1   45.73    3.09
   4   2  -1   40.36    3.27
   3  -2  -1    6.71    0.79
  -3  -2   1    6.41    0.81
  -3  -2   1    4.38    0.68
  -3  -2   1    6.37    0.48
  -3   2   1    5.59    0.52
   3   2  -1    6.47    0.51
   3   2  -1    6.24    0.76
  -3   2   1    5.77    0.53
  -2  -2   1   59.73    4.30
  -2  -2   1   56.12    4.25
   2  -2  -1   65.18    4.27
  -2   2   1   59.17    4.27
   2   2  -1   60.40    4.25
  -2   2   1   64.20    4.26
   2   2  -1   61.00    4.32
  -1  -2   1   51.21    3.91
   1  -2  -1   58.30    4.01
  -1  -2   1   62.71    4.03
  -1   2   1   50.35    3.92
   1   2  -1   60.73    3.96
   1   2  -1   52.42    3.94
   0  -2  -1  969.24   69.18
   0  -2   1 1000.00   70.25
   0   2   1  978.59   69.28
   0   2  -1  954.57   70.40
  -1  -2  -1   48.00    3.42
   1  -2   1   46.72    3.48
  -1  -2  -1   42.00    3.39
   1   2   1   51.18    3.46
  -1   2  -1   44.95    3.42
  -1   2  -1   54.00    3.47
   1   2   1   53.46    3.42
  -2  -2  -1  176.53   11.54
   2  -2   1  157.60   11.54
   2  -2   1  175.76   11.55
  -2   2  -1  160.99   11.50
   2   2   1  151.20   11.55
   2   2   1  168.03   11.55
   3  -2   1   23.98    1.72
  -3  -2  -1   20.55    1.70
  -3   2  -1   20.28    1.54
  -3   2  -1   18.87    1.59
   3   2   1   21.67    1.61
   3   2   1   21.46    1.68
   4  -2   1   54.55    3.73
  -4  -2  -1   47.96    3.60
   4   2   1   51.34    3.52
   4   2   1   47.14    3.63
  -4   2  -1   46.74    3.46
  -4   2  -1   44.43    3.67
   5  -2   1    1.35    1.02
  -5  -2  -1   -0.69    0.75
  -5   2  -1    0.29    0.30
   5   2   1    0.96    0.39
  -5   2  -1    0.46    0.52
   5   2   1    0.37    0.76
  -6  -2  -1    7.49    1.12
   6  -2   1    6.89    1.54
   6   2   1    8.39    1.31
  -6   2  -1    5.20    0.92
   6   2   1    7.68    0.81
   7  -2   1    1.21    1.30
  -7  -2  -1    0.97    0.91
  -7   2  -1    1.81    0.44
   7   2   1    2.52    1.23
  -7   2  -1    1.47    0.67
   8  -2   1   59.22    5.15
  -8  -2  -1   62.96    4.81
  -8   2  -1   66.36    4.70
   8   2   1   64.98    5.09
  -8   2  -1   64.70    4.58
  -9  -2  -1   15.50    2.00
   9  -2   1   14.22    2.59
  -9   2  -1   12.75    1.28
  -9   2  -1   16.37    1.73
   9   2   1   15.51    2.40
 -10  -2  -1   55.74    4.89
  10  -2   1   52.50    4.71
  10   2   1   46.14    4.97
 -10   2  -1   50.43    3.82
 -10   2  -1   55.42    4.12
  11  -2   1   18.98    3.32
 -11   2  -1   11.59    1.35
  11   2   1   14.48    2.64
  12  -2   1  108.24    7.70
 -12  -2  -1   86.61    6.91
 -12   2  -1   89.38    6.86
  12   2   1   84.20    7.46
  13  -3  -1    6.99    2.16
 -13   3   1    7.97    1.27
  12  -3  -1   14.83    2.98
 -12   3   1    9.69    1.41
  12   3  -1   10.20    3.03
 -11  -3   1    2.50    1.42
  11  -3  -1    0.64    2.22
 -11   3   1    0.88    0.80
 -11   3   1    2.02    1.07
  11   3  -1   -4.32    2.43
  10  -3  -1   -1.15    3.68
 -10  -3   1    3.83    1.55
 -10   3   1   -0.02    0.61
 -10   3   1    2.25    0.80
   9  -3  -1    4.83    1.94
  -9  -3   1    3.74    1.08
  -9   3   1    2.08    0.62
  -9   3   1    2.32    0.66
   9   3  -1    0.85    1.88
  -8  -3   1  102.83    6.97
   8  -3  -1   80.79    7.33
  -8   3   1  102.95    6.82
   8   3  -1   87.16    7.32
  -8   3   1  103.94    6.86
  -7  -3   1    2.42    0.78
   7   3  -1    2.26    1.24
  -7   3   1    3.96    0.58
  -6  -3   1   99.83    7.50
   6  -3  -1  114.66    7.75
  -6   3   1  110.32    7.42
   6   3  -1   97.94    7.71
  -6   3   1  102.52    7.40
  -5  -3   1    5.80    1.21
  -5  -3   1    4.08    0.82
  -5   3   1    5.97    0.63
   5   3  -1    5.60    0.55
   5   3  -1    6.00    1.09
  -4  -3   1  145.41   10.51
  -4   3   1  168.89   10.46
   4   3  -1  139.86   10.57
  -4   3   1  149.01   10.46
   4   3  -1  144.05   10.42
  -3  -3   1    0.94    0.60
  -3  -3   1    0.69    0.45
   3  -3  -1    1.40    0.47
   3   3  -1    1.56    0.24
   3   3  -1    1.45    0.40
  -3   3   1    1.28    0.29
   2  -3  -1   67.77    5.25
  -2  -3   1   71.83    5.20
  -2  -3   1   77.89    5.31
  -2   3   1   80.59    5.27
  -2   3   1   73.25    5.19
   2   3  -1   72.93    5.24
   2   3  -1   72.61    5.17
   1  -3  -1    1.00    0.52
  -1  -3   1    1.07    0.53
   1   3  -1    1.36    0.31
   1   3  -1    1.56    0.36
  -1   3   1    1.92    0.37
   0  -3   1    0.16    0.43
   0  -3  -1    0.70    0.50
   0   3  -1    0.33    0.30
   0   3  -1    0.10    0.17
   0   3   1    0.36    0.27
  -1  -3  -1    1.78    0.38
  -1  -3  -1    1.79    0.58
   1  -3   1    1.14    0.46
  -1   3  -1    2.14    0.34
   1   3   1    1.66    0.25
  -1   3  -1    1.88    0.37
   1   3   1    1.91    0.39
  -2  -3  -1   88.64    6.56
  -2  -3  -1  102.68    6.76
   2  -3   1   85.84    6.66
  -2  -3  -1   99.37    6.65
   2   3   1   91.47    6.67
  -2   3  -1   97.77    6.61
  -3  -3  -1    7.37    1.00
  -3  -3  -1    7.85    1.23
   3  -3   1    9.57    0.98
  -3   3  -1    8.60    0.74
   3   3   1    8.38    0.84
  -4  -3  -1  317.55   22.25
   4   3   1  299.24   22.28
  -4   3  -1  346.79   22.17
  -4   3  -1  308.94   22.17
  -5  -3  -1    3.16    1.23
   5   3   1    4.68    0.97
  -5   3  -1    3.94    0.55
  -5   3  -1    4.40    0.59
  -6  -3  -1   81.05    6.06
   6  -3   1   76.36    6.28
  -6   3  -1   85.91    5.88
   6   3   1   83.55    6.18
  -6   3  -1   86.92    5.91
  -7  -3  -1    4.01    1.05
  -7  -3  -1    4.97    1.24
  -7   3  -1    4.15    0.63
   7   3   1    5.93    1.42
  -8  -3  -1   62.01    4.94
  -8   3  -1   67.13    4.76
  -8   3  -1   62.02    4.67
   8   3   1   69.64    5.26
  -9  -3  -1    2.63    1.26
   9  -3   1    3.06    1.90
  -9   3  -1    1.58    0.76
  -9   3  -1    0.81    0.59
   9   3   1    0.95    1.91
 -10  -3  -1   18.51    2.41
  10  -3   1   15.33    2.72
 -10   3  -1   16.70    1.87
 -10   3  -1   11.50    1.42
  10   3   1   14.11    2.60
  11  -3   1    2.58    2.50
 -11   3  -1    1.74    0.81
  11   3   1   -1.56    2.38
  12  -3   1   15.42    3.04
 -12   3  -1   12.46    1.41
  12   3   1    9.23    2.90
 -13   4   1   13.60    1.71
  12  -4  -1   28.37    4.16
  12   4  -1   23.33    3.60
 -12   4   1   21.76    2.09
  11  -4  -1   25.62    4.60
 -11   4   1   23.56    2.07
  11   4  -1   21.46    3.90
  10  -4  -1   55.85    5.03
 -10  -4   1   51.73    3.75
 -10   4   1   42.06    3.43
  10   4  -1   33.66    4.45
 -10   4   1   42.55    3.35
  -9  -4   1   55.42    4.32
   9  -4  -1   57.41    5.30
  -9  -4   1   59.41    4.20
  -9   4   1   52.95    3.90
   9   4  -1   45.18    4.70
  -9   4   1   48.56    3.89
  -8  -4   1   32.42    3.06
  -8  -4   1   33.19    2.63
   8  -4  -1   34.72    3.60
  -8   4   1   29.28    2.30
   8   4  -1   25.07    3.04
  -8   4   1   26.80    2.28
  -7  -4   1    4.12    1.18
   7  -4  -1    4.12    1.37
  -7  -4   1    4.79    0.90
   7   4  -1    5.36    1.32
  -7   4   1    4.02    0.65
  -7   4   1    4.72    0.68
  -6  -4   1    2.55    0.74
  -6  -4   1    2.20    0.97
   6  -4  -1    3.80    1.11
   6   4  -1    3.92    1.04
  -6   4   1    2.80    0.53
  -6   4   1    2.81    0.48
   5  -4  -1    2.12    0.78
  -5  -4   1    0.94    0.72
  -5   4   1    1.62    0.37
  -5   4   1    1.97    0.46
   5   4  -1    1.96    0.75
  -4  -4   1   12.56    1.34
   4   4  -1   15.50    1.38
  -4   4   1   15.54    1.21
   4   4  -1   15.82    1.13
   3  -4  -1   15.02    1.51
  -3  -4   1   20.05    1.78
  -3  -4   1   14.71    1.41
   3   4  -1   18.43    1.30
  -3   4   1   18.44    1.36
   3   4  -1   18.85    1.47
  -2  -4   1   24.35    2.01
  -2  -4   1   31.69    2.31
   2  -4  -1   25.57    2.16
  -2   4   1   28.23    2.10
   2   4  -1   27.83    2.08
  -2   4   1   27.23    2.01
   2   4  -1   28.08    1.98
   1  -4  -1  146.92   11.05
  -1  -4   1  170.34   11.08
   1   4  -1  156.73   11.01
  -1   4   1  157.83   11.02
   1   4  -1  151.08   10.93
   0  -4  -1  278.70   19.95
   0  -4   1  307.89   19.94
   0   4  -1  279.60   19.89
   0   4   1  279.63   19.90
   0   4   1  277.33   19.82
  -1  -4  -1  121.77    8.55
  -1  -4  -1  109.19    8.39
   1  -4   1  129.57    8.51
   1   4   1  121.22    8.37
   1   4   1  116.70    8.46
  -1   4  -1  122.75    8.46
  -1   4  -1  116.97    8.39
  -2  -4  -1   62.95    4.54
  -2  -4  -1   56.80    4.35
   2  -4   1   60.36    4.40
   2   4   1   58.96    4.38
  -2   4  -1   59.97    4.31
   2   4   1   63.29    4.26
  -2   4  -1   62.00    4.38
  -3  -4  -1   61.24    4.57
   3  -4   1   64.31    4.36
   3  -4   1   56.39    4.28
  -3  -4  -1   54.50    4.30
  -4  -4  -1   15.35    1.77
  -4  -4  -1   13.54    1.53
   4   4   1   14.53    1.35
  -4   4  -1   15.61    1.21
  -5  -4  -1    2.87    1.01
   5  -4   1    2.04    0.94
  -5  -4  -1    1.71    0.89
  -5   4  -1    2.85    0.53
   5   4   1    2.13    0.67
  -5   4  -1    2.33    0.42
  -6  -4  -1    3.43    0.99
  -6  -4  -1    3.19    0.94
   6  -4   1    4.27    1.26
  -6   4  -1    3.82    0.63
   6   4   1    4.65    1.10
  -6   4  -1    4.53    0.59
  -7  -4  -1    5.43    1.17
   7  -4   1    5.75    1.71
  -7  -4  -1    5.99    1.34
  -7   4  -1    4.68    0.70
  -7   4  -1    5.34    0.75
   7   4   1    4.56    1.20
   8  -4   1   32.69    3.72
  -8  -4  -1   29.21    2.98
  -8  -4  -1   32.74    2.82
  -8   4  -1   29.37    2.31
  -8   4  -1   29.60    2.34
   8   4   1   29.53    3.11
  -9  -4  -1   39.04    3.15
  -9  -4  -1   30.05    3.70
   9  -4   1   33.99    4.14
  -9   4  -1   32.92    2.55
  -9   4  -1   29.82    2.50
 -10  -4  -1   23.78    2.79
  10  -4   1   31.53    4.15
 -10   4  -1   23.59    2.24
 -10   4  -1   30.85    2.18
  10   4   1   24.94    3.53
  11  -4   1   29.10    4.60
  11   4   1   28.90    3.88
 -11   4  -1   27.81    2.39
  12  -4   1   51.15    4.83
  12   4   1   39.75    4.39
 -12   4  -1   36.80    3.23
  12  -5  -1    7.79    2.82
 -12   5   1    1.52    0.95
  12   5  -1   -3.14    2.44
  11  -5  -1    6.60    3.28
  10  -5  -1   -0.39    3.22
 -10   5   1    1.60    0.86
  10   5  -1    0.09    2.25
  -9  -5   1   31.61    3.13
   9   5  -1   24.48    3.42
  -9   5   1   33.11    2.44
  -8  -5   1    6.41    1.18
  -8  -5   1    4.41    1.33
   8   5  -1    2.00    1.65
  -8   5   1    3.80    0.80
   7  -5  -1   58.55    5.14
  -7  -5   1   65.84    4.69
  -7  -5   1   62.49    4.89
   7   5  -1   62.86    4.96
  -7   5   1   63.87    4.56
  -6  -5   1    5.60    1.15
  -6  -5   1    3.80    0.85
  -6   5   1    4.18    0.66
   6   5  -1    4.28    0.96
   5  -5  -1  111.50    8.78
  -5  -5   1  119.60    8.64
  -5  -5   1  121.38    8.81
   5   5  -1  135.13    8.53
   5   5  -1  121.13    8.78
  -5   5   1  122.52    8.61
  -4  -5   1    3.43    0.67
   4  -5  -1    5.60    1.13
   4   5  -1    4.30    0.53
   4   5  -1    4.14    0.81
  -4   5   1    3.89    0.62
   3  -5  -1   40.46    3.31
  -3  -5   1   41.35    3.14
  -3  -5   1   40.76    3.43
   3   5  -1   43.19    3.25
  -3   5   1   44.88    3.14
   3   5  -1   47.96    3.10
  -2   5   1    3.11    0.61
  -2   5   1    2.54    0.49
   2   5  -1    1.70    0.51
   2   5  -1    2.23    0.43
  -1  -5   1   17.99    2.01
   1  -5  -1   18.07    1.99
   1   5  -1   23.24    1.60
   1   5  -1   21.78    1.71
  -1   5   1   21.04    1.72
  -1   5   1   21.85    1.61
   0  -5  -1   -0.26    0.73
   0  -5   1   -0.83    0.66
   0   5  -1   -0.20    0.40
   0   5   1   -0.17    0.44
   0   5   1   -0.14    0.34
   0   5  -1    0.13    0.38
  -1  -5  -1   14.33    1.68
  -1   5  -1   14.80    1.30
   1   5   1   14.32    1.31
   1   5   1   15.40    1.17
  -2  -5  -1    1.97    0.68
  -2  -5  -1    2.47    0.92
   2   5   1    2.52    0.42
  -2   5  -1    2.46    0.51
  -2   5  -1    2.65    0.59
   2   5   1    3.15    0.63
   3  -5   1  143.61   10.96
  -3  -5  -1  154.70   10.90
   3  -5   1  142.56   10.93
  -3  -5  -1  164.11   11.09
   3   5   1  157.44   10.97
  -3   5  -1  166.03   10.87
  -4  -5  -1    8.82    1.57
  -4  -5  -1    7.48    1.14
   4   5   1    7.63    1.00
  -4   5  -1    6.89    0.82
   5  -5   1   79.39    6.24
   5  -5   1   80.65    6.15
  -5  -5  -1   86.11    6.15
  -5  -5  -1   90.82    6.36
  -5   5  -1   86.40    6.03
   5   5   1   85.49    6.22
  -6  -5  -1    4.15    0.98
  -6  -5  -1    2.50    1.20
   6   5   1    2.63    0.92
  -6   5  -1    3.22    0.63
   7  -5   1   57.03    5.42
  -7  -5  -1   69.76    4.97
   7   5   1   68.08    5.12
  -7   5  -1   63.54    4.69
  -8  -5  -1    3.42    1.38
  -8  -5  -1    0.74    1.46
   8   5   1    1.10    1.52
  -8   5  -1    2.97    0.73
  -9  -5  -1   15.27    2.70
   9  -5   1   19.44    3.45
  -9   5  -1   14.20    1.50
   9   5   1   15.47    2.77
 -10  -5  -1   -0.23    1.41
  10  -5   1    2.62    3.02
 -12   5  -1    1.33    0.91
  11  -6  -1   42.49    5.06
 -11   6   1   31.61    2.74
 -10  -6   1   13.78    2.29
 -10   6   1    9.68    1.47
  10   6  -1    9.20    2.69
  -9  -6   1   75.34    5.05
  -9  -6   1   58.63    6.36
   9  -6  -1   64.10    6.49
  -9   6   1   65.80    4.81
   9   6  -1   57.85    5.66
  -8  -6   1    5.59    1.59
   8   6  -1    6.28    1.90
  -8   6   1    7.03    1.02
   7  -6  -1    9.36    1.97
  -7  -6   1    6.07    1.46
  -7   6   1    6.13    1.03
   7   6  -1    7.69    1.67
  -6  -6   1    2.21    1.13
  -6  -6   1    2.68    0.69
   6  -6  -1    2.08    1.18
  -6   6   1    0.63    0.60
   6   6  -1    0.80    0.93
  -5  -6   1    1.83    1.03
  -5  -6   1    3.31    0.60
   5  -6  -1    1.76    1.05
  -5   6   1    1.55    0.57
   5   6  -1    2.69    0.88
  -4  -6   1    6.20    0.85
   4   6  -1    4.73    0.89
  -4   6   1    4.74    0.74
   4   6  -1    5.85    0.64
  -3  -6   1   25.89    1.90
   3  -6  -1   21.10    2.18
  -3  -6   1   25.14    2.39
   3   6  -1   23.89    2.07
   3   6  -1   27.78    1.89
  -3   6   1   26.04    1.95
  -2   6   1    5.43    0.90
   2   6  -1    5.84    0.75
  -2   6   1    5.50    0.72
   2   6  -1    5.57    0.88
  -1  -6   1  134.62   10.22
   1  -6  -1  133.00   10.21
   1   6  -1  147.15   10.16
  -1   6   1  151.98   10.05
   1   6  -1  152.64   10.04
  -1   6   1  137.82   10.15
   0   6   1   40.27    3.06
   0   6   1   40.87    2.94
   0   6  -1   39.45    2.93
   0   6  -1   39.12    3.03
   1  -6   1  118.86    9.03
  -1  -6  -1  119.15    9.08
  -1   6  -1  128.93    8.87
   1   6   1  125.37    8.99
  -1   6  -1  125.68    8.97
   1   6   1  136.97    8.85
  -2  -6  -1   16.46    1.34
  -2   6  -1   14.24    1.29
   2   6   1   14.17    1.42
   2   6   1   15.51    1.19
  -2   6  -1   14.27    1.41
  -3  -6  -1   56.33    4.57
   3  -6   1   55.40    4.41
  -3  -6  -1   59.81    4.30
  -3   6  -1   58.76    4.26
   3   6   1   57.76    4.40
   3   6   1   65.16    4.19
  -4  -6  -1    2.56    1.06
  -4  -6  -1    3.07    0.80
   4   6   1    2.55    0.76
  -4   6  -1    3.93    0.64
  -5  -6  -1    2.33    1.24
   5  -6   1    1.96    1.10
   5  -6   1    2.56    0.83
  -5  -6  -1    3.49    0.80
  -5   6  -1    1.90    0.61
   5   6   1    1.25    0.87
  -6  -6  -1    0.64    1.21
   6  -6   1   -0.21    1.30
  -6   6  -1    0.13    0.60
   6   6   1   -0.51    0.93
   7  -6   1    9.88    2.26
  -7  -6  -1    7.97    1.67
  -8  -6  -1    5.21    1.64
  -8   6  -1    7.93    1.15
   8   6   1    5.12    1.76
  -9  -6  -1   40.29    3.98
   9  -6   1   37.50    5.43
   9   6   1   41.37    4.19
  -9   6  -1   40.09    3.14
  10  -6   1   15.65    3.71
 -10  -6  -1    7.08    1.71
 -10   6  -1    8.84    1.40
  10   6   1    7.14    2.36
  11  -6   1   38.17    4.82
 -11   6  -1   36.85    2.97
 -10  -7   1    2.38    1.79
  10  -7  -1    7.67    3.35
 -10   7   1    1.81    0.87
  10   7  -1    1.95    2.09
   9  -7  -1   23.48    3.99
   8  -7  -1   40.67    4.68
   8   7  -1   33.42    3.74
  -8   7   1   35.70    2.91
  -7  -7   1   29.18    2.35
  -7  -7   1   24.86    3.06
  -6  -7   1   46.71    3.19
  -6  -7   1   41.14    3.79
   6  -7  -1   42.71    4.39
  -6   7   1   41.08    3.33
   6   7  -1   38.88    3.85
  -5  -7   1   33.74    2.25
   5   7  -1   25.83    2.62
  -5   7   1   25.97    2.33
   4  -7  -1   49.96    4.11
   4  -7  -1   52.15    3.95
  -4  -7   1   54.40    4.18
   4   7  -1   46.59    3.89
  -4   7   1   48.60    3.72
  -3   7   1   10.03    1.11
   3   7  -1   10.24    1.36
   3   7  -1   11.37    1.04
  -2  -7   1   29.15    2.61
   2  -7  -1   28.85    2.58
   2   7  -1   26.69    2.09
   2   7  -1   25.70    2.28
  -2   7   1   25.18    2.24
   1  -7  -1    8.75    1.60
  -1   7   1    5.17    0.75
   1   7  -1    5.58    0.76
   1   7  -1    5.14    0.97
  -1   7   1    3.44    0.82
   0  -7  -1    0.90    0.93
   0  -7   1    0.53    0.99
   0   7   1    0.13    0.60
   0   7  -1   -0.30    0.48
   0   7   1   -0.24    0.51
   0   7  -1    0.49    0.59
  -1  -7  -1    2.22    1.02
   1   7   1    2.04    0.72
  -1   7  -1    1.89    0.71
   1   7   1    3.04    0.57
  -1   7  -1    1.62    0.44
  -2  -7  -1   20.59    2.38
  -2   7  -1   21.97    1.88
   2   7   1   26.31    1.88
   2   7   1   23.82    2.10
  -2   7  -1   23.77    2.05
   3   7   1   31.06    2.62
  -3   7  -1   30.36    2.40
  -4  -7  -1   96.26    6.51
  -4  -7  -1   87.92    6.91
   4  -7   1   95.93    6.72
   4  -7   1   89.66    6.85
  -4   7  -1   87.62    6.52
   4   7   1   88.97    6.74
  -5  -7  -1   22.12    2.55
  -5   7  -1   16.93    1.64
   5   7   1   16.42    2.02
  -6  -7  -1   29.96    3.97
   6  -7   1   37.79    3.79
   6  -7   1   39.78    3.06
   6   7   1   30.49    3.16
  -6   7  -1   29.56    2.66
  -7  -7  -1   13.37    2.64
   7   7   1   13.23    2.41
  -7   7  -1   15.68    1.65
  -8  -7  -1   22.83    3.28
   8  -7   1   26.08    4.50
   8   7   1   22.89    3.18
  -8   7  -1   23.71    2.15
   9  -7   1   13.75    3.29
  -9  -7  -1    5.16    2.04
   9   7   1    3.84    2.28
  -9   7  -1    8.49    1.34
  10  -7   1   29.61    4.78
   8  -8  -1   31.82    4.71
  -8  -8   1   30.24    3.48
   8   8  -1   25.79    3.50
  -8   8   1   25.71    2.45
  -7  -8   1    1.33    1.74
   7  -8  -1    6.01    2.43
  -7   8   1    0.35    0.93
   7   8  -1   -1.02    1.75
   6  -8  -1    5.32    2.14
  -6  -8   1    6.23    1.88
   6   8  -1    5.28    1.63
  -6   8   1    5.79    1.12
   5  -8  -1    1.01    1.65
  -5  -8   1    2.10    1.49
   5   8  -1    0.93    1.15
  -5   8   1    0.70    0.91
   4  -8  -1   21.65    2.31
  -4  -8   1   19.48    2.65
   4  -8  -1   19.00    2.73
   4   8  -1   16.21    2.06
  -4   8   1   15.86    2.06
  -3  -8   1   19.61    2.72
   3  -8  -1   18.40    2.36
   2  -8  -1   27.18    2.89
  -2  -8   1   28.04    3.43
  -2   8   1   31.72    2.36
   2   8  -1   27.90    2.53
   2   8  -1   30.77    2.26
  -2   8   1   27.43    2.61
   0  -8   1  143.81   11.52
   0  -8  -1  145.55   11.56
   0   8   1  159.76   11.43
   0   8  -1  164.49   11.26
   0   8  -1  163.89   11.43
   0   8   1  179.77   11.28
   2  -8   1   52.31    4.45
  -2   8  -1   54.25    4.22
  -2   8  -1   57.07    4.06
  -4  -8  -1   11.55    2.37
   4  -8   1   17.05    2.70
   4  -8   1   16.38    2.18
   4   8   1   11.74    1.85
  -4   8  -1   12.86    1.46
  -5  -8  -1    1.07    1.53
   5  -8   1    0.39    1.71
   5  -8   1    3.85    1.56
  -5   8  -1    0.62    0.88
   5   8   1    0.65    1.21
   6  -8   1    4.60    2.33
  -6  -8  -1    3.51    1.75
   6   8   1    4.01    1.65
  -6   8  -1    6.46    1.23
  -7  -8  -1    1.18    1.77
   7  -8   1    0.84    2.63
   7   8   1   -1.34    1.74
  -7   8  -1    1.47    1.01
   8  -8   1   36.36    4.89
  -8  -8  -1   29.16    3.70
   8   8   1   32.13    3.71
  -8   8  -1   32.34    2.69
  -7  -9   1   33.90    3.36
   7  -9  -1   26.20    3.81
   6  -9  -1   39.59    4.15
  -6  -9   1   36.81    3.66
   6   9  -1   25.57    3.40
  -6   9   1   30.30    2.76
  -5  -9   1   35.20    3.70
   5  -9  -1   32.10    3.93
  -4  -9   1   41.52    3.81
   4  -9  -1   41.07    4.10
   4   9  -1   31.25    3.31
  -4   9   1   33.85    3.03
  -3   9   1   10.36    1.41
   3   9  -1    6.17    1.52
  -2   9   1   15.63    1.91
  -2   9   1   19.10    1.79
   2   9  -1   14.06    1.91
  -1   9   1    6.20    1.04
   1   9  -1    4.08    1.27
   0  -9  -1    4.80    1.91
  -1  -9  -1    5.94    1.73
   1   9   1    3.12    1.08
  -1   9  -1    1.82    0.98
  -2   9  -1   12.33    1.48
   2   9   1   13.46    1.90
  -3   9  -1   16.60    1.73
   3   9   1   14.17    2.03
   4  -9   1   60.16    5.05
  -4  -9  -1   55.68    4.78
   4   9   1   45.01    4.33
  -4   9  -1   49.24    3.98
  -5   9  -1   17.39    1.88
   5   9   1   14.02    2.34
   6  -9   1   26.58    3.94
  -6  -9  -1   26.02    3.26
   6   9   1   18.97    2.98
  -6   9  -1   27.67    2.30
  -7  -9  -1   18.04    2.82
  -5  10   1    4.29    1.03
  -4 -10   1   22.73    2.89
   4 -10  -1   15.62    3.13
  -3 -10   1   27.78    3.12
  -1  10   1   41.72    3.57
   1  10  -1   41.92    3.59
   0 -10  -1   49.94    4.98
   0 -10   1   66.13    5.11
  -1  10  -1   40.38    3.58
  -1  10  -1   45.41    3.36
   1  10   1   41.02    3.61
   3 -10   1   29.24    3.55
  -3  10  -1   26.04    2.30
   3  10   1   18.26    2.53
   4 -10   1   17.75    3.01
 -14   0   2   41.02    3.78
  13   0  -2    3.03    2.48
 -13   0   2   14.38    2.09
  12   0  -2   46.23    4.58
 -12   0   2   38.44    3.57
  11   0  -2   -0.33    2.37
 -11   0   2    3.45    1.61
 -10   0   2  166.79   12.20
 -10   0   2  164.33   12.32
  10   0  -2  190.80   12.69
   9   0  -2    0.98    1.18
  -9   0   2    0.14    0.47
  -9   0   2    0.64    0.64
   8   0  -2   93.99    6.78
  -8   0   2   87.66    6.52
  -7   0   2    0.06    0.33
   7   0  -2   -1.32    0.90
   6   0  -2   28.28    2.43
  -6   0   2   25.48    2.04
  -6   0   2   25.90    1.94
  -4   0   2   45.09    3.11
   4   0  -2   42.48    3.41
  -4   0   2   43.78    3.15
   3   0  -2    0.64    0.72
  -2   0   2  103.07    7.24
   2   0  -2   98.28    7.23
   2   0  -2  106.20    7.25
  -2   0   2  107.30    7.25
   1   0  -2    1.34    0.18
   1   0  -2    0.61    0.35
   1   0  -2    0.87    0.14
  -1   0   2    0.82    0.14
  -1   0   2    1.25    0.22
   0   0  -2  159.49   11.16
  -1   0  -2    0.80    0.14
   1   0   2    1.28    0.28
   1   0   2    0.63    0.13
  -1   0  -2    1.15    0.20
  -1   0  -2    1.69    0.41
   1   0   2    0.96    0.19
  -3   0  -2   -0.19    0.15
   3   0   2   -0.04    0.54
  -3   0  -2    0.33    0.40
   3   0   2    0.30    0.25
   3   0   2   -0.01    0.13
  -4   0  -2   46.65    3.02
  -4   0  -2   45.72    3.17
   4   0   2   37.93    3.26
   4   0   2   40.25    3.09
  -5   0  -2    0.01    0.25
   5   0   2    0.50    0.83
  -5   0  -2   -0.31    0.65
  -6   0  -2    7.99    0.75
  -6   0  -2   10.46    1.26
   6   0   2    9.26    1.44
  -7   0  -2   -0.07    0.35
  -7   0  -2   -0.64    0.87
   7   0   2   -0.43    1.01
   8   0   2  106.67    7.76
  -8   0  -2   97.26    7.53
  -8   0  -2  108.09    7.34
  -9   0  -2    0.16    1.04
  -9   0  -2    0.27    0.51
   9   0   2    0.50    1.54
  10   0   2   65.33    5.59
 -10   0  -2   65.56    5.15
  11   0   2   -1.64    2.15
 -11   0  -2    3.35    1.76
 -12   0  -2   93.54    7.35
  12   0   2  102.40    8.01
  13   0   2    1.23    2.11
 -14   1   2   55.86    4.38
 -13  -1   2   22.51    2.70
 -13   1   2   26.34    2.79
  12  -1  -2    6.24    2.45
 -12   1   2    7.31    1.09
  12   1  -2    7.51    2.54
 -11  -1   2    4.87    1.33
  11  -1  -2    1.39    1.70
 -11   1   2    4.79    1.13
 -11   1   2    1.76    0.76
  11   1  -2    3.25    2.20
  10  -1  -2    0.12    1.61
 -10  -1   2    1.79    0.93
 -10   1   2    1.15    0.60
  10   1  -2   -0.26    1.81
 -10   1   2    3.24    0.89
  10   1  -2    2.21    0.70
  -9  -1   2   13.69    1.51
  -9   1   2   12.59    1.40
  -9   1   2   13.60    1.21
   9   1  -2   16.26    1.66
   9   1  -2   13.85    2.38
  -8  -1   2   67.75    5.47
   8  -1  -2   83.97    5.86
  -8   1   2   73.65    5.37
   8   1  -2   72.23    5.94
   8   1  -2   85.24    5.40
  -8   1   2   70.61    5.44
  -7  -1   2   36.28    2.85
  -7   1   2   39.59    2.81
  -7   1   2   37.64    2.81
   7   1  -2   34.80    3.40
  -6  -1   2  172.84   12.47
  -6   1   2  180.51   12.45
  -6   1   2  178.95   12.41
   5  -1  -2  111.39    7.22
  -5  -1   2   88.42    6.96
  -5   1   2   93.30    6.95
  -5   1   2   95.16    6.91
   5   1  -2  105.03    6.92
  -4  -1   2   92.52    6.13
  -4   1   2   92.75    6.09
  -4   1   2   75.18    6.10
   3  -1  -2    5.12    0.83
  -3  -1   2    2.51    0.44
  -3   1   2    3.74    0.36
   2  -1  -2   85.66    6.01
   2  -1  -2   83.82    5.97
  -2  -1   2   92.10    5.96
  -2  -1   2   85.00    5.98
  -2   1   2   80.59    5.96
   2   1  -2   86.62    6.00
   2   1  -2   87.90    5.97
   2   1  -2   78.64    6.01
  -2   1   2   87.80    5.97
   1  -1  -2    8.98    0.62
  -1  -1   2    8.08    0.58
  -1  -1   2    6.40    0.69
  -1  -1   2    8.34    0.61
   1  -1  -2    7.93    0.58
   1  -1  -2    7.31    0.58
   1   1  -2    8.44    0.59
   1   1  -2    6.85    0.59
   1   1  -2    7.45    0.72
  -1   1   2    7.17    0.58
   0  -1   2    0.10    0.13
   0  -1  -2    0.21    0.11
   0  -1  -2    0.08    0.10
   0  -1  -2    0.20    0.10
   0  -1   2    0.31    0.12
   0  -1   2   -0.32    0.22
   0  -1   2    0.13    0.09
   0  -1  -2    0.25    0.13
   0   1   2    0.14    0.10
   0   1  -2    0.27    0.08
   0   1  -2    0.35    0.14
   0   1   2   -0.03    0.09
   0   1  -2    0.19    0.13
   0   1   2    0.17    0.15
   0   1  -2    0.03    0.25
  -1  -1  -2    3.65    0.40
  -1  -1  -2    3.62    0.40
   1  -1   2    4.44    0.37
   1  -1   2    3.43    0.35
  -1  -1  -2    4.91    0.43
  -1   1  -2    3.53    0.36
  -1   1  -2    4.13    0.50
   1   1   2    4.36    0.42
   1   1   2    4.21    0.42
   2  -1   2   37.47    3.03
  -2  -1  -2   44.00    2.95
   2   1   2   40.93    2.99
  -2   1  -2   42.47    2.92
   2   1   2   41.99    2.97
  -3  -1  -2  117.58    8.23
   3   1   2  120.68    8.29
  -3   1  -2  121.18    8.22
  -3   1  -2  111.97    8.17
   3   1   2  114.00    8.23
  -4  -1  -2  277.08   18.67
  -4   1  -2  260.06   18.58
   4   1   2  265.69   18.64
   4   1   2  264.75   18.74
  -5  -1  -2   43.28    3.42
  -5  -1  -2   48.50    3.18
   5  -1   2   40.09    3.59
   5   1   2   47.51    3.54
  -5   1  -2   44.08    3.21
   5   1   2   45.89    3.28
   6  -1   2   86.76    7.20
  -6  -1  -2   93.39    7.08
  -6  -1  -2  105.46    6.87
  -6   1  -2  103.88    6.90
  -6   1  -2   93.51    7.12
   6   1   2  104.09    7.25
  -7  -1  -2   28.89    2.72
  -7  -1  -2   33.15    2.34
   7  -1   2   31.21    2.87
  -7   1  -2   34.23    2.38
  -7   1  -2   31.37    2.65
   7   1   2   33.50    2.97
   8  -1   2   25.12    2.55
  -8  -1  -2   23.69    2.31
  -8  -1  -2   26.18    1.90
  -8   1  -2   25.04    1.92
   8   1   2   25.42    2.58
  -8   1  -2   25.20    2.26
  -9  -1  -2    4.39    1.26
   9  -1   2    3.54    1.43
  -9   1  -2    4.30    0.70
   9   1   2    3.80    1.64
  -9   1  -2    4.05    1.09
  10  -1   2   13.51    2.68
 -10  -1  -2   17.14    2.44
 -10   1  -2   16.58    2.22
  10   1   2   15.62    2.48
 -10   1  -2   14.05    1.33
  11  -1   2   -0.74    2.24
  11   1   2    1.60    2.20
  12  -1   2   18.19    3.69
 -12  -1  -2   28.30    2.97
 -12   1  -2   28.91    3.01
  12   1   2   20.16    3.65
 -13  -2   2   46.72    3.62
  13  -2  -2   41.80    4.66
 -13   2   2   44.96    3.71
  13   2  -2   34.47    4.38
  12  -2  -2    9.22    2.52
  12   2  -2    4.34    2.22
 -12   2   2    6.24    1.05
 -11  -2   2   50.94    3.83
 -11   2   2   39.01    3.67
  11   2  -2   52.61    4.49
 -11   2   2   45.61    3.48
 -10  -2   2   23.13    2.20
 -10   2   2   20.58    1.77
  10   2  -2   21.49    3.13
   9  -2  -2  140.48    9.85
  -9  -2   2  130.62    9.48
   9   2  -2  141.62    9.41
   9   2  -2  121.47    9.92
  -9   2   2  129.48    9.37
   8  -2  -2   13.14    2.18
  -8  -2   2   10.33    1.26
   8   2  -2    9.37    1.24
   8   2  -2    9.91    1.99
  -8   2   2   10.12    0.96
  -8   2   2   10.43    1.09
   7  -2  -2   25.35    2.86
  -7  -2   2   24.75    2.13
   7   2  -2   23.70    2.11
  -7   2   2   28.75    2.06
  -7   2   2   27.32    1.97
  -6  -2   2    1.41    0.62
   6  -2  -2    4.41    1.22
   6   2  -2    3.69    0.74
   6   2  -2    3.08    1.26
  -6   2   2    2.33    0.49
  -5  -2   2    6.61    0.88
   5  -2  -2    9.19    1.37
  -5   2   2    8.88    0.74
  -5   2   2    9.36    0.79
   5   2  -2    8.70    0.90
   5   2  -2    8.75    1.27
   4  -2  -2    5.17    0.91
  -4  -2   2    3.29    0.54
  -4   2   2    3.93    0.44
   4   2  -2    4.61    0.59
   4   2  -2    5.00    0.82
   3  -2  -2   33.78    2.36
  -3  -2   2   28.60    2.26
  -3   2   2   29.24    2.24
   3   2  -2   29.45    2.34
   3   2  -2   31.32    2.24
  -3   2   2   35.27    2.25
  -2  -2   2    8.61    0.80
   2  -2  -2   10.52    0.76
  -2  -2   2    9.77    1.03
   2   2  -2   12.25    0.86
  -2   2   2    9.81    0.78
  -2   2   2   10.72    0.77
   1  -2  -2  296.17   19.68
  -1  -2   2  281.43   19.66
  -1  -2   2  277.16   19.60
  -1   2   2  283.12   19.65
   1   2  -2  265.05   19.63
   1   2  -2  321.83   19.62
  -1   2   2  249.19   19.60
   0  -2   2   53.45    3.70
   0  -2  -2   53.92    3.62
   0  -2  -2   45.12    3.61
   0   2   2   58.87    3.67
   0   2   2   43.87    3.61
   0   2  -2   57.62    3.66
   0   2   2   52.21    3.67
   0   2  -2   48.12    3.62
  -1  -2  -2  180.88   12.50
   1  -2   2  176.59   12.55
  -1   2  -2  184.01   12.53
   1   2   2  184.17   12.55
  -1   2  -2  180.51   12.50
   1   2   2  170.08   12.53
   2  -2   2   40.48    2.66
   2  -2   2   38.34    2.76
  -2  -2  -2   37.85    2.71
   2   2   2   36.37    2.74
  -2   2  -2   37.19    2.68
  -2   2  -2   36.79    2.69
   2   2   2   37.11    2.74
  -3  -2  -2  178.81   12.25
   3  -2   2  175.68   12.29
   3  -2   2  180.00   12.30
  -3   2  -2  181.07   12.23
   3   2   2  172.07   12.26
   3   2   2  170.71   12.28
  -3   2  -2  165.75   12.20
  -4  -2  -2    5.63    0.93
   4  -2   2    4.81    0.90
   4   2   2    4.73    0.84
   4   2   2    5.46    0.66
  -4   2  -2    4.64    0.52
   5  -2   2    4.44    1.29
  -5  -2  -2    4.37    1.40
  -5   2  -2    4.97    0.56
   5   2   2    7.18    1.24
   5   2   2    5.42    0.72
  -5   2  -2    5.81    0.85
   6  -2   2    2.10    1.21
  -6  -2  -2    0.54    0.95
  -6   2  -2    0.72    0.46
   6   2   2   -0.20    0.86
   6   2   2    1.45    0.47
  -6   2  -2    0.81    0.72
   7  -2   2   24.22    2.76
  -7  -2  -2   26.10    2.35
  -7   2  -2   25.72    2.16
  -7   2  -2   27.05    1.96
   7   2   2   25.47    2.54
   8  -2   2   11.51    2.21
  -8  -2  -2   12.26    1.71
  -8   2  -2   13.62    1.51
  -8   2  -2   12.79    1.14
   8   2   2   14.31    1.98
   8   2   2   13.12    1.30
   9  -2   2   56.06    5.09
  -9  -2  -2   59.90    4.81
  -9   2  -2   64.02    4.64
   9   2   2   62.48    5.06
  -9   2  -2   61.34    4.40
 -10  -2  -2   15.66    2.18
  10  -2   2   10.13    3.94
 -10   2  -2    9.50    1.16
  11  -2   2   64.10    5.67
 -11  -2  -2   67.97    5.29
 -11   2  -2   61.54    4.65
 -11   2  -2   63.33    5.05
  11   2   2   64.13    5.66
  12  -2   2   16.16    3.01
  12   2   2   16.32    2.94
 -13   2  -2   76.63    5.81
  13  -3  -2   23.91    3.40
  13   3  -2   18.92    3.36
 -13   3   2   17.91    1.93
  12  -3  -2    5.45    2.53
 -12  -3   2    5.15    1.35
  12   3  -2   -1.13    2.58
 -12   3   2    2.01    0.94
  11  -3  -2    3.37    2.47
 -11   3   2    4.82    1.09
  11   3  -2    7.22    2.66
 -10  -3   2    2.82    1.07
  10  -3  -2   -0.20    2.29
  10   3  -2    0.87    2.09
 -10   3   2    0.80    0.66
 -10   3   2    1.28    0.74
   9  -3  -2   30.83    3.77
  -9  -3   2   36.93    2.83
  -9   3   2   33.42    2.56
  -9   3   2   32.80    2.60
  -8  -3   2    3.47    0.80
  -8   3   2    3.84    0.60
  -8   3   2    2.94    0.63
   8   3  -2    4.25    0.81
   8   3  -2    4.04    1.62
   7  -3  -2  101.84    7.66
  -7  -3   2  108.04    7.31
   7   3  -2   87.33    7.60
  -7   3   2  108.84    7.23
   7   3  -2  103.26    7.23
  -6  -3   2    5.16    0.81
  -6   3   2    4.35    0.78
   6   3  -2    8.85    1.37
   6   3  -2    6.84    0.77
  -6   3   2    6.38    0.67
   5  -3  -2  291.71   18.30
  -5  -3   2  238.21   18.12
  -5   3   2  278.85   18.11
   5   3  -2  253.72   18.07
  -5   3   2  234.65   18.11
   4  -3  -2    4.36    0.71
  -4  -3   2    2.99    0.76
  -4   3   2    3.19    0.43
  -4   3   2    3.15    0.41
   4   3  -2    3.47    0.44
   4   3  -2    3.27    0.61
  -3  -3   2   27.43    2.17
   3  -3  -2   34.28    2.30
  -3  -3   2   31.87    2.35
  -3   3   2   28.07    2.15
   3   3  -2   28.10    2.13
   3   3  -2   29.56    2.24
  -3   3   2   29.86    2.13
  -2  -3   2    2.14    0.65
  -2  -3   2    1.66    0.32
   2  -3  -2    2.51    0.54
  -2   3   2    3.15    0.47
  -2   3   2    2.08    0.32
   1  -3  -2   27.34    2.09
  -1  -3   2   24.26    2.05
  -1   3   2   28.26    1.98
   1   3  -2   26.08    1.89
   1   3  -2   27.18    1.96
  -1   3   2   25.18    1.89
   0  -3  -2    0.26    0.23
   0  -3   2   -0.37    0.40
   0  -3  -2    0.15    0.17
   0  -3  -2    0.62    0.53
   0   3  -2    0.13    0.21
   0   3  -2    0.08    0.28
   0   3   2    0.21    0.30
  -1  -3  -2    8.86    0.69
  -1  -3  -2   10.57    0.79
  -1  -3  -2    8.77    1.16
  -1   3  -2    9.46    0.76
  -1   3  -2    9.97    0.84
   1   3   2    8.64    0.70
   1   3   2    9.45    0.83
   2  -3   2    2.20    0.52
  -2  -3  -2    2.69    0.47
   2  -3   2    1.65    0.43
   2   3   2    1.75    0.40
  -2   3  -2    1.85    0.36
   3  -3   2  264.18   19.09
   3  -3   2  299.66   19.11
  -3  -3  -2  280.00   19.07
  -3   3  -2  267.12   19.02
   3   3   2  253.73   19.09
  -4  -3  -2   10.30    1.25
  -4   3  -2    9.91    0.85
  -4   3  -2    8.48    0.92
   4   3   2   10.17    1.03
   5  -3   2  125.42    9.05
  -5  -3  -2  124.59    8.94
  -5   3  -2  123.33    8.79
   5   3   2  123.88    8.97
  -5   3  -2  128.33    8.82
   6  -3   2    4.86    1.35
  -6  -3  -2    4.04    1.04
   6   3   2    6.44    1.24
  -6   3  -2    3.80    0.68
  -6   3  -2    4.11    0.60
  -7  -3  -2   83.76    6.31
  -7   3  -2   85.73    6.10
   7   3   2   88.56    6.49
  -8  -3  -2    1.23    1.11
   8  -3   2    1.50    1.68
   8   3   2    1.19    1.43
  -8   3  -2    1.36    0.53
  -8   3  -2    2.02    0.69
  -9  -3  -2   13.16    1.79
   9  -3   2   10.04    2.42
  -9  -3  -2    6.45    3.02
  -9   3  -2    7.23    1.05
   9   3   2    9.90    2.29
  -9   3  -2   11.07    1.45
  10  -3   2    2.66    2.21
 -10  -3  -2    4.96    1.79
 -10   3  -2    3.49    1.08
 -10   3  -2    1.16    0.77
  10   3   2   -1.31    2.00
  11  -3   2    1.66    2.45
  11   3   2    0.41    2.46
 -13   4   2   14.39    1.65
  12  -4  -2   21.49    4.30
  12   4  -2   11.39    3.12
 -12   4   2   14.07    1.62
  11  -4  -2   31.69    4.40
 -11   4   2   21.37    1.98
  11   4  -2   19.10    3.88
  10  -4  -2   63.71    5.74
 -10  -4   2   62.10    4.60
 -10   4   2   54.05    4.48
  -9  -4   2   64.00    4.42
  -9   4   2   52.38    4.18
  -9   4   2   56.42    4.19
  -8  -4   2   27.12    2.21
   8  -4  -2   27.41    3.19
  -8   4   2   24.39    1.95
  -8   4   2   24.33    1.95
   8   4  -2   20.29    2.69
  -7  -4   2   12.62    1.35
  -7  -4   2   14.69    1.72
   7   4  -2   11.44    1.72
  -7   4   2   12.15    1.13
  -7   4   2   14.23    1.17
   7   4  -2   12.49    1.05
  -6  -4   2    7.95    1.42
   6  -4  -2    9.49    1.57
  -6  -4   2    6.72    0.98
  -6   4   2    7.81    0.75
  -6   4   2    7.64    0.78
   6   4  -2    6.51    1.25
   6   4  -2    6.23    0.68
   5  -4  -2    2.61    0.80
  -5  -4   2    2.91    0.63
   5   4  -2    4.05    0.79
  -5   4   2    2.91    0.49
  -5   4   2    4.14    0.56
   5   4  -2    3.07    0.48
   4  -4  -2   17.38    1.59
  -4  -4   2   18.98    1.78
  -4   4   2   16.11    1.33
   4   4  -2   16.82    1.29
   4   4  -2   16.83    1.50
  -3  -4   2   13.57    1.20
  -3  -4   2   16.37    1.64
   3  -4  -2   13.76    1.36
   3   4  -2   16.67    1.32
  -3   4   2   16.02    1.21
   3   4  -2   15.63    1.16
  -2  -4   2   30.72    2.40
  -2  -4   2   26.25    2.06
   2  -4  -2   27.72    2.27
  -2   4   2   27.32    2.08
   2   4  -2   28.82    2.16
  -2   4   2   31.47    2.19
   1  -4  -2  104.29    7.40
  -1   4   2   99.04    7.24
  -1   4   2  104.22    7.33
   1   4  -2  101.49    7.24
   1   4  -2  107.66    7.32
   0  -4  -2  135.12    9.55
   0  -4   2  153.55    9.70
   0  -4  -2  135.09    9.73
   0   4  -2  127.23    9.57
   0   4   2  132.74    9.65
   0   4  -2  137.84    9.64
   1  -4   2   89.34    5.97
  -1  -4  -2   84.25    5.86
  -1  -4  -2   82.38    6.07
   1   4   2   78.01    5.83
  -1   4  -2   83.53    5.93
  -1   4  -2   84.35    5.87
   1   4   2   80.97    5.93
  -2  -4  -2  103.21    7.26
   2  -4   2  102.15    7.15
  -2  -4  -2   99.98    7.09
   2   4   2   95.45    7.13
  -2   4  -2  100.84    7.06
  -3  -4  -2   66.53    4.80
  -3  -4  -2   62.03    4.57
   3   4   2   61.84    4.57
  -3   4  -2   61.15    4.47
   4  -4   2   11.71    1.22
   4  -4   2   14.35    1.49
  -4  -4  -2   13.76    1.76
  -4  -4  -2   12.74    1.43
   4   4   2    9.98    1.16
  -4   4  -2   10.57    1.01
  -5  -4  -2    0.98    1.04
   5  -4   2    1.94    0.70
  -5  -4  -2    2.16    0.94
   5  -4   2    1.31    0.96
   5   4   2    1.07    0.64
  -5   4  -2    2.10    0.41
  -5   4  -2    1.39    0.46
  -6  -4  -2    1.22    0.99
   6  -4   2    2.80    1.44
  -6  -4  -2    3.02    1.03
   6   4   2    2.85    0.89
  -6   4  -2    3.37    0.57
  -6   4  -2    2.42    0.52
  -7  -4  -2   12.04    2.05
  -7  -4  -2   13.35    1.77
   7  -4   2   15.88    2.24
  -7   4  -2    9.85    1.10
   7   4   2   12.36    1.77
  -8  -4  -2   36.25    3.45
  -8  -4  -2   38.60    3.34
   8   4   2   37.76    3.41
  -8   4  -2   35.52    2.77
  -8   4  -2   36.01    2.76
  -9  -4  -2   26.26    3.22
   9  -4   2   36.19    4.61
  -9   4  -2   30.99    2.27
   9   4   2   31.06    3.33
  -9   4  -2   26.68    2.32
  10  -4   2   24.00    3.56
  10   4   2   20.84    3.31
 -10   4  -2   21.71    1.97
  11  -4   2   30.42    4.24
 -11   4  -2   26.81    2.38
  11   4   2   26.21    3.75
  12  -4   2   32.83    4.22
 -12   4  -2   31.60    2.70
  12   4   2   34.25    3.76
  12  -5  -2    9.02    2.83
 -12   5   2    7.71    1.21
  12   5  -2    2.05    2.39
  11  -5  -2    6.16    3.38
  10  -5  -2    3.80    3.08
 -10   5   2    0.53    0.77
  10   5  -2   -2.99    2.14
  -9  -5   2    3.52    1.03
   9  -5  -2    7.26    2.41
  -9  -5   2    1.87    1.29
  -9   5   2    0.65    0.70
   9   5  -2   -0.90    1.73
   8  -5  -2   50.72    5.14
  -8  -5   2   59.73    4.63
  -8  -5   2   65.81    4.41
   8   5  -2   51.91    4.84
  -8   5   2   59.50    4.26
  -7  -5   2    4.39    0.83
  -7  -5   2    3.92    1.12
  -7   5   2    5.23    0.58
  -7   5   2    3.98    0.72
   7   5  -2    4.27    1.33
   6  -5  -2  118.48    9.45
  -6  -5   2  131.12    9.26
   6   5  -2  135.65    9.15
   6   5  -2  133.28    9.48
  -6   5   2  135.41    9.24
  -5  -5   2    6.82    0.94
   5  -5  -2    9.92    1.39
  -5   5   2    7.10    0.80
   5   5  -2    6.58    1.06
   5   5  -2    6.69    0.68
   4  -5  -2   62.85    5.15
  -4  -5   2   72.38    5.07
   4  -5  -2   67.92    5.24
  -4  -5   2   68.17    5.30
   4   5  -2   78.38    5.04
  -4   5   2   76.32    5.09
   4   5  -2   72.59    5.21
  -3  -5   2    0.70    0.38
   3   5  -2    1.49    0.38
   3   5  -2    1.43    0.51
  -3   5   2    0.86    0.40
  -2  -5   2   45.77    3.99
  -2   5   2   54.77    3.89
   2   5  -2   56.48    3.89
  -2   5   2   54.04    3.84
   1  -5  -2    0.65    0.80
  -1  -5   2    2.47    0.80
   1   5  -2    1.40    0.40
  -1   5   2    1.75    0.53
  -1   5   2    1.35    0.39
   1   5  -2    1.53    0.52
   0  -5   2   -1.02    0.68
   0  -5  -2   -0.16    0.77
   0   5  -2    0.36    0.43
   0   5   2    0.03    0.42
   0   5  -2    0.02    0.40
  -1  -5  -2    0.55    0.56
   1  -5   2    1.21    0.65
  -1  -5  -2   -0.52    0.80
  -1   5  -2    0.56    0.42
   1   5   2    0.21    0.46
  -1   5  -2    0.23    0.43
   1   5   2   -0.02    0.29
  -2  -5  -2   34.99    2.80
  -2  -5  -2   35.08    3.09
  -2   5  -2   36.86    2.69
  -2   5  -2   38.37    2.78
   2   5   2   38.12    2.61
   2   5   2   35.61    2.79
  -3  -5  -2    6.54    1.15
  -3  -5  -2    6.82    1.26
  -3   5  -2    5.96    0.75
   3   5   2    6.74    0.89
   4  -5   2  170.69   13.20
   4  -5   2  179.31   13.18
  -4  -5  -2  202.62   13.35
  -4  -5  -2  187.46   13.17
  -4   5  -2  193.47   13.09
   4   5   2  186.55   13.22
  -5  -5  -2    3.15    0.98
  -5  -5  -2    3.19    1.23
  -5   5  -2    4.46    0.67
   5   5   2    5.06    1.01
  -6  -5  -2   90.44    6.39
  -6  -5  -2   83.68    6.17
   6  -5   2   75.56    6.36
   6   5   2   82.60    6.22
  -6   5  -2   85.01    5.97
  -7  -5  -2    0.77    1.20
  -7  -5  -2    5.45    1.23
  -7   5  -2    3.57    0.72
   7   5   2    2.63    1.25
   8  -5   2   19.41    3.84
  -8  -5  -2   23.04    2.91
  -8   5  -2   24.07    1.97
  -9  -5  -2    6.04    1.90
   9  -5   2    1.92    2.99
  -9  -5  -2    0.49    1.77
   9   5   2    0.61    1.68
  -9   5  -2    0.64    0.76
 -10  -5  -2   11.99    2.05
  10  -5   2   13.99    3.30
 -10   5  -2   12.06    1.50
  10   5   2   13.09    2.73
  11  -5   2    4.45    3.18
 -11   5  -2   -0.63    0.91
  11   5   2   -0.75    2.25
 -12   5  -2   13.99    1.83
  10  -6  -2   69.70    6.99
 -10   6   2   66.37    5.00
  -9   6   2   12.84    1.50
   9   6  -2   14.08    2.71
   8  -6  -2   30.75    4.16
  -8  -6   2   41.31    2.93
  -8  -6   2   32.29    3.34
   8   6  -2   32.67    3.49
  -8   6   2   34.13    2.73
  -7  -6   2    1.51    0.84
   7  -6  -2    4.21    1.66
  -7   6   2    3.30    0.72
   7   6  -2    1.70    1.24
  -6  -6   2    9.79    1.51
  -6  -6   2   12.39    1.14
   6  -6  -2   10.04    1.75
  -6   6   2    8.07    1.08
   6   6  -2    8.56    1.49
   5  -6  -2    1.58    1.07
  -5  -6   2    2.35    0.56
  -5  -6   2    1.17    1.04
   5   6  -2    1.93    0.37
  -5   6   2    0.99    0.54
   5   6  -2    1.18    0.80
  -4  -6   2   20.72    1.55
   4  -6  -2   17.66    1.77
  -4  -6   2   18.47    2.08
   4  -6  -2   22.06    2.02
  -4   6   2   17.92    1.57
   4   6  -2   18.25    1.73
   4   6  -2   21.25    1.52
  -3  -6   2    5.18    0.60
   3   6  -2    3.66    0.74
   3   6  -2    3.80    0.62
  -3   6   2    4.59    0.81
  -3   6   2    3.86    0.64
   2  -6  -2   36.77    2.98
  -2  -6   2   34.67    3.07
  -2   6   2   38.30    2.90
   2   6  -2   39.30    2.89
   1   6  -2   18.95    1.62
  -1   6   2   18.37    1.63
   1   6  -2   18.56    1.50
  -1   6   2   18.84    1.49
   0  -6   2  133.56    9.52
   0  -6  -2  135.22    9.58
   0   6  -2  116.59    9.33
   0   6  -2  139.97    9.46
   0   6   2  139.28    9.48
  -1  -6  -2   16.83    1.79
  -1   6  -2   12.47    1.17
  -1   6  -2   12.29    1.29
   1   6   2   13.31    1.10
   1   6   2   14.26    1.35
  -2  -6  -2   99.54    7.53
   2  -6   2   98.18    7.41
  -2  -6  -2   98.44    7.29
   2   6   2  102.20    7.40
  -2   6  -2  104.76    7.27
  -2   6  -2  104.10    7.37
   2   6   2  110.96    7.21
  -3  -6  -2   13.15    1.45
  -3  -6  -2   14.39    1.79
   3   6   2   11.90    1.32
  -3   6  -2   12.70    1.17
   4  -6   2   15.12    1.84
  -4  -6  -2   14.65    2.04
   4  -6   2   15.37    1.68
  -4  -6  -2   13.85    1.59
   4   6   2   15.46    1.55
  -4   6  -2   14.45    1.31
   5  -6   2    1.41    0.88
  -5  -6  -2    1.91    0.89
   5  -6   2    0.91    1.14
  -5  -6  -2    0.57    1.22
  -5   6  -2   -0.04    0.53
   5   6   2    0.30    0.86
   6  -6   2    5.16    1.16
   6  -6   2    3.81    1.79
  -6  -6  -2    4.05    1.50
  -6   6  -2    4.78    0.81
   6   6   2    2.57    1.18
  -7  -6  -2    2.27    1.60
   7  -6   2    9.40    2.52
   7   6   2    4.13    1.42
  -7   6  -2    3.71    0.82
  -8  -6  -2   55.16    4.51
   8  -6   2   37.16    5.05
   8   6   2   44.27    4.11
  -8   6  -2   42.54    3.43
  -9  -6  -2    4.36    1.97
   9   6   2    4.76    2.09
  -9   6  -2    7.50    1.18
 -10  -6  -2   24.78    3.21
  10  -6   2   30.76    5.09
  10   6   2   31.42    3.76
 -10   6  -2   29.39    2.44
  11  -6   2   40.34    6.54
 -11  -7   2   49.62    4.15
  10  -7  -2    1.52    3.04
  10   7  -2    4.76    2.41
 -10   7   2    2.64    0.90
   9  -7  -2   18.42    3.37
  -9   7   2   13.10    1.62
   9   7  -2   12.00    2.62
  -8  -7   2   15.38    2.39
  -8   7   2   14.14    1.62
   8   7  -2   13.66    2.68
   7  -7  -2   40.66    4.32
  -7  -7   2   49.73    3.31
  -7  -7   2   38.67    4.22
   7   7  -2   41.60    3.87
  -7   7   2   43.19    3.36
  -6  -7   2   34.90    2.64
  -5  -7   2   76.49    5.99
   5  -7  -2   79.94    6.03
   5  -7  -2   82.87    5.79
   5   7  -2   73.12    5.86
  -5   7   2   77.92    5.66
  -4   7   2   19.08    1.65
   4   7  -2   19.15    1.48
   4   7  -2   16.78    1.85
  -3  -7   2   21.65    2.31
   3  -7  -2   21.40    2.11
   3   7  -2   17.03    1.82
   3   7  -2   18.78    1.59
  -3   7   2   18.69    1.63
  -2   7   2   10.23    1.27
   2   7  -2   11.02    1.32
  -2   7   2   12.36    1.10
   1  -7  -2    8.60    1.33
  -1  -7   2    8.20    1.65
  -1   7   2    6.79    1.08
   1   7  -2    7.09    1.09
  -1   7   2    8.38    0.91
   1   7  -2    9.04    0.91
   0  -7   2    0.55    0.91
   0  -7  -2    0.91    0.90
   0   7  -2    0.14    0.59
   0   7   2    0.48    0.65
   0   7  -2   -0.11    0.49
  -1  -7  -2    2.73    1.14
   1  -7   2    5.60    1.25
   1   7   2    3.24    0.85
  -1   7  -2    4.37    0.69
   1   7   2    4.66    0.68
  -1   7  -2    3.07    0.77
  -2  -7  -2    7.50    1.42
   2   7   2    6.90    0.73
  -2   7  -2    7.05    0.93
   2   7   2    7.22    1.21
  -2   7  -2    6.74    1.06
   3  -7   2   65.16    5.33
  -3  -7  -2   65.55    5.44
   3  -7   2   78.68    5.28
  -3   7  -2   65.95    5.00
   3   7   2   70.12    5.20
  -4  -7  -2   38.59    3.47
  -4   7  -2   38.07    2.92
   4   7   2   37.73    3.17
  -5  -7  -2   57.52    3.96
   5  -7   2   53.29    4.16
  -5  -7  -2   41.99    4.31
   5  -7   2   52.99    4.52
  -6  -7  -2   19.02    2.60
   6   7   2   19.84    2.33
  -6   7  -2   17.37    1.75
  -7  -7  -2   26.65    3.54
   7  -7   2   40.25    4.55
  -7   7  -2   32.82    2.69
   7   7   2   33.66    3.34
   8  -7   2   26.87    4.63
  10  -7   2   18.77    5.80
   9  -8  -2   58.20    5.89
  -9  -8   2   58.91    4.98
  -9   8   2   56.74    4.36
   9   8  -2   53.45    5.23
   7  -8  -2   18.64    2.89
   7   8  -2   11.73    2.29
  -7   8   2   12.67    1.71
  -6  -8   2    4.89    1.81
   6  -8  -2    5.13    1.97
  -6   8   2    0.65    0.95
   6   8  -2    0.78    1.39
  -5  -8   2    7.54    1.82
   5  -8  -2    5.29    1.76
  -5   8   2    5.83    1.06
   5   8  -2    3.20    1.32
  -4  -8   2   14.61    2.36
   3  -8  -2   22.82    2.40
  -3  -8   2   16.13    2.71
   3   8  -2   20.91    1.62
   3   8  -2   16.71    2.65
  -3   8   2   20.09    1.85
  -2   8   2    0.97    0.74
  -2   8   2   -0.83    1.33
   2   8  -2    1.54    0.88
  -1  -8   2   75.39    6.12
   1  -8  -2   73.35    6.14
  -1   8   2   87.76    5.75
  -1   8   2   77.23    5.91
   1   8  -2   81.31    5.73
   1   8  -2   81.74    5.90
  -1  -8  -2   66.41    5.38
   1  -8   2   67.61    5.36
  -1   8  -2   67.69    5.10
   1   8   2   60.42    5.28
   1   8   2   75.74    4.87
   3  -8   2   47.12    4.00
  -3  -8  -2   43.75    4.08
  -3   8  -2   46.94    4.03
   3   8   2   50.46    3.90
   4  -8   2    6.06    1.71
  -4  -8  -2    2.56    1.46
   5  -8   2    2.10    1.97
   5  -8   2    7.05    2.36
  -5  -8  -2    0.15    1.51
  -5   8  -2    1.59    0.93
   5   8   2    0.41    1.25
  -6  -8  -2    1.27    1.73
   6  -8   2   -0.33    2.16
  -6   8  -2    2.40    1.00
   6   8   2    0.35    1.45
   7  -8   2   21.09    3.56
  -7  -8  -2   13.02    2.41
   7   8   2   16.45    2.78
  -7   8  -2   14.51    1.78
   7  -9  -2   37.39    3.83
  -7   9   2   28.17    2.50
   7   9  -2   27.86    3.24
  -6   9   2   20.11    2.02
   6   9  -2   17.71    2.73
   5  -9  -2   50.83    4.72
  -5  -9   2   53.73    4.63
  -5   9   2   48.46    3.91
   5   9  -2   48.15    4.29
   4  -9  -2   29.92    3.96
   4  -9  -2   40.59    3.46
  -4  -9   2   35.15    3.76
  -3  -9   2   19.61    2.78
   3   9  -2   14.14    1.99
  -3   9   2   15.18    1.73
  -2   9   2    9.97    1.48
   2   9  -2    6.39    1.33
  -2   9   2    6.39    1.32
  -1   9   2    6.97    1.10
   1   9  -2    6.71    1.04
   1   9  -2    5.24    1.25
  -1   9   2    4.82    1.37
   0  -9  -2    4.15    1.63
   0  -9   2    5.49    1.86
   0   9  -2   -0.21    0.89
   0   9  -2    0.51    1.10
   0   9   2    0.03    1.03
  -1  -9  -2    3.04    1.73
  -1   9  -2    3.77    0.98
  -1   9  -2    0.53    1.05
   1   9   2    2.18    1.06
  -2  -9  -2    6.85    1.88
  -2   9  -2    6.19    1.11
   2   9   2    5.78    1.50
   3  -9   2   46.80    4.19
  -3  -9  -2   40.94    3.90
  -3   9  -2   36.04    3.08
   3   9   2   36.07    3.46
  -4  -9  -2   29.52    3.35
   4   9   2   21.14    2.74
  -4   9  -2   23.12    2.21
  -5  -9  -2   31.66    3.67
   5  -9   2   38.90    4.19
   5   9   2   26.15    3.32
  -5   9  -2   32.84    2.75
   6  -9   2   25.76    3.79
  -6  -9  -2   24.84    3.11
  -6   9  -2   19.15    2.06
   7  -9   2   32.12    6.28
  -5  10   2    3.64    0.96
   4 -10  -2   24.00    3.54
  -4 -10   2   31.55    3.04
  -2  10   2   25.33    2.00
   2  10  -2   18.23    2.34
   0  10   2   42.73    3.74
   0  10  -2   48.40    3.42
   0  10  -2   43.41    3.74
  -2 -10  -2   42.87    3.97
   2  10   2   35.41    3.40
  -3 -10  -2   27.44    3.46
   3 -10   2   34.04    3.55
   3 -10   2   33.45    3.93
   4 -10   2    8.88    2.10
  -4  10  -2   14.36    1.46
  13   0  -3   57.07    5.55
 -13   0   3   58.25    4.67
 -12   0   3    3.15    1.31
  12   0  -3   -1.53    2.12
 -11   0   3   71.25    5.45
  10   0  -3    0.55    1.56
 -10   0   3    1.08    0.76
  -9   0   3  143.40   10.69
   9   0  -3  160.73   10.97
  -9   0   3  149.25   10.63
  -8   0   3   -0.22    0.44
  -8   0   3   -0.77    0.52
   8   0  -3    0.50    1.08
  -7   0   3   88.62    6.26
  -7   0   3   83.57    6.32
   7   0  -3   93.94    6.62
  -6   0   3   -0.84    0.38
   6   0  -3    0.60    0.85
  -6   0   3    0.23    0.32
  -5   0   3   15.06    1.31
   5   0  -3   17.95    1.86
  -5   0   3   17.21    1.27
  -4   0   3    0.06    0.24
   4   0  -3    0.09    0.74
  -4   0   3   -0.32    0.24
  -3   0   3   85.25    5.78
   3   0  -3   74.16    5.94
  -3   0   3   87.48    5.80
  -2   0   3   -0.02    0.15
   2   0  -3    0.26    0.23
  -2   0   3    0.15    0.36
   2   0  -3    0.11    0.61
   1   0  -3  296.14   19.95
  -1   0   3  305.79   19.95
  -1   0   3  269.25   19.94
   1   0  -3  276.08   19.94
   0   0  -3    0.65    0.17
   0   0   3    0.75    0.36
   0   0   3    0.47    0.14
   0   0  -3    0.75    0.29
   0   0  -3    0.83    0.14
   0   0   3    0.68    0.17
  -1   0  -3  170.61   11.69
  -1   0  -3  175.21   11.71
   1   0   3  172.75   11.69
   1   0   3  153.83   11.73
  -2   0  -3    0.44    0.28
   2   0   3    0.35    0.29
   2   0   3    0.15    0.13
  -2   0  -3    0.03    0.15
  -3   0  -3  203.06   13.65
  -3   0  -3  187.89   13.60
  -4   0  -3   -0.37    0.21
   4   0   3   -0.50    0.54
  -4   0  -3    0.76    0.52
   4   0   3    0.16    0.32
   5   0   3    0.78    0.77
   5   0   3    1.69    0.44
  -5   0  -3    0.83    0.29
  -5   0  -3    1.28    0.79
  -6   0  -3   -0.11    0.32
  -6   0  -3    0.17    0.89
   6   0   3    0.13    0.43
   6   0   3   -0.19    0.91
   7   0   3   63.48    4.93
  -7   0  -3   66.95    4.50
  -7   0  -3   59.09    4.77
   8   0   3   -0.29    1.21
  -8   0  -3    0.08    0.91
  -8   0  -3   -0.07    0.40
   9   0   3   74.22    5.62
  -9   0  -3   65.39    4.85
  -9   0  -3   65.51    5.26
  10   0   3    0.67    2.07
 -10   0  -3    4.40    1.58
  11   0   3   72.78    6.16
 -11   0  -3   70.58    5.71
 -13   0  -3   76.22    5.81
 -14   1   3   36.46    3.09
 -13  -1   3   24.24    2.61
  13  -1  -3   15.70    3.31
 -13   1   3   21.63    2.51
  12  -1  -3    3.21    2.04
 -12  -1   3    4.96    1.44
  12   1  -3    2.78    2.41
 -12   1   3    2.64    0.94
 -12   1   3    6.26    1.44
 -11  -1   3    3.91    1.37
  11  -1  -3    1.92    1.94
  11   1  -3    1.65    0.81
  11   1  -3    2.44    2.67
 -11   1   3    6.02    1.22
 -11   1   3    3.66    0.82
 -10  -1   3    0.67    0.75
  10  -1  -3   -0.32    1.46
  10   1  -3    0.13    1.75
 -10   1   3    0.69    0.63
  10   1  -3    0.75    0.73
 -10   1   3    0.56    0.80
   9  -1  -3   21.72    2.24
  -9  -1   3   17.38    1.72
   9   1  -3   21.85    1.67
  -9   1   3   16.91    1.51
  -9   1   3   17.66    1.67
   9   1  -3   18.49    2.59
   8  -1  -3   23.38    2.44
  -8  -1   3   16.96    1.67
  -8   1   3   18.92    1.65
   8   1  -3   22.18    1.65
   8   1  -3   17.93    2.54
  -8   1   3   18.77    1.53
  -7  -1   3  134.61    9.45
  -7   1   3  126.27    9.44
   7   1  -3  126.86    9.79
  -7   1   3  146.45    9.46
  -6  -1   3  110.94    8.35
  -6   1   3  122.12    8.32
  -6   1   3  121.96    8.36
  -5  -1   3  271.79   19.94
   5  -1  -3  303.81   20.11
  -5   1   3  294.48   19.94
  -5   1   3  269.95   19.91
   5   1  -3  288.71   19.96
   4  -1  -3   52.80    3.60
  -4  -1   3   40.52    3.31
  -4   1   3   45.05    3.29
  -4   1   3   45.97    3.32
   4   1  -3   48.68    3.31
  -3  -1   3   58.77    3.98
   3   1  -3   47.25    4.09
  -3   1   3   53.99    3.97
   3   1  -3   61.34    3.98
  -3   1   3   59.53    3.97
  -2  -1   3   40.64    3.19
   2  -1  -3   47.06    3.24
   2   1  -3   45.32    3.24
   2   1  -3   48.20    3.21
  -2   1   3   45.32    3.19
   1  -1  -3   16.47    1.11
   1  -1  -3   12.84    1.11
  -1  -1   3   15.83    1.11
   1  -1  -3   15.44    1.11
  -1  -1   3   16.36    1.11
   1  -1  -3   16.98    1.13
  -1  -1   3   16.08    1.21
   1   1  -3   13.02    1.11
   1   1  -3   15.72    1.11
   1   1  -3   13.32    1.18
   1   1  -3   16.35    1.12
   0  -1  -3    0.19    0.14
   0  -1  -3    0.05    0.12
   0  -1  -3   -0.01    0.13
   0  -1  -3    0.28    0.16
   0  -1   3   -0.47    0.27
   0  -1   3    0.14    0.13
   0   1  -3   -0.01    0.16
   0   1   3    0.20    0.14
   0   1   3    0.26    0.21
   0   1  -3    0.10    0.11
   1  -1   3    3.22    0.51
  -1  -1  -3    4.38    0.43
   1  -1   3    4.06    0.57
  -1  -1  -3    3.38    0.40
  -1   1  -3    3.46    0.35
  -1   1  -3    3.45    0.31
   1   1   3    3.49    0.44
   1   1   3    4.16    0.46
  -2  -1  -3    5.68    0.55
   2  -1   3    3.55    0.73
   2   1   3    5.70    0.57
  -2   1  -3    5.80    0.51
  -2   1  -3    4.41    0.44
  -3  -1  -3  176.09   11.79
  -3   1  -3  181.04   11.78
   3   1   3  163.22   11.82
   3   1   3  155.64   11.84
  -3   1  -3  166.38   11.74
  -4  -1  -3   77.03    5.28
   4   1   3   72.69    5.27
   4   1   3   74.20    5.35
  -4   1  -3   71.19    5.18
  -5  -1  -3  112.29    8.89
  -5  -1  -3  131.18    8.68
  -5   1  -3  123.57    8.70
   5   1   3  126.67    8.93
   5   1   3  127.29    8.79
  -6  -1  -3   51.50    4.09
   6  -1   3   48.86    4.26
  -6  -1  -3   55.87    3.81
  -6   1  -3   50.69    4.06
   6   1   3   57.65    3.94
  -6   1  -3   54.20    3.84
   6   1   3   57.20    4.22
  -7  -1  -3   69.35    4.83
   7  -1   3   59.39    5.21
  -7  -1  -3   64.18    5.11
   7   1   3   74.58    5.28
   7   1   3   74.47    4.98
  -7   1  -3   64.40    5.07
  -7   1  -3   71.17    4.90
  -8  -1  -3    6.66    1.27
  -8  -1  -3    6.53    0.74
   8  -1   3    6.95    1.44
  -8   1  -3    6.07    1.16
  -8   1  -3    6.86    0.78
   8   1   3    8.09    1.50
   9  -1   3    6.10    1.67
  -9  -1  -3    5.85    1.41
  -9   1  -3    5.71    0.79
  -9   1  -3    6.58    1.37
   9   1   3    4.33    1.74
  10  -1   3   10.29    2.85
 -10  -1  -3    9.46    1.93
 -10   1  -3    7.33    0.93
 -10   1  -3    9.61    1.81
  11  -1   3    3.30    2.82
 -11  -1  -3   17.32    2.75
 -11   1  -3   17.37    2.55
 -12  -1  -3   32.28    3.39
 -12   1  -3   29.93    3.32
 -13   1  -3   55.79    4.41
 -14   2   3   43.38    3.56
  13  -2  -3    7.92    2.51
  13   2  -3    7.34    2.45
 -13   2   3    9.41    1.39
  12  -2  -3   18.22    3.52
 -12  -2   3   26.63    2.42
  12   2  -3   18.29    3.30
 -12   2   3   19.06    1.91
 -12   2   3   22.29    2.40
 -11  -2   3   14.91    1.85
 -11   2   3   13.61    1.75
  11   2  -3   10.30    2.36
  10  -2  -3  139.46    9.96
 -10  -2   3  131.92    9.50
 -10   2   3  126.30    9.36
  10   2  -3  129.09   10.02
  10   2  -3  135.74    9.40
  -9  -2   3   16.94    1.64
   9   2  -3   12.92    2.61
  -9   2   3   16.79    1.38
   9   2  -3   16.36    1.70
  -8  -2   3   48.42    3.62
   8  -2  -3   47.61    4.13
  -8   2   3   47.86    3.53
   8   2  -3   50.75    3.64
  -7  -2   3    6.98    0.97
  -7   2   3    8.03    0.90
  -7   2   3    8.38    0.77
   7   2  -3    5.54    1.60
   7   2  -3    9.48    1.08
   6  -2  -3   42.32    3.41
  -6  -2   3   36.90    2.88
   6   2  -3   36.72    2.90
  -6   2   3   35.56    2.96
  -6   2   3   42.33    2.85
   5  -2  -3    2.46    0.82
  -5  -2   3    0.85    0.39
  -5   2   3    1.60    0.37
  -5   2   3    1.32    0.31
   5   2  -3    2.42    0.59
   5   2  -3    1.16    0.84
  -4  -2   3   37.76    2.98
   4  -2  -3   44.26    3.12
  -4   2   3   46.73    2.98
   4   2  -3   37.59    3.12
  -4   2   3   40.69    2.96
  -3  -2   3    7.43    0.74
   3  -2  -3   10.23    0.92
  -3  -2   3    7.86    0.92
   3   2  -3    8.93    0.76
  -3   2   3    9.04    0.71
   3   2  -3   10.26    0.88
  -2  -2   3  128.54    8.65
   2   2  -3  112.99    8.64
   2   2  -3  119.18    8.67
  -2   2   3  134.14    8.70
  -2   2   3  124.31    8.65
  -1  -2   3   29.94    2.16
  -1  -2   3   28.04    2.03
   1   2  -3   31.51    2.07
  -1   2   3   27.53    2.04
   1   2  -3   28.87    2.05
   1   2  -3   30.07    2.05
  -1   2   3   25.43    2.08
   0  -2  -3  102.86    7.35
   0  -2  -3  100.42    7.36
   0  -2   3  103.25    7.43
   0   2   3  107.57    7.40
   0   2  -3   99.63    7.36
   0   2  -3  110.27    7.38
   0   2   3  109.78    7.35
   0   2   3  109.40    7.41
  -1  -2  -3   23.53    1.67
   1  -2   3   22.42    1.76
  -1   2  -3   22.20    1.65
   1   2   3   22.36    1.71
   1   2   3   23.64    1.69
   2  -2   3  305.86   21.82
   2  -2   3  343.86   21.79
  -2  -2  -3  303.46   21.74
   2   2   3  313.46   21.80
   2   2   3  295.15   21.77
  -2   2  -3  323.82   21.72
  -2   2  -3  300.07   21.73
   3  -2   3   20.92    1.84
   3  -2   3   20.99    1.84
  -3  -2  -3   23.90    1.73
  -3   2  -3   22.72    1.72
  -3   2  -3   21.27    1.64
   3   2   3   22.93    1.76
   3   2   3   24.37    1.75
  -4  -2  -3   27.42    2.10
   4   2   3   26.92    2.02
  -4   2  -3   25.24    1.91
   4   2   3   25.24    2.10
   5  -2   3    0.12    1.16
   5  -2   3   -0.42    0.53
  -5  -2  -3    0.26    0.83
  -5   2  -3   -0.06    0.69
  -5   2  -3   -0.05    0.31
   5   2   3    0.44    0.39
   5   2   3    0.63    0.89
  -6  -2  -3    0.47    0.90
   6  -2   3    0.05    1.15
   6   2   3    1.23    0.93
   6   2   3    1.95    0.93
  -6   2  -3    1.62    0.42
  -6   2  -3    1.05    0.91
   7  -2   3    9.44    1.82
  -7  -2  -3    7.72    1.30
   7   2   3    7.65    1.55
  -7   2  -3    8.63    1.22
   7   2   3    7.31    1.00
  -7   2  -3    6.68    0.77
   8  -2   3   66.10    5.96
  -8  -2  -3   72.35    5.78
  -8   2  -3   78.75    5.68
   8   2   3   83.57    5.62
  -8   2  -3   75.48    5.50
   8   2   3   86.13    5.99
   9  -2   3   10.89    2.09
  -9  -2  -3   12.91    1.79
   9   2   3   13.84    2.26
  -9   2  -3   14.94    1.81
  -9   2  -3   10.10    1.15
  10  -2   3   43.25    5.08
 -10  -2  -3   50.95    4.15
 -10   2  -3   43.05    3.40
 -10   2  -3   48.26    3.91
  10   2   3   44.31    4.33
  11  -2   3   12.29    2.64
  11   2   3    8.80    2.53
  12  -2   3   53.59    6.01
 -12  -2  -3   66.42    5.03
 -12   2  -3   70.59    5.05
  12   2   3   52.51    5.52
  13  -3  -3    2.58    2.28
 -13   3   3    2.31    1.01
  13   3  -3   -1.30    2.37
 -12  -3   3   13.21    2.09
  12  -3  -3   12.79    2.78
 -12   3   3   15.47    2.07
  12   3  -3    9.37    2.99
  11  -3  -3   -1.08    2.31
 -11  -3   3    2.46    1.07
 -11   3   3    2.46    0.96
 -11   3   3   -0.41    0.81
  11   3  -3   -1.45    2.30
 -10  -3   3    3.05    1.00
  10  -3  -3    1.72    2.06
  10   3  -3   -0.57    2.16
 -10   3   3    1.27    0.74
 -10   3   3    1.63    0.63
   9  -3  -3    1.50    1.86
  -9  -3   3    2.52    0.85
  -9   3   3    1.99    0.62
   9   3  -3    0.07    0.75
   9   3  -3    2.14    1.88
  -9   3   3    1.78    0.58
   8  -3  -3   40.48    4.28
  -8  -3   3   49.25    3.64
  -8   3   3   52.73    3.61
  -8   3   3   50.26    3.55
  -7  -3   3    4.14    0.75
   7   3  -3    7.11    1.54
   7   3  -3    6.35    0.98
  -7   3   3    5.49    0.67
  -7   3   3    5.61    0.91
  -6  -3   3  287.65   19.85
  -6   3   3  288.17   19.82
   6   3  -3  285.55   19.83
   6   3  -3  274.12   20.05
  -5  -3   3   11.24    1.32
   5  -3  -3   10.12    1.63
  -5   3   3    9.44    0.87
   5   3  -3    9.64    0.93
  -5   3   3    9.55    0.87
   5   3  -3   11.29    1.24
   4  -3  -3  142.00    8.99
  -4  -3   3  141.01    8.98
  -4  -3   3  112.65    8.88
  -4   3   3  119.28    8.87
   4   3  -3  120.25    8.87
   4   3  -3  118.78    8.97
  -4   3   3  133.05    8.88
   3  -3  -3    4.36    0.70
  -3  -3   3    2.25    0.40
  -3  -3   3    2.94    0.66
  -3   3   3    2.96    0.38
  -3   3   3    3.01    0.35
   3   3  -3    3.48    0.53
   2  -3  -3  122.53    7.93
  -2  -3   3  111.32    7.91
  -2  -3   3  115.60    7.82
   2   3  -3  106.92    7.82
  -2   3   3  104.34    7.82
  -2   3   3  118.54    7.91
  -2   3   3  106.61    7.83
   2   3  -3  109.47    7.87
   1  -3  -3    0.10    0.52
  -1  -3   3   -0.60    0.41
   1   3  -3    0.48    0.28
  -1   3   3    0.17    0.19
   1   3  -3    0.42    0.24
  -1   3   3    0.42    0.31
   0  -3   3   -0.30    0.43
   0  -3  -3    0.44    0.26
   0   3  -3    0.16    0.25
   0   3   3    0.29    0.18
   0   3   3    0.22    0.29
   0   3  -3    0.42    0.29
  -1  -3  -3    0.09    0.14
   1  -3   3   -0.51    0.34
  -1  -3  -3    0.42    0.31
   1   3   3   -0.21    0.16
   1   3   3    0.08    0.27
   1   3   3    0.33    0.32
  -1   3  -3    0.16    0.28
  -1   3  -3    0.15    0.28
   2  -3   3   21.89    1.88
  -2  -3  -3   25.79    1.80
   2  -3   3   24.47    1.86
  -2   3  -3   23.38    1.75
   2   3   3   24.83    1.85
   2   3   3   22.38    1.81
   3  -3   3    8.45    0.92
  -3  -3  -3    7.70    0.89
   3   3   3    6.15    0.76
  -3   3  -3    5.15    0.80
   3   3   3    8.38    0.80
  -3   3  -3    6.98    0.67
   4  -3   3  208.73   14.70
   4  -3   3  186.76   14.69
  -4  -3  -3  212.70   14.65
  -4   3  -3  214.03   14.59
   4   3   3  220.19   14.66
  -5  -3  -3    5.43    1.08
   5  -3   3    4.10    0.83
   5  -3   3    5.27    1.20
   5   3   3    5.11    0.79
   5   3   3    5.54    0.95
  -5   3  -3    4.99    0.79
  -5   3  -3    4.09    0.59
  -6  -3  -3  143.93   10.69
   6   3   3  158.84   10.64
   6   3   3  156.53   10.77
  -6   3  -3  148.89   10.59
  -6   3  -3  141.63   10.52
  -7  -3  -3    2.75    1.08
   7  -3   3    3.17    1.46
   7   3   3    3.68    1.16
  -7   3  -3    3.95    0.61
   7   3   3    3.63    0.72
   8  -3   3   14.75    2.73
  -8  -3  -3   17.08    2.19
  -8   3  -3   17.12    1.48
   8   3   3   17.12    2.33
  -8   3  -3   17.95    1.66
   9  -3   3    2.73    2.09
  -9  -3  -3    3.42    1.41
  -9   3  -3    2.78    0.94
 -10  -3  -3   10.20    2.23
  10  -3   3   11.84    2.55
 -10   3  -3   13.02    1.37
  10   3   3   18.07    2.92
  11  -3   3    2.05    2.38
  11   3   3   -2.14    2.22
 -11   3  -3    2.02    0.86
  12  -3   3   20.22    3.62
  12   3   3   17.82    3.30
  13   4  -3   15.71    4.49
 -13   4   3   16.77    1.77
  12  -4  -3   16.54    3.30
  12   4  -3    7.88    3.02
 -12   4   3   11.34    1.49
  11  -4  -3   30.69    4.36
 -11  -4   3   29.96    2.75
  11   4  -3   26.72    3.94
 -11   4   3   26.34    2.32
 -11   4   3   29.16    2.59
 -10  -4   3   58.48    4.80
  10  -4  -3   69.11    5.81
 -10   4   3   54.86    4.57
   9  -4  -3   48.89    4.77
  -9  -4   3   49.06    3.60
  -9   4   3   43.81    3.45
  -9   4   3   44.02    3.42
  -8  -4   3   21.98    1.81
   8  -4  -3   21.50    3.04
  -8   4   3   20.17    1.61
  -8   4   3   20.55    1.64
   8   4  -3   16.60    1.62
   8   4  -3   15.95    2.42
  -7  -4   3   22.05    1.94
   7  -4  -3   27.89    2.66
  -7   4   3   22.33    1.85
   7   4  -3   23.74    2.30
   7   4  -3   24.87    1.85
  -7   4   3   24.59    1.89
   6  -4  -3   18.60    1.89
  -6  -4   3   17.62    1.71
  -6  -4   3   12.93    1.29
  -6   4   3   15.33    1.23
   6   4  -3   14.41    1.64
  -6   4   3   13.62    1.23
   6   4  -3   14.22    1.23
   5  -4  -3    6.34    1.05
  -5  -4   3    5.84    0.98
  -5  -4   3    4.52    0.64
   5   4  -3    4.52    0.88
  -5   4   3    3.70    0.59
  -5   4   3    4.41    0.56
   5   4  -3    4.35    0.58
   4  -4  -3   18.02    1.59
  -4  -4   3   13.96    1.30
  -4  -4   3   20.25    1.81
   4   4  -3   16.17    1.26
  -4   4   3   16.11    1.24
  -4   4   3   15.84    1.29
  -3  -4   3   24.75    2.14
   3  -4  -3   23.85    2.00
  -3  -4   3   23.99    1.83
  -3   4   3   24.91    1.84
   3   4  -3   26.96    1.93
  -3   4   3   24.49    1.80
   2  -4  -3   54.32    3.97
  -2  -4   3   55.28    3.97
  -2  -4   3   50.11    3.77
   2   4  -3   50.57    3.79
   2   4  -3   54.68    3.87
  -2   4   3   56.24    3.90
   1  -4  -3   90.20    6.47
  -1  -4   3   92.23    6.41
   1  -4  -3   87.06    6.26
  -1   4   3   83.90    6.28
  -1   4   3   92.51    6.37
   1   4  -3   91.14    6.35
   0  -4  -3   55.22    3.77
   0  -4  -3   53.44    4.01
   0   4  -3   50.64    3.78
   0   4   3   53.32    3.86
   0   4   3   51.19    3.75
   0   4  -3   55.48    3.84
  -1  -4  -3   61.08    4.35
  -1  -4  -3   61.34    4.60
   1  -4   3   69.81    4.49
  -1   4  -3   57.71    4.34
  -1   4  -3   61.45    4.41
   1   4   3   58.31    4.30
   1   4   3   59.55    4.42
  -2  -4  -3  118.33    8.24
   2  -4   3  126.31    8.34
   2   4   3  106.51    8.35
   3  -4   3   62.28    4.41
   3  -4   3   67.03    4.43
  -3  -4  -3   59.35    4.37
  -3   4  -3   55.43    4.27
   3   4   3   55.85    4.36
  -4  -4  -3    9.57    1.35
   4  -4   3   10.23    1.22
   4   4   3    9.65    1.10
  -4   4  -3    9.83    0.91
   5  -4   3    1.21    1.01
   5  -4   3    0.90    0.87
  -5  -4  -3    0.49    0.91
  -5   4  -3    1.29    0.44
  -5   4  -3    1.37    0.43
   5   4   3    0.58    0.68
  -6  -4  -3    0.69    0.96
   6  -4   3    0.83    0.84
   6  -4   3    1.15    1.29
  -6   4  -3    1.66    0.47
  -6   4  -3    0.97    0.44
   6   4   3    1.03    0.81
   7  -4   3   18.71    3.03
  -7  -4  -3   21.38    2.30
  -7  -4  -3   19.24    2.62
  -7   4  -3   19.90    1.68
   7   4   3   21.73    2.23
  -7   4  -3   22.36    1.73
  -8  -4  -3   31.90    3.45
   8  -4   3   28.44    3.92
  -8  -4  -3   37.85    3.17
   8   4   3   35.58    3.19
  -8   4  -3   32.07    2.56
  -8   4  -3   33.38    2.55
  -9  -4  -3   20.84    3.20
  -9   4  -3   23.02    2.09
   9   4   3   23.80    3.06
  -9   4  -3   30.14    2.04
  10  -4   3   20.44    3.99
 -10  -4  -3   19.06    3.28
  10   4   3   21.77    3.28
 -10   4  -3   20.70    1.88
  11  -4   3   30.52    4.24
 -11   4  -3   20.04    2.15
  11   4   3   25.33    3.54
  12  -4   3   30.07    3.61
 -12   4  -3   24.00    2.33
  12  -5  -3    5.36    2.88
 -12   5   3    0.96    0.86
  12   5  -3   -1.06    2.51
  11  -5  -3    5.62    3.31
  11   5  -3   -1.98    2.55
 -11   5   3    3.08    0.94
  10  -5  -3    3.26    2.84
  10   5  -3   -1.92    2.15
   9  -5  -3   22.75    3.22
  -9  -5   3   22.16    2.14
  -9   5   3   20.06    1.84
   8  -5  -3    5.48    1.83
  -8  -5   3    3.08    0.77
  -8   5   3    2.68    0.52
   8   5  -3    1.86    1.45
  -8   5   3    0.83    0.66
   7  -5  -3   94.30    7.89
  -7  -5   3  104.15    7.54
  -7  -5   3  106.78    7.71
   7   5  -3  111.14    7.86
  -7   5   3  108.53    7.52
  -7   5   3  108.96    7.48
  -6  -5   3    6.36    0.95
   6   5  -3    7.43    0.73
  -6   5   3    5.92    0.73
  -6   5   3    7.30    0.81
   6   5  -3    7.09    1.20
   5  -5  -3  163.98   13.08
  -5  -5   3  180.73   12.94
  -5  -5   3  182.27   13.07
  -5   5   3  197.31   12.95
   5   5  -3  191.48   12.89
   5   5  -3  191.02   13.10
   4  -5  -3    5.23    1.01
  -4  -5   3    3.39    0.51
   4   5  -3    3.33    0.51
   4   5  -3    3.40    0.69
  -4   5   3    4.28    0.60
  -3  -5   3   60.00    4.14
   3  -5  -3   53.40    4.31
  -3   5   3   60.36    4.30
  -3   5   3   59.35    4.18
   3   5  -3   58.34    4.26
   2   5  -3    2.43    0.46
  -2   5   3    2.36    0.59
   2   5  -3    2.52    0.56
   1  -5  -3    9.56    1.39
  -1  -5   3   10.95    1.24
  -1   5   3    9.13    0.83
   1   5  -3    9.28    0.85
  -1   5   3    9.38    0.98
   1   5  -3    9.96    1.01
   0  -5  -3    0.15    0.82
   0  -5   3   -0.80    0.59
   0  -5  -3    0.69    0.41
   0   5  -3    0.29    0.49
   0   5  -3    0.24    0.41
   0   5   3   -0.02    0.28
   0   5   3    0.00    0.43
  -1  -5  -3    3.78    0.62
   1  -5   3    2.18    0.75
  -1  -5  -3    2.38    0.98
  -1   5  -3    2.23    0.54
  -1   5  -3    2.63    0.58
   1   5   3    3.56    0.43
   1   5   3    2.27    0.60
  -2  -5  -3    1.44    0.67
  -2  -5  -3    0.75    0.94
   2   5   3    0.93    0.54
   2   5   3    1.21    0.30
  -2   5  -3    1.12    0.48
   3  -5   3  106.99    8.28
  -3  -5  -3  124.09    8.47
  -3  -5  -3  120.78    8.26
   3  -5   3  106.66    8.28
  -3   5  -3  119.25    8.18
   3   5   3  117.99    8.29
  -4  -5  -3    7.68    1.63
  -4  -5  -3    6.56    1.09
  -4   5  -3    5.80    0.76
   4   5   3    7.11    1.01
  -5  -5  -3   99.92    7.22
   5  -5   3   90.05    7.10
  -5  -5  -3   95.77    7.03
   5  -5   3  100.06    7.06
  -5   5  -3   96.84    6.86
   5   5   3   97.39    7.05
  -6  -5  -3    6.05    1.26
  -6  -5  -3    4.10    1.43
   6   5   3    4.81    1.13
  -6   5  -3    5.05    0.73
  -7  -5  -3   61.09    4.82
   7  -5   3   53.64    5.40
  -7  -5  -3   59.54    5.04
   7   5   3   66.42    4.83
  -7   5  -3   60.35    4.41
  -8  -5  -3   -0.07    1.71
  -8  -5  -3    3.76    1.55
   8   5   3    0.34    1.37
   9  -5   3    6.90    2.91
   9   5   3    8.16    2.10
  -9   5  -3    7.24    1.09
  10  -5   3    6.28    2.91
  10   5   3    1.20    2.03
  11  -6  -3   39.19    5.37
  11   6  -3   26.03    4.25
 -11   6   3   36.25    2.78
 -10  -6   3   31.41    2.90
  -9  -6   3   62.47    4.91
   9  -6  -3   55.33    5.90
  -9  -6   3   62.25    4.85
  -9   6   3   58.44    4.35
   9   6  -3   51.62    5.16
  -8  -6   3   11.68    1.52
   8  -6  -3   10.41    2.25
  -7  -6   3   26.81    2.88
   7  -6  -3   29.99    3.29
  -7  -6   3   34.56    2.41
   7   6  -3   29.84    2.87
  -7   6   3   27.91    2.37
   6  -6  -3    6.12    1.51
  -6  -6   3    4.97    1.24
   5  -6  -3    8.03    1.40
  -5  -6   3    5.14    1.15
  -5   6   3    5.64    0.78
   5   6  -3    5.69    1.07
   5   6  -3    4.96    0.69
  -4  -6   3    7.33    0.72
   4  -6  -3    7.64    1.41
  -4   6   3    4.53    0.73
   4   6  -3    4.44    0.86
  -3  -6   3   28.77    2.61
   3  -6  -3   28.80    2.49
  -3   6   3   32.85    2.31
   3   6  -3   31.18    2.42
  -3   6   3   30.30    2.43
  -2   6   3    9.23    1.04
   2   6  -3    8.58    0.89
   2   6  -3    9.20    1.05
  -2   6   3    8.60    0.90
   1  -6  -3   93.56    7.03
  -1  -6   3   88.04    6.97
  -1   6   3  102.75    6.79
   1   6  -3   97.45    6.79
  -1   6   3   93.76    6.91
   1   6  -3  100.25    6.90
   0  -6  -3   12.72    1.62
   0   6  -3   11.02    1.07
   0   6   3   11.93    1.24
   0   6  -3   11.31    1.17
   0   6   3   12.13    1.04
  -1  -6  -3   74.12    5.69
  -1  -6  -3   72.85    5.40
   1  -6   3   68.92    5.56
  -1   6  -3   78.87    5.48
  -1   6  -3   75.64    5.39
   1   6   3   81.77    5.33
   1   6   3   75.31    5.51
  -2  -6  -3   18.19    2.10
  -2  -6  -3   19.06    1.73
   2   6   3   18.59    1.69
   2   6   3   19.98    1.44
  -2   6  -3   19.02    1.55
  -3  -6  -3   60.88    4.93
   3  -6   3   66.71    4.75
  -3  -6  -3   64.21    4.67
   3  -6   3   63.39    4.72
   3   6   3   61.97    4.68
  -3   6  -3   60.11    4.53
  -4  -6  -3    3.60    0.94
  -4  -6  -3    1.92    1.27
   4   6   3    1.91    0.78
  -4   6  -3    3.02    0.63
  -5  -6  -3    1.28    1.35
   5  -6   3    1.26    0.99
  -5  -6  -3    2.13    1.04
   5  -6   3    1.49    1.27
  -5   6  -3    1.03    0.58
   5   6   3    1.41    0.96
   6  -6   3    1.02    1.78
  -6  -6  -3    3.12    1.19
  -6  -6  -3   -0.30    1.51
   6  -6   3    2.83    1.22
  -6   6  -3    0.05    0.64
   6   6   3    0.52    1.13
  -7  -6  -3   21.42    3.00
   7  -6   3   22.26    2.44
   7  -6   3   24.39    4.44
   7   6   3   22.11    2.53
  -7   6  -3   24.00    1.96
  -8  -6  -3    7.27    2.17
  -8   6  -3    9.40    1.37
   8   6   3   11.22    2.22
   9  -6   3   37.12    5.28
  -9  -6  -3   27.43    3.84
  -9   6  -3   32.24    2.62
   9   6   3   30.34    3.59
  10  -6   3    7.14    3.15
 -10   6  -3   10.83    1.37
 -11  -7   3   42.20    3.73
  10  -7  -3   -0.33    2.84
  10   7  -3   -0.08    2.25
   9  -7  -3    4.69    2.86
  -9  -7   3   17.05    2.69
   8  -7  -3   30.04    4.05
  -8  -7   3   26.51    3.01
   8   7  -3   19.56    2.96
  -8   7   3   22.11    2.12
   7   7  -3   23.84    2.68
  -7   7   3   24.94    2.13
   6  -7  -3   93.67    7.44
  -6  -7   3   93.61    7.14
  -6  -7   3   99.33    6.99
   6   7  -3   92.27    7.26
  -5   7   3   38.94    2.92
   5   7  -3   36.89    3.15
  -4  -7   3   42.94    3.57
   4  -7  -3   43.89    3.35
   4  -7  -3   41.37    3.59
   4   7  -3   38.05    3.28
  -4   7   3   42.41    3.13
   4   7  -3   40.12    3.04
  -3   7   3   12.83    1.19
  -3   7   3   11.08    1.35
   3   7  -3   11.77    1.37
   3   7  -3   12.69    1.21
  -2  -7   3   30.64    2.69
   2  -7  -3   26.83    2.47
   2   7  -3   27.04    2.14
  -2   7   3   26.31    2.31
   2   7  -3   26.53    2.30
  -2   7   3   29.47    2.15
   1  -7  -3    2.72    0.94
   1   7  -3    1.40    0.58
   1   7  -3    1.80    0.72
  -1   7   3    2.99    0.60
  -1   7   3    2.29    0.71
   0  -7   3    1.14    1.02
   0  -7  -3    0.33    0.95
   0   7   3    0.81    0.67
   0   7   3   -0.21    0.51
   0   7  -3    0.68    0.44
   0   7  -3   -0.28    0.57
  -1  -7  -3    1.90    1.12
   1  -7   3    2.36    0.99
   1   7   3    0.77    0.49
   1   7   3    0.78    0.73
  -1   7  -3    1.23    0.67
  -1   7  -3    1.17    0.60
  -2  -7  -3    8.56    1.81
   2   7   3    8.43    1.35
  -2   7  -3    8.93    1.03
  -3  -7  -3   21.62    2.51
  -3   7  -3   22.01    1.83
   3   7   3   21.72    2.09
   4  -7   3   66.75    5.10
  -4  -7  -3   60.52    5.09
  -4  -7  -3   64.49    4.72
  -4   7  -3   60.14    4.61
   4   7   3   64.59    4.88
   5  -7   3   50.54    4.01
  -5  -7  -3   35.53    3.42
   5  -7   3   42.50    3.66
   6  -7   3   59.01    5.15
   6  -7   3   64.70    4.74
  -6  -7  -3   51.76    4.90
   6   7   3   56.42    4.69
  -6   7  -3   53.29    4.24
  -7  -7  -3   13.39    2.35
   7   7   3   12.73    2.36
  -7   7  -3   14.20    1.62
   8  -7   3   14.69    3.54
  -8  -7  -3    9.05    2.29
   8   7   3   11.07    2.36
  -8   7  -3    9.98    1.53
   9  -7   3    0.90    3.29
  -9  -7  -3    1.04    1.78
   9   7   3    5.97    1.96
  -9   7  -3    3.18    0.99
 -10  -7  -3   65.63    5.53
   9  -8  -3   12.36    2.76
  -8  -8   3   29.85    3.40
   8  -8  -3   28.21    4.36
   8   8  -3   23.02    3.34
  -8   8   3   23.59    2.33
  -6  -8   3   16.87    2.57
   6   8  -3   10.55    1.88
  -6   8   3   11.92    1.59
   5  -8  -3    0.24    1.44
  -5   8   3    0.40    0.86
   5   8  -3   -0.56    1.06
   4  -8  -3   18.22    2.66
  -4  -8   3   17.73    2.49
   4   8  -3   15.76    1.96
  -4   8   3   17.93    1.80
   2  -8  -3   44.17    3.89
  -2   8   3   49.20    3.44
   2   8  -3   43.99    3.39
   2   8  -3   44.67    3.62
   0  -8   3   57.33    4.62
   0  -8  -3   49.90    4.44
   0   8   3   61.77    4.05
   0   8  -3   55.68    4.09
   0   8   3   50.90    4.85
   0   8  -3   54.66    4.23
   2  -8   3   83.27    6.28
  -2  -8  -3   77.04    6.30
  -2   8  -3   84.60    5.90
   2   8   3   80.39    6.10
   4  -8   3   16.16    2.28
  -4  -8  -3   11.14    2.01
  -4   8  -3   12.61    1.41
   4   8   3    8.54    1.85
   5  -8   3    1.76    1.67
   5  -8   3    1.14    2.06
  -5  -8  -3    1.48    1.68
  -5   8  -3    0.97    0.88
   5   8   3    1.10    1.33
  -6  -8  -3    2.09    1.88
   6  -8   3    1.10    2.37
   6   8   3    1.26    1.55
  -6   8  -3    2.54    1.02
  -7  -8  -3    1.26    1.83
   7  -8   3    4.86    2.52
   7   8   3   -1.61    1.73
  -7   8  -3    2.44    1.02
  -8  -8  -3   31.69    3.79
   8  -8   3   30.84    5.01
  -8   8  -3   37.77    2.88
   8   8   3   35.37    3.78
   7   9  -3   11.92    2.57
  -7   9   3   18.63    1.76
  -6  -9   3   66.18    5.06
   6  -9  -3   57.48    5.29
  -6   9   3   58.11    4.44
   6   9  -3   51.58    4.82
  -5   9   3   24.76    2.36
   5   9  -3   24.70    2.78
  -4  -9   3   36.68    3.42
   4  -9  -3   36.80    3.72
  -4   9   3   29.25    2.68
   4   9  -3   27.20    2.91
  -3  -9   3   21.45    2.87
  -2   9   3   12.74    1.89
   2   9  -3   16.09    1.87
   1  -9  -3    3.17    1.60
  -1   9   3    2.25    1.20
  -1   9   3    3.28    1.08
   1   9  -3    2.35    0.93
   1   9  -3    0.63    1.00
   0  -9  -3    2.58    1.56
   0   9   3    0.82    1.05
   0   9  -3   -0.98    0.93
   0   9  -3    1.33    0.91
  -1  -9  -3    2.47    1.45
  -1   9  -3    0.82    0.87
   1   9   3    0.86    1.07
  -1   9  -3    0.54    1.01
  -2  -9  -3    9.05    1.86
  -2   9  -3    8.55    1.24
   2   9   3    5.93    1.45
  -3  -9  -3   19.82    2.77
   3   9   3   14.79    2.20
  -3   9  -3   14.37    1.71
  -4  -9  -3   41.89    4.11
   4  -9   3   46.80    4.51
  -4   9  -3   40.88    3.31
   4   9   3   38.94    3.80
  -5  -9  -3   20.69    2.90
  -5   9  -3   18.85    1.89
   5   9   3   12.87    2.53
   6  -9   3   36.40    4.44
  -6  -9  -3   34.18    3.62
  -6   9  -3   39.56    2.90
   6   9   3   33.74    3.49
  -5  10   3    9.46    1.45
  -4 -10   3   25.59    2.92
   3 -10  -3   16.69    2.73
   3  10  -3   10.94    1.94
  -3  10   3   14.14    1.67
  -2 -10   3   29.61    3.33
   1  10  -3   35.24    3.15
  -1  10   3   35.92    3.20
   1  10   3   28.49    2.78
  -1  10  -3   29.04    2.53
  -2 -10  -3   30.60    3.59
   2 -10   3   28.61    4.08
   2 -10   3   37.11    3.58
   3 -10   3   28.24    3.57
  -3  10  -3   24.59    2.20
   3  10   3   21.40    2.73
 -14   0   4   49.87    3.92
 -13   0   4   11.60    2.06
 -12   0   4   33.61    3.12
  12   0  -4   34.92    4.03
  11   0  -4    1.08    2.44
 -11   0   4    1.79    1.02
  11   0  -4    1.66    0.88
  10   0  -4  150.84   10.49
 -10   0   4  134.47   10.15
   9   0  -4   -0.39    1.00
  -9   0   4   -0.29    0.55
  -8   0   4   44.54    3.20
  -8   0   4   41.30    3.26
   8   0  -4   45.81    3.71
  -7   0   4   -0.40    0.37
   7   0  -4   -0.64    0.98
  -7   0   4   -0.70    0.42
   6   0  -4   75.67    5.45
  -6   0   4   70.66    5.20
  -6   0   4   72.22    5.16
  -5   0   4   -0.16    0.28
  -5   0   4   -0.24    0.27
   5   0  -4    0.89    0.92
   4   0  -4   87.56    6.52
  -4   0   4   92.11    6.34
   3   0  -4   -0.43    0.64
   3   0  -4   -0.22    0.25
  -3   0   4   -0.15    0.18
  -2   0   4  307.07   21.12
   2   0  -4  299.89   21.12
   1   0  -4    0.30    0.24
  -1   0   4    0.46    0.34
  -1   0   4    0.34    0.14
   1   0  -4    0.25    0.27
   0   0   4   86.57    5.71
   0   0  -4   82.56    5.69
   0   0   4   75.24    5.69
   1   0   4    0.41    0.38
   1   0   4    0.51    0.28
  -1   0  -4    0.48    0.24
  -1   0  -4    0.20    0.17
  -1   0  -4    0.66    0.46
   1   0   4    0.24    0.15
  -2   0  -4  328.38   23.33
  -2   0  -4  342.91   23.36
  -3   0  -4    0.20    0.19
  -3   0  -4    0.35    0.35
   3   0   4   -0.66    0.44
   3   0   4   -0.10    0.34
   4   0   4   35.66    3.06
   4   0   4   36.17    2.99
  -4   0  -4   42.92    2.86
  -4   0  -4   46.73    2.98
   5   0   4    0.72    0.41
  -5   0  -4    0.03    0.26
   5   0   4   -0.13    0.73
  -5   0  -4    0.09    0.90
  -6   0  -4    1.40    0.38
  -6   0  -4    1.16    0.95
   6   0   4    1.18    1.06
   6   0   4    1.61    0.50
  -7   0  -4    0.25    0.37
   7   0   4    0.49    1.24
  -7   0  -4   -0.41    0.93
   7   0   4    0.73    1.14
  -8   0  -4   81.03    5.60
   8   0   4   84.37    6.14
  -8   0  -4   71.55    5.88
   9   0   4   -0.35    1.61
  -9   0  -4    0.87    1.33
 -10   0  -4   57.99    4.82
  10   0   4   54.65    6.54
 -12   0  -4   64.33    5.33
  14  -1  -4   34.41    5.24
 -14  -1   4   45.53    3.76
 -14   1   4   47.78    3.60
  13  -1  -4    6.97    2.57
 -13  -1   4   15.04    2.15
 -13   1   4   12.94    2.11
  13   1  -4    8.74    2.66
  12  -1  -4    4.98    2.16
 -12  -1   4    8.10    1.45
  12   1  -4    5.75    2.51
 -12   1   4    8.11    1.48
 -11  -1   4    1.76    1.73
 -11   1   4    0.66    0.72
 -11   1   4    0.87    0.90
  11   1  -4    0.55    0.85
  10  -1  -4    6.65    1.79
 -10  -1   4    4.03    0.97
 -10   1   4    4.23    0.77
  10   1  -4    5.34    0.94
  10   1  -4    0.88    1.77
 -10   1   4    3.43    0.90
  -9  -1   4    5.43    0.87
   9  -1  -4    7.79    1.66
  -9   1   4    5.73    0.87
   9   1  -4    6.16    1.57
  -9   1   4    5.25    0.76
  -8  -1   4   23.91    2.03
   8  -1  -4   28.71    2.73
   8   1  -4   28.58    2.84
  -8   1   4   24.47    2.02
  -8   1   4   23.87    1.92
  -7  -1   4   64.32    4.94
   7   1  -4   63.21    5.37
   7   1  -4   77.02    4.93
  -7   1   4   68.27    4.95
  -7   1   4   70.07    4.90
   6  -1  -4  323.71   21.53
  -6  -1   4  283.21   21.35
  -6   1   4  291.83   21.30
  -6   1   4  317.05   21.35
   6   1  -4  312.22   21.32
   5  -1  -4  102.11    7.42
  -5  -1   4   99.51    7.19
  -5   1   4  104.67    7.20
   5   1  -4  101.90    7.18
  -5   1   4  101.77    7.17
   4  -1  -4  175.36   11.86
  -4  -1   4  163.98   11.73
  -4   1   4  158.43   11.71
  -4   1   4  173.07   11.73
   3  -1  -4   88.52    6.47
  -3  -1   4   89.48    6.40
  -3   1   4   92.95    6.40
   3   1  -4   97.00    6.41
   3   1  -4   83.28    6.49
  -3   1   4   95.80    6.41
  -2  -1   4  119.28    8.03
   2  -1  -4  105.06    8.04
  -2  -1   4  124.57    8.08
   2   1  -4  108.99    8.03
  -2   1   4  119.79    8.03
   2   1  -4  115.71    8.04
  -2   1   4  110.66    8.03
   1  -1  -4    0.75    0.19
  -1  -1   4    0.50    0.32
  -1  -1   4    0.70    0.16
  -1   1   4    0.72    0.18
  -1   1   4    0.88    0.23
  -1   1   4    0.95    0.26
   1   1  -4    0.73    0.25
   0  -1  -4   -0.04    0.19
   0  -1   4   -0.15    0.35
   0  -1   4    0.29    0.16
   0  -1  -4    0.41    0.19
   0  -1  -4    0.16    0.14
   0   1   4    0.40    0.28
   0   1   4    0.22    0.18
   0   1  -4    0.12    0.20
   0   1   4    0.30    0.16
  -1  -1  -4    1.42    0.21
  -1  -1  -4    1.12    0.29
   1  -1   4    1.35    0.49
   1  -1   4    1.05    0.41
   1   1   4    1.66    0.36
  -1   1  -4    1.15    0.24
  -1   1  -4    1.45    0.25
  -1   1  -4    1.25    0.33
   1   1   4    1.66    0.27
  -2  -1  -4   16.92    1.25
  -2   1  -4   17.39    1.23
  -2   1  -4   16.04    1.20
   2   1   4   15.18    1.33
   2   1   4   16.38    1.28
  -3  -1  -4   45.64    3.16
   3   1   4   39.67    3.20
  -3   1  -4   44.03    3.10
   3   1   4   43.55    3.22
  -3   1  -4   45.93    3.14
   4  -1   4   82.34    6.71
   4   1   4   99.82    6.70
  -4   1  -4   99.18    6.58
  -5  -1  -4   56.99    4.20
  -5   1  -4   54.18    4.02
   5   1   4   57.51    4.14
   5   1   4   58.59    4.29
   6  -1   4  116.70    9.58
   6  -1   4  122.74    9.76
  -6  -1  -4  135.12    9.68
  -6   1  -4  141.82    9.50
   6   1   4  147.70    9.78
   6   1   4  148.73    9.64
  -6   1  -4  136.55    9.67
  -7  -1  -4   26.75    2.48
   7  -1   4   25.38    2.68
   7  -1   4   25.31    2.23
  -7   1  -4   27.40    2.47
   7   1   4   30.52    2.67
   7   1   4   30.88    2.27
   8  -1   4   15.63    2.14
  -8  -1  -4   14.91    1.99
   8   1   4   17.99    1.59
  -8   1  -4   15.78    1.93
   8   1   4   17.84    2.23
  -8   1  -4   16.67    1.36
   9  -1   4    5.85    1.87
  -9  -1  -4    5.78    1.42
   9   1   4    3.02    1.82
  -9   1  -4    4.53    0.76
  -9   1  -4    7.75    1.51
 -10  -1  -4   10.87    2.08
  10  -1   4   11.64    4.33
 -10   1  -4    8.91    2.98
  10   1   4   10.35    2.41
 -11  -1  -4   18.06    3.14
 -11   1  -4   24.54    3.03
  12  -1   4   18.48    3.14
  12   1   4   16.86    2.94
 -14   2   4   24.05    2.45
  13  -2  -4   38.09    4.40
 -13  -2   4   42.61    3.36
  13   2  -4   33.88    4.20
 -13   2   4   43.76    3.48
 -13   2   4   32.45    3.08
 -12  -2   4    8.51    1.52
  12  -2  -4    6.68    2.45
 -12   2   4    7.20    1.36
  12   2  -4    1.89    2.18
 -12   2   4    4.40    1.05
 -11  -2   4   65.85    5.05
  11  -2  -4   71.85    5.70
 -11   2   4   63.27    4.88
 -11   2   4   68.86    5.06
  11   2  -4   65.36    5.74
 -10  -2   4   18.13    1.82
  10   2  -4   15.78    1.70
 -10   2   4   16.50    1.49
 -10   2   4   18.55    1.77
  10   2  -4   15.65    2.94
  -9  -2   4   59.90    4.34
   9  -2  -4   59.99    4.94
   9   2  -4   64.72    4.39
   9   2  -4   48.57    4.94
  -9   2   4   58.17    4.24
   8  -2  -4    6.56    1.58
  -8  -2   4    5.51    0.77
  -8   2   4    3.81    0.65
   8   2  -4    1.84    1.58
   8   2  -4    6.73    1.06
   7  -2  -4   68.73    5.62
  -7  -2   4   73.49    5.19
  -7   2   4   73.33    5.14
   7   2  -4   72.42    5.22
  -6  -2   4    5.69    0.79
   6  -2  -4   10.37    1.92
  -6   2   4    7.74    0.76
  -6   2   4    7.22    0.70
  -5  -2   4    6.57    0.78
   5  -2  -4   10.70    1.31
   5   2  -4    8.51    1.27
   5   2  -4    7.41    1.24
  -5   2   4    8.67    0.76
  -5   2   4    8.50    0.71
  -4  -2   4    7.89    0.74
   4  -2  -4    7.41    1.00
  -4   2   4    7.64    0.69
   4   2  -4    8.77    1.03
  -4   2   4    8.89    0.72
   4   2  -4    9.00    0.84
   3  -2  -4  119.94    8.80
  -3  -2   4  127.71    8.76
   3   2  -4  127.92    8.81
  -3   2   4  128.54    8.76
   3   2  -4  119.20    8.76
  -3   2   4  127.56    8.76
  -2  -2   4   30.67    2.31
  -2  -2   4   36.57    2.43
  -2   2   4   30.00    2.31
   2   2  -4   32.92    2.33
   2   2  -4   33.45    2.33
  -2   2   4   31.28    2.31
  -1  -2   4  239.45   17.50
  -1  -2   4  242.74   17.57
  -1  -2   4  262.04   17.53
   1   2  -4  236.88   17.51
   1   2  -4  255.17   17.51
  -1   2   4  267.96   17.51
   1   2  -4  271.72   17.52
  -1   2   4  235.96   17.52
   0  -2  -4   11.52    0.91
   0  -2   4   12.68    0.89
   0  -2   4   12.64    0.87
   0  -2   4   10.94    1.04
   0  -2  -4   11.34    0.85
   0   2  -4   11.87    0.90
   0   2   4   11.62    0.97
   0   2   4   10.88    0.85
   0   2   4   11.80    0.91
   0   2  -4   11.25    0.88
   0   2  -4   10.25    0.84
   1  -2   4  167.11   11.36
   1  -2   4  160.56   11.28
  -1  -2  -4  164.34   11.26
   1   2   4  164.21   11.33
  -1   2  -4  160.01   11.25
  -1   2  -4  157.99   11.26
  -1   2  -4  154.97   11.23
   2  -2   4   40.35    3.10
  -2  -2  -4   42.52    2.97
  -2   2  -4   40.20    2.94
   2   2   4   40.89    3.04
  -2   2  -4   42.67    2.94
  -3  -2  -4  104.20    7.02
   3  -2   4   87.98    7.12
   3  -2   4   89.50    7.15
   3   2   4  105.52    7.09
  -3   2  -4  110.19    7.00
  -3   2  -4  102.50    6.98
   3   2   4   96.33    7.06
  -4  -2  -4    6.30    0.87
   4  -2   4    4.25    1.07
   4  -2   4    3.10    0.80
  -4   2  -4    4.72    0.52
   4   2   4    4.23    0.84
   4   2   4    5.60    0.69
  -5  -2  -4   20.32    1.85
  -5   2  -4   19.67    1.55
  -5   2  -4   18.15    1.80
   5   2   4   21.58    1.87
   5   2   4   22.05    1.83
   6  -2   4   -0.22    0.53
   6  -2   4   -0.02    1.13
  -6  -2  -4   -0.40    0.89
  -6   2  -4   -0.16    0.37
   6   2   4    0.45    0.87
   6   2   4    0.18    0.52
  -6   2  -4    0.17    0.85
  -7  -2  -4   47.42    3.88
   7   2   4   49.12    3.96
  -7   2  -4   49.26    3.58
   7   2   4   53.00    3.75
  -7   2  -4   48.94    3.81
  -8  -2  -4    9.69    1.76
   8  -2   4   10.55    1.90
  -8   2  -4   11.15    1.61
  -8   2  -4   10.03    0.99
   8   2   4   10.70    1.94
   8   2   4    9.33    1.19
   9  -2   4   40.97    4.02
  -9  -2  -4   39.54    3.70
  -9   2  -4   40.09    3.11
   9   2   4   44.94    3.92
  -9   2  -4   45.86    3.61
   9   2   4   41.71    3.28
  10  -2   4    7.65    2.19
  10   2   4    9.89    2.32
 -10   2  -4    7.40    1.04
  11  -2   4   47.05    5.16
 -11  -2  -4   54.61    4.65
  11   2   4   45.12    4.81
 -11   2  -4   54.24    4.40
 -14   3   4    2.15    1.18
 -13  -3   4   29.48    2.64
  13  -3  -4   25.19    4.03
 -13   3   4   26.71    2.81
  12  -3  -4    0.53    2.38
 -12   3   4    1.16    0.90
 -12   3   4    3.61    1.22
  12   3  -4    1.57    2.41
  11  -3  -4   -0.39    2.43
 -11  -3   4    5.06    1.12
 -11   3   4    2.71    0.97
  11   3  -4   -0.98    2.33
 -11   3   4    2.19    0.76
 -10  -3   4    1.57    0.91
  10  -3  -4    2.51    2.23
 -10   3   4    0.40    0.60
  10   3  -4   -1.87    2.01
 -10   3   4    1.43    0.73
   9  -3  -4   12.45    2.31
  -9  -3   4   12.89    1.46
  -9   3   4   11.92    1.26
  -9   3   4   13.41    1.19
  -8  -3   4    1.16    0.55
   8  -3  -4    2.91    1.40
   8   3  -4    0.16    0.98
  -8   3   4    1.18    0.52
  -8   3   4    0.94    0.46
   8   3  -4   -0.36    1.42
   7  -3  -4  172.94   12.04
  -7  -3   4  168.16   11.74
   7   3  -4  140.39   11.73
  -7   3   4  191.19   11.75
  -7   3   4  171.90   11.71
   7   3  -4  155.26   12.02
  -6   3   4   12.99    1.23
   6   3  -4   12.86    1.64
   6   3  -4   12.22    1.28
  -6   3   4   12.08    1.05
   5  -3  -4  246.76   17.86
  -5  -3   4  256.48   17.65
   5   3  -4  259.73   17.78
   5   3  -4  248.80   17.67
  -5   3   4  251.16   17.63
   4  -3  -4    4.76    0.90
  -4  -3   4    3.92    0.57
  -4  -3   4    4.35    0.80
   4   3  -4    6.05    0.89
  -4   3   4    4.68    0.51
  -4   3   4    4.56    0.50
   4   3  -4    5.81    0.73
  -3  -3   4  232.89   15.36
   3  -3  -4  247.23   15.38
  -3  -3   4  219.94   15.29
  -3   3   4  209.50   15.29
  -3   3   4  204.41   15.28
   3   3  -4  206.13   15.33
   3   3  -4  214.65   15.29
   2  -3  -4    4.56    0.86
  -2  -3   4    4.51    0.71
  -2  -3   4    4.09    0.44
  -2   3   4    5.14    0.59
  -2   3   4    4.28    0.43
   2   3  -4    4.51    0.53
  -1  -3   4    3.47    0.34
  -1  -3   4    3.79    0.65
  -1   3   4    3.65    0.51
   1   3  -4    3.41    0.43
  -1   3   4    3.14    0.37
   1   3  -4    3.80    0.47
   0  -3  -4    0.33    0.28
   0  -3   4   -0.18    0.38
   0   3  -4    0.12    0.25
   0   3  -4    0.14    0.26
   0   3   4   -0.05    0.20
   0   3   4    0.34    0.32
   0   3   4    0.04    0.29
  -1  -3  -4    3.39    0.33
   1  -3   4    4.67    0.67
  -1  -3  -4    4.01    0.53
  -1   3  -4    3.96    0.45
   1   3   4    3.33    0.52
   1   3   4    3.67    0.36
   1   3   4    4.25    0.60
   2  -3   4    0.89    0.45
  -2  -3  -4    1.24    0.43
   2  -3   4    0.59    0.45
   2   3   4    1.20    0.41
  -2   3  -4    1.35    0.35
   2   3   4    0.65    0.36
   3  -3   4  120.99    8.95
  -3  -3  -4  130.43    8.85
   3  -3   4  132.12    8.92
  -3   3  -4  128.62    8.82
   3   3   4  120.92    8.88
   3   3   4  125.79    8.91
  -3   3  -4  120.80    8.81
  -4  -3  -4    4.94    0.85
   4  -3   4    3.23    0.73
   4  -3   4    4.15    1.06
  -4   3  -4    3.33    0.54
   4   3   4    4.00    0.79
   4   3   4    4.51    0.78
  -4   3  -4    4.38    0.76
  -5  -3  -4  153.28   10.81
  -5   3  -4  150.49   10.74
   5   3   4  149.82   10.83
   5   3   4  160.46   10.81
  -5   3  -4  147.49   10.68
   6  -3   4   11.30    2.10
  -6  -3  -4    6.96    1.17
  -6   3  -4    6.35    0.75
  -6   3  -4    6.42    1.07
   6   3   4    6.89    0.98
   6   3   4    7.66    1.25
  -7  -3  -4   72.70    5.87
   7   3   4   83.06    5.96
  -7   3  -4   76.16    5.61
   7   3   4   83.47    5.76
   8  -3   4    1.37    1.88
  -8  -3  -4    1.55    1.21
  -8   3  -4    0.87    0.53
   8   3   4    1.34    1.42
  -8   3  -4    2.27    0.85
   8   3   4    1.05    0.69
  -9  -3  -4   15.61    2.27
   9  -3   4   10.28    2.32
  -9   3  -4    9.76    1.21
 -10  -3  -4    6.48    2.00
  10  -3   4    1.99    2.24
  11  -3   4    8.37    2.66
  11   3   4    9.73    2.56
 -11   3  -4    8.39    1.20
  13   4  -4   13.21    2.98
 -13   4   4   18.16    1.77
  12  -4  -4   15.00    3.33
 -12   4   4   10.68    1.40
  12   4  -4   10.84    2.92
 -11   4   4   28.15    2.34
 -11   4   4   28.39    2.26
  11   4  -4   19.82    4.03
 -10  -4   4   36.42    3.98
  10  -4  -4   42.71    4.69
 -10   4   4   42.10    3.22
   9  -4  -4   32.61    3.81
  -9  -4   4   28.62    2.35
   9   4  -4   21.12    3.23
  -9   4   4   27.66    2.18
   8  -4  -4   13.62    2.78
  -8  -4   4   15.90    1.51
  -8   4   4   16.31    1.42
  -8   4   4   15.28    1.35
   8   4  -4   15.94    1.43
   8   4  -4   14.51    2.23
  -7  -4   4   30.35    2.36
  -7   4   4   30.87    2.43
   7   4  -4   30.60    2.33
  -7   4   4   29.31    2.29
   7   4  -4   31.75    2.73
  -6  -4   4   12.21    1.26
   6  -4  -4   16.12    1.80
   6   4  -4   15.14    1.58
  -6   4   4   13.66    1.21
   6   4  -4   15.19    1.28
  -6   4   4   16.11    1.22
   5  -4  -4    2.75    0.81
  -5  -4   4    2.50    0.54
  -5  -4   4    3.36    0.91
   5   4  -4    3.58    0.75
  -5   4   4    3.69    0.52
   5   4  -4    3.94    0.63
  -5   4   4    2.72    0.48
  -4  -4   4   17.82    1.44
   4  -4  -4   18.98    1.70
   4   4  -4   19.16    1.95
  -4   4   4   18.73    1.40
  -4   4   4   18.47    1.44
  -3  -4   4   43.41    3.30
   3  -4  -4   44.25    3.25
  -3  -4   4   42.21    3.07
   3   4  -4   43.09    3.09
   3   4  -4   44.99    3.16
  -3   4   4   44.02    3.09
  -3   4   4   39.40    3.06
  -2  -4   4   85.84    6.22
  -2  -4   4   85.92    6.07
   2  -4  -4   93.61    6.28
   2   4  -4   85.03    6.09
  -2   4   4   91.29    6.19
  -2   4   4   77.63    6.07
   2   4  -4   90.08    6.16
  -2   4   4   83.54    6.09
  -1  -4   4  106.95    6.77
   1  -4  -4   94.55    6.82
   1  -4  -4   90.10    6.61
   1   4  -4   97.99    6.68
   1   4  -4   87.27    6.62
  -1   4   4   89.21    6.61
  -1   4   4   94.24    6.70
   0  -4  -4   43.14    3.13
   0  -4   4   45.81    3.30
   0  -4  -4   42.08    3.43
   0   4  -4   45.64    3.19
   0   4   4   45.59    3.23
   0   4  -4   42.38    3.14
   0   4   4   41.72    3.10
   1  -4   4   67.37    4.89
  -1  -4  -4   68.93    4.76
  -1   4  -4   64.04    4.76
   1   4   4   67.83    4.71
   1   4   4   67.35    4.83
  -1   4  -4   66.94    4.81
  -2  -4  -4  104.83    7.19
   2  -4   4   94.06    7.31
   2  -4   4  109.12    7.26
  -2   4  -4   99.20    7.17
  -3  -4  -4   41.88    3.06
   3  -4   4   46.27    3.41
   3   4   4   38.15    3.04
  -3   4  -4   37.85    2.95
  -4  -4  -4   14.65    1.50
   4  -4   4   12.51    1.48
   4   4   4   12.96    1.31
  -4   4  -4   13.67    1.14
   5  -4   4    7.82    1.30
  -5  -4  -4    8.52    1.28
  -5   4  -4    6.12    0.78
   5   4   4    7.28    1.06
  -5   4  -4    8.33    0.87
   6  -4   4    0.03    0.85
   6  -4   4   -0.75    1.39
  -6  -4  -4    1.30    1.01
   6   4   4    0.03    0.72
  -6   4  -4    0.59    0.44
  -6   4  -4    1.74    0.49
  -7  -4  -4   24.32    2.36
   7  -4   4   19.70    3.20
  -7   4  -4   20.76    1.76
  -7   4  -4   22.37    1.78
   7   4   4   22.08    2.27
  -8  -4  -4   29.22    2.97
   8  -4   4   19.53    3.60
  -8   4  -4   24.82    2.18
  -8   4  -4   31.11    2.17
   8   4   4   28.94    2.85
   9  -4   4   21.95    3.33
  -9  -4  -4   24.61    2.86
  -9  -4  -4   15.09    3.13
   9   4   4   18.87    2.71
  10  -4   4   19.91    4.01
  10   4   4   20.12    3.17
 -10   4  -4   20.58    1.87
  11  -4   4   26.41    4.18
  11   4   4   19.34    3.37
 -11   4  -4   19.66    2.04
  12  -5  -4   22.56    4.36
  11  -5  -4    0.36    3.08
 -11   5   4    1.96    0.85
  11   5  -4   -0.51    2.37
  10  -5  -4    6.39    2.99
  10   5  -4    3.99    2.25
 -10   5   4    2.69    0.86
   9  -5  -4    3.01    2.20
  -9  -5   4    2.19    0.92
  -8  -5   4   25.20    2.06
  -8  -5   4   26.72    2.53
   8  -5  -4   16.43    3.26
   8   5  -4   22.92    2.65
  -8   5   4   22.81    1.93
  -8   5   4   23.65    1.85
  -7  -5   4    7.00    0.98
  -7   5   4    4.29    0.76
   7   5  -4    7.13    1.35
  -7   5   4    5.39    0.81
   7   5  -4    6.51    0.77
   6  -5  -4  184.94   14.31
  -6  -5   4  201.78   14.15
  -6  -5   4  192.89   14.27
   6   5  -4  207.29   14.34
  -6   5   4  207.15   14.16
  -6   5   4  204.37   14.13
   6   5  -4  213.79   14.12
  -5  -5   4    5.83    0.90
   5  -5  -4    7.48    1.31
   5   5  -4    5.89    0.76
  -5   5   4    5.35    0.72
   5   5  -4    6.66    0.98
  -4  -5   4   97.04    7.68
  -4  -5   4  112.99    7.53
   4  -5  -4   99.67    7.69
  -4   5   4  113.36    7.56
   4   5  -4  111.28    7.66
   3  -5  -4    4.82    0.91
  -3  -5   4    4.54    0.54
  -3   5   4    4.51    0.77
   3   5  -4    4.92    0.65
  -3   5   4    4.54    0.60
   3   5  -4    4.92    0.72
   2  -5  -4   72.06    5.34
  -2   5   4   70.50    5.18
   2   5  -4   71.88    5.15
   1  -5  -4    1.36    0.85
  -1  -5   4    0.32    0.67
   1  -5  -4    0.80    0.40
  -1   5   4    0.63    0.35
   1   5  -4    0.28    0.42
  -1   5   4    0.88    0.45
   0  -5  -4    0.59    0.45
   0  -5  -4    1.05    0.90
   0   5   4    0.62    0.32
   0   5   4    0.73    0.53
   0   5  -4    0.82    0.45
  -1  -5  -4    0.23    0.50
  -1  -5  -4    1.72    0.96
   1  -5   4   -0.43    0.56
   1   5   4    0.53    0.30
  -1   5  -4    0.39    0.42
   1   5   4    0.40    0.49
  -1   5  -4    0.08    0.43
  -2  -5  -4   23.11    2.23
   2  -5   4   17.33    1.87
  -2  -5  -4   24.14    1.78
   2   5   4   20.85    1.76
  -2   5  -4   20.40    1.64
  -3  -5  -4    3.32    0.88
  -3  -5  -4    3.96    1.19
   3   5   4    2.61    0.70
  -3   5  -4    3.64    0.58
   4  -5   4   87.18    6.42
  -4  -5  -4   85.76    6.35
  -4  -5  -4   91.17    6.61
   4   5   4   86.70    6.35
  -4   5  -4   86.68    6.22
  -5  -5  -4    6.02    1.47
  -5  -5  -4    5.15    1.13
  -5   5  -4    4.57    0.74
   5   5   4    5.19    1.02
  -6  -5  -4  133.45    9.10
   6  -5   4  115.01    9.10
   6  -5   4  111.87    8.87
  -6  -5  -4  121.19    8.83
   6   5   4  129.21    8.87
  -6   5  -4  120.31    8.62
  -7  -5  -4    1.90    1.58
  -7  -5  -4    3.39    1.41
   7   5   4    3.11    1.28
  -7   5  -4    2.36    0.68
  -8  -5  -4   21.86    2.76
   8  -5   4   18.64    6.52
  -8   5  -4   17.25    1.65
   8   5   4   17.18    2.41
  -9  -5  -4   -1.68    1.97
   9  -5   4   -0.41    2.71
  -9   5  -4    2.41    0.85
   9   5   4    0.96    1.72
 -10  -5  -4    5.62    2.06
  10  -5   4    5.41    3.31
 -10   5  -4    8.11    1.16
  10   5   4    5.23    2.10
 -12  -6   4   45.63    3.91
 -11  -6   4   25.78    2.66
  10  -6  -4   58.12    6.20
 -10   6   4   56.47    4.11
  10   6  -4   47.84    5.09
   9  -6  -4   22.86    4.29
  -9  -6   4   32.66    3.10
   8  -6  -4   19.37    3.45
  -8  -6   4   25.31    2.03
  -8  -6   4   20.54    2.62
  -8   6   4   20.00    1.86
   7  -6  -4   12.82    2.40
  -7  -6   4   11.43    1.21
   7   6  -4    7.14    1.50
  -7   6   4    6.46    1.06
  -6  -6   4   21.58    2.24
   6  -6  -4   19.23    2.38
  -6  -6   4   22.73    1.71
  -6   6   4   19.65    1.69
   6   6  -4   19.41    1.98
   6   6  -4   18.42    1.59
   5  -6  -4    0.98    0.92
  -5  -6   4    1.89    0.49
   5   6  -4    1.69    0.57
   5   6  -4    1.24    0.73
  -5   6   4    1.65    0.58
  -4  -6   4   23.33    1.67
   4  -6  -4   19.64    1.92
  -4  -6   4   20.86    2.15
   4  -6  -4   22.04    2.17
   4   6  -4   21.30    1.86
   4   6  -4   22.94    1.72
  -4   6   4   22.95    1.74
   3  -6  -4    9.54    1.23
   3   6  -4    8.89    1.01
  -3   6   4    8.28    1.03
  -3   6   4    8.25    0.88
   3   6  -4    7.60    0.86
  -2  -6   4   81.77    6.57
   2  -6  -4   90.12    6.61
   2   6  -4   88.99    6.39
  -2   6   4   94.75    6.40
   2   6  -4   95.47    6.52
  -2   6   4   90.74    6.53
   1  -6  -4   14.19    1.81
   1   6  -4   18.00    1.48
  -1   6   4   16.88    1.53
  -1   6   4   16.86    1.41
   0  -6  -4   51.66    4.13
   0  -6   4   48.84    4.00
   0  -6  -4   53.85    3.78
   0   6  -4   52.60    3.87
   0   6  -4   50.98    3.78
   0   6   4   56.31    3.75
   0   6   4   51.58    3.92
  -1  -6  -4   11.32    1.21
  -1  -6  -4    9.50    1.70
   1   6   4   12.65    0.97
  -1   6  -4   11.92    1.18
   1   6   4   11.25    1.24
  -1   6  -4   11.51    1.08
  -2  -6  -4  113.27    7.62
  -2  -6  -4  104.15    7.88
   2  -6   4   97.68    7.68
  -2   6  -4  106.34    7.55
   2   6   4  106.49    7.68
   2   6   4  111.33    7.46
  -3  -6  -4    8.54    1.55
  -3  -6  -4    8.14    1.34
  -3   6  -4    6.50    0.88
   3   6   4    8.56    1.10
   4  -6   4   17.38    1.83
  -4  -6  -4   14.63    2.32
   4  -6   4   15.40    2.04
  -4  -6  -4   13.80    1.75
   4   6   4   16.32    1.63
  -4   6  -4   13.70    1.35
  -5  -6  -4    2.02    1.13
  -5  -6  -4    1.95    1.50
   5  -6   4    1.38    1.40
   5  -6   4    2.26    1.05
   5   6   4    1.59    0.96
  -5   6  -4    1.94    0.64
   6  -6   4    2.08    1.18
  -6  -6  -4    3.39    1.41
  -6  -6  -4    0.11    1.59
   6  -6   4    1.13    1.64
   6   6   4    0.70    1.17
  -6   6  -4    0.70    0.76
  -7  -6  -4    4.83    1.95
  -7  -6  -4    7.68    1.75
   7  -6   4    3.13    1.33
   7   6   4    5.33    1.62
  -7   6  -4    5.73    0.94
  -8  -6  -4   32.54    3.95
   8  -6   4   24.40    4.88
  -8   6  -4   34.68    2.74
   8   6   4   38.11    3.50
   9  -6   4    7.64    3.36
  -9  -6  -4    4.94    2.23
  -9   6  -4    9.35    1.34
   9   6   4    5.70    2.00
  10  -6   4   28.89    4.28
 -10  -6  -4   19.11    3.30
  10   6   4   26.00    3.05
 -10   6  -4   28.10    2.24
 -11  -7   4   37.46    3.48
  10  -7  -4    4.40    3.02
 -10   7   4    2.74    0.98
  10   7  -4   -2.14    2.02
   9  -7  -4   10.48    3.03
  -9   7   4    9.20    1.33
   9   7  -4    8.33    2.37
   8  -7  -4    8.05    2.47
  -8   7   4    9.49    1.34
   8   7  -4    7.66    1.98
   7  -7  -4   51.73    4.91
  -7  -7   4   49.78    5.60
  -7  -7   4   56.49    4.25
  -7   7   4   59.71    4.18
   7   7  -4   57.33    4.62
  -6  -7   4   97.61    7.17
   6  -7  -4   93.60    7.38
  -5  -7   4   83.10    5.98
   5  -7  -4   76.35    6.04
   5  -7  -4   73.25    5.70
   5   7  -4   76.50    5.82
   5   7  -4   74.88    5.54
  -5   7   4   84.50    5.66
   4   7  -4   21.83    2.02
   4   7  -4   22.50    1.80
  -4   7   4   22.37    1.86
   3  -7  -4   52.55    4.13
  -3  -7   4   55.64    4.27
  -3   7   4   51.65    4.08
   3   7  -4   51.28    3.89
  -3   7   4   55.55    3.91
   3   7  -4   54.45    4.06
   2  -7  -4   11.43    1.55
   2   7  -4   11.17    1.26
  -2   7   4   10.89    1.33
   2   7  -4   12.19    1.14
  -2   7   4   12.21    1.12
  -1  -7   4    2.83    1.11
   1  -7  -4    1.77    1.00
   1   7  -4    0.97    0.66
   1   7  -4    1.42    0.63
  -1   7   4    1.45    0.78
   0  -7   4    1.36    0.96
   0  -7  -4    0.79    1.04
   0   7  -4    0.89    0.56
   0   7  -4   -0.08    0.58
   0   7   4    0.34    0.49
   0   7   4    0.77    0.72
   1  -7   4    2.46    1.05
  -1  -7  -4    0.57    1.13
  -1   7  -4    2.00    0.60
   1   7   4    0.58    0.76
  -1   7  -4    0.96    0.63
  -2  -7  -4    5.46    1.44
  -2  -7  -4    7.18    1.27
   2   7   4    5.73    1.15
  -2   7  -4    5.56    0.88
   3  -7   4   48.96    3.68
  -3  -7  -4   37.34    3.81
  -3  -7  -4   43.12    3.39
   3  -7   4   48.55    3.75
  -3   7  -4   40.36    3.26
   3   7   4   42.12    3.48
  -4  -7  -4   19.93    2.68
  -4  -7  -4   24.65    2.17
   4   7   4   19.29    2.15
  -4   7  -4   20.90    1.83
  -5  -7  -4   59.40    4.30
   5  -7   4   57.29    4.52
  -5  -7  -4   47.16    4.61
   5  -7   4   56.45    4.75
  -5   7  -4   49.82    3.95
   5   7   4   49.15    4.28
  -6  -7  -4   22.64    3.26
   6   7   4   25.68    2.80
  -6   7  -4   27.26    2.20
   7  -7   4   41.19    4.85
  -7  -7  -4   32.17    3.89
   7   7   4   35.53    3.56
  -7   7  -4   33.22    2.82
   8  -7   4    9.77    3.46
  -8  -7  -4    3.76    2.10
   8   7   4    5.32    1.95
  -8   7  -4    6.51    1.18
   9  -7   4   11.00    3.60
  -9   7  -4   12.81    1.50
   9  -8  -4   35.94    4.39
   9   8  -4   25.58    3.53
  -9   8   4   28.02    2.40
   8  -8  -4   10.93    2.79
  -7  -8   4   30.31    3.25
   7  -8  -4   25.86    3.85
  -7   8   4   28.27    2.50
   7   8  -4   28.62    3.10
   6  -8  -4    2.76    1.78
  -6   8   4    0.34    0.93
   6   8  -4    1.87    1.34
   5  -8  -4    5.71    1.87
  -5  -8   4    6.34    1.74
  -5   8   4    4.31    0.98
   4  -8  -4    2.43    1.67
   3  -8  -4   35.27    3.26
  -3  -8   4   32.84    3.28
   3   8  -4   34.68    2.97
  -3   8   4   40.39    2.84
   1  -8  -4   68.45    5.55
   1   8  -4   74.07    5.40
   1   8  -4   74.63    5.25
   0  -8  -4    1.19    1.19
   0   8   4    0.69    0.49
   0   8  -4    0.46    0.73
   0   8  -4    0.92    0.81
  -1  -8  -4   53.01    4.97
  -1   8  -4   54.40    4.08
   1   8   4   50.51    4.29
  -1   8  -4   53.02    3.94
  -2  -8  -4    1.97    1.36
   2   8   4    0.03    0.96
  -2   8  -4    1.40    1.31
   3  -8   4   32.81    4.93
  -3  -8  -4   31.44    3.45
  -3   8  -4   34.17    2.67
   3   8   4   34.18    3.05
   4  -8   4    2.98    1.72
   4  -8   4    3.21    1.61
  -4  -8  -4    1.32    1.62
  -4   8  -4    1.20    0.86
   4   8   4    0.12    1.28
  -5  -8  -4    4.84    1.95
   5  -8   4    8.00    2.41
  -5   8  -4    7.36    1.17
   5   8   4    4.85    1.58
   6  -8   4    3.63    2.77
  -6  -8  -4   -0.71    1.80
   6   8   4   -0.39    1.64
  -6   8  -4    3.04    0.99
   7  -8   4   24.18    4.76
  -7  -8  -4   17.03    3.18
  -7   8  -4   25.23    2.15
   7   8   4   22.23    2.92
  -8  -8  -4    0.63    1.57
   8  -8   4    8.32    3.00
  -7  -9   4   51.98    4.20
   7  -9  -4   51.74    4.58
  -7   9   4   38.47    3.57
   6   9  -4   26.52    2.90
  -6   9   4   26.12    2.43
   5  -9  -4   51.17    4.75
  -5  -9   4   60.35    4.57
   5   9  -4   42.62    4.23
  -5   9   4   49.69    3.95
   4  -9  -4   25.97    3.42
  -4  -9   4   28.35    3.22
  -3  -9   4   38.49    3.59
  -3   9   4   36.82    2.96
   3   9  -4   34.10    3.19
  -2   9   4    8.95    1.44
   2   9  -4    8.35    1.34
   2   9  -4    7.71    1.56
  -2   9   4    5.99    1.39
   1  -9  -4    5.31    1.63
  -1   9   4    1.73    1.12
   1   9  -4    1.03    1.01
   1   9  -4    2.72    1.00
   0  -9  -4    0.87    1.35
   0   9   4    0.18    1.10
   0   9  -4    1.20    1.00
   0   9  -4   -0.50    0.84
  -1  -9  -4    3.50    1.48
  -1   9  -4    2.55    0.98
   1   9   4    2.20    1.19
  -2  -9  -4    4.25    1.60
  -2   9  -4    5.58    1.08
   2   9   4    3.63    1.37
   3  -9   4   30.46    3.62
  -3  -9  -4   21.75    3.02
   3   9   4   20.17    2.59
  -3   9  -4   24.65    2.17
  -4  -9  -4   15.81    2.72
  -4   9  -4   11.02    1.60
   4   9   4   10.80    2.20
   5  -9   4   38.79    4.48
  -5  -9  -4   34.01    3.84
  -5   9  -4   41.15    3.03
   5   9   4   33.85    3.55
   6  -9   4   40.66    4.65
  -5  10   4    3.70    1.07
  -4 -10   4   31.36    3.37
   3 -10  -4    5.38    2.28
  -3  10   4   10.16    1.33
   2  10  -4   27.80    2.77
  -2  10   4   28.84    2.76
   1  10  -4   12.82    1.42
   0  10   4   19.22    2.25
   0  10  -4   20.39    2.03
   0  10  -4   19.90    2.26
   2 -10   4   40.65    4.13
  -2 -10  -4   38.44    3.63
   2  10   4   28.45    2.95
  -2  10  -4   33.24    2.80
   4 -10   4   18.85    3.94
   4 -10   4   25.22    3.58
  14   0  -5    1.28    2.08
  13   0  -5   42.08    4.64
 -13   0   5   43.21    3.70
  12   0  -5   -0.23    1.00
 -12   0   5    1.75    1.14
  12   0  -5   -0.10    2.11
 -11   0   5  114.02    9.14
  11   0  -5  126.59    9.60
  11   0  -5  141.00    9.07
 -10   0   5    0.19    0.72
  10   0  -5    1.29    1.45
  10   0  -5    0.65    0.72
   9   0  -5   45.98    3.79
  -9   0   5   43.43    3.36
  -8   0   5   -0.12    0.46
   8   0  -5    0.12    1.10
   7   0  -5   98.79    7.05
  -7   0   5   91.23    6.74
  -6   0   5   -0.44    0.33
   6   0  -5    0.27    0.98
  -5   0   5    3.51    0.51
   5   0  -5    5.86    1.07
  -4   0   5   -0.24    0.21
   4   0  -5    0.65    0.78
   4   0  -5    0.03    0.31
   3   0  -5  174.93   13.69
   3   0  -5  215.09   13.61
  -2   0   5    0.19    0.16
   2   0  -5    0.14    0.27
   1   0  -5  435.38   30.13
  -1   0   5  431.12   30.14
   0   0  -5    0.43    0.21
   0   0   5    0.75    0.46
   0   0   5    0.38    0.18
  -1   0  -5  226.14   15.28
  -1   0  -5  235.78   15.26
   1   0   5  195.46   15.40
  -2   0  -5    0.22    0.19
   2   0   5    0.18    0.41
   2   0   5    0.15    0.38
  -2   0  -5    0.36    0.30
  -3   0  -5   85.39    5.85
  -3   0  -5   80.42    5.79
   4   0   5   -0.42    0.66
   4   0   5    0.20    0.43
  -4   0  -5    0.00    0.49
  -4   0  -5   -0.18    0.24
   5   0   5   42.55    3.32
  -5   0  -5   44.00    3.16
   5   0   5   38.79    3.11
  -5   0  -5   41.16    2.95
   6   0   5   -0.11    0.60
  -6   0  -5    0.26    0.35
  -6   0  -5    0.45    0.90
   6   0   5    1.05    0.87
  -7   0  -5   51.19    3.53
   7   0   5   54.85    4.10
  -7   0  -5   43.77    3.82
   7   0   5   47.43    3.70
   8   0   5   -0.61    1.45
  -8   0  -5    0.92    0.48
  -8   0  -5   -0.66    1.17
   8   0   5    0.99    0.69
  -9   0  -5   49.98    4.26
   9   0   5   51.09    4.55
 -10   0  -5    4.55    1.93
  10   0   5    0.73    1.99
 -11   0  -5   61.93    5.27
  11   0   5   59.06    5.55
  12   0   5    1.30    2.36
  14  -1  -5   21.84    3.97
 -14  -1   5   30.26    2.63
 -14   1   5   32.55    2.74
  13  -1  -5   20.18    1.99
 -13  -1   5   19.58    2.29
  13  -1  -5   19.17    3.00
 -13   1   5   20.18    2.37
  13   1  -5   15.41    3.07
 -12  -1   5    5.08    1.23
  12  -1  -5    3.83    1.96
  12   1  -5    3.01    2.13
 -12   1   5    6.45    1.29
 -11  -1   5    3.25    1.82
  11   1  -5   -0.22    2.33
 -11   1   5    1.40    0.79
 -11   1   5    1.67    0.97
 -10  -1   5    4.46    0.95
  10  -1  -5    6.41    1.78
  10   1  -5    5.68    1.78
 -10   1   5    4.31    0.78
 -10   1   5    3.99    0.93
  -9  -1   5    6.91    1.04
   9  -1  -5   12.18    1.83
  -9   1   5    8.73    0.88
   9   1  -5    9.61    1.75
   9   1  -5    8.15    1.10
  -9   1   5    5.89    1.01
   8  -1  -5   10.74    2.00
  -8  -1   5    5.71    0.89
  -8   1   5    6.11    0.89
   8   1  -5    8.22    0.99
  -8   1   5    7.48    0.79
   7  -1  -5  155.70   10.30
  -7  -1   5  136.43   10.04
   7   1  -5  149.66   10.03
   7   1  -5  131.42   10.36
  -7   1   5  138.04   10.01
  -7   1   5  143.12   10.04
   6  -1  -5   90.19    6.66
  -6   1   5   90.96    6.37
   6   1  -5   89.39    6.36
  -6   1   5   88.26    6.34
   5  -1  -5  157.63   11.13
  -5  -1   5  152.24   10.94
  -5   1   5  151.32   10.92
  -5   1   5  162.85   10.95
   4  -1  -5   77.96    5.84
  -4  -1   5   78.34    5.70
   4   1  -5   82.10    5.71
  -4   1   5   80.69    5.69
  -4   1   5   84.70    5.71
  -3  -1   5  359.18   23.89
   3  -1  -5  325.00   23.91
  -3   1   5  343.73   23.89
   3   1  -5  347.03   23.90
   3   1  -5  314.05   23.92
  -3   1   5  369.49   23.89
  -2  -1   5   31.99    2.35
  -2  -1   5   33.88    2.45
   2  -1  -5   35.32    2.39
  -2   1   5   30.79    2.36
   1  -1  -5    1.10    0.23
  -1  -1   5    1.43    0.23
  -1  -1   5    0.86    0.43
   1  -1  -5    1.55    0.27
  -1   1   5    1.44    0.25
   1   1  -5    1.70    0.32
  -1   1   5    1.50    0.26
   0  -1  -5    0.39    0.20
   0  -1  -5    0.05    0.17
   0  -1   5    0.06    0.43
   0  -1   5    0.14    0.17
   0   1  -5    0.05    0.20
   0   1   5    0.56    0.34
   0   1   5    0.10    0.19
   0   1   5    0.33    0.20
  -1  -1  -5   13.08    0.93
  -1  -1  -5   12.54    1.00
  -1   1  -5   12.92    0.97
   1   1   5   11.01    1.10
   1   1   5   13.51    0.97
  -1   1  -5   12.67    0.96
   1   1   5   12.96    0.98
  -2  -1  -5   28.15    2.00
  -2  -1  -5   28.14    1.92
  -2   1  -5   27.34    1.95
  -2   1  -5   27.39    1.98
   2   1   5   25.01    2.10
  -3  -1  -5   97.62    6.45
   3  -1   5   77.02    6.58
  -3   1  -5   96.67    6.40
   3   1   5   89.33    6.54
   3   1   5   95.60    6.49
  -4  -1  -5   27.38    2.03
   4  -1   5   24.26    2.10
   4   1   5   26.37    2.06
  -4   1  -5   25.01    1.89
   4   1   5   26.84    2.08
   5  -1   5  116.83    9.00
  -5  -1  -5  134.57    9.00
   5  -1   5  112.98    9.08
  -5   1  -5  131.02    8.87
   5   1   5  137.92    9.06
  -6  -1  -5   56.84    4.55
   6   1   5   65.16    4.66
   6   1   5   64.78    4.51
  -6   1  -5   57.15    4.54
  -6   1  -5   60.53    4.33
  -7  -1  -5   61.39    5.05
   7  -1   5   62.15    4.92
   7   1   5   74.86    5.21
  -7   1  -5   69.67    4.80
   7   1   5   70.76    4.97
  -7   1  -5   65.42    5.04
  -8  -1  -5   12.80    1.91
   8  -1   5   15.15    2.19
   8  -1   5   11.12    1.40
  -8   1  -5   14.64    1.19
  -8   1  -5   14.23    1.88
   8   1   5   12.95    2.15
   8   1   5   14.61    1.45
   9  -1   5   23.54    3.21
  -9  -1  -5   22.10    2.68
  -9   1  -5   25.28    2.75
  -9   1  -5   21.99    1.80
   9   1   5   25.24    2.90
  10  -1   5    2.26    2.26
 -10  -1  -5    5.52    1.83
 -11  -1  -5   25.87    3.46
 -11   1  -5   33.49    3.52
 -14   2   5   45.55    3.74
  13  -2  -5    7.68    2.47
  13   2  -5    6.71    2.31
 -13   2   5    6.62    1.28
 -12  -2   5   45.23    3.50
  12  -2  -5   40.39    4.55
 -12   2   5   43.85    3.49
  12   2  -5   40.76    4.30
 -12   2   5   36.13    3.20
 -11  -2   5   17.39    1.86
 -11   2   5   14.79    1.57
  11   2  -5   15.77    3.18
 -11   2   5   18.98    1.96
  11   2  -5   15.45    2.07
 -10  -2   5   74.27    5.39
  10  -2  -5   75.06    5.98
 -10   2   5   73.57    5.37
  10   2  -5   67.50    6.08
  10   2  -5   78.72    5.38
 -10   2   5   68.29    5.26
  -9  -2   5    8.08    1.03
   9  -2  -5   10.89    1.88
   9   2  -5    4.82    2.01
  -9   2   5    6.61    1.02
   9   2  -5    8.18    1.22
  -9   2   5    5.29    0.80
  -8  -2   5   24.73    2.00
   8  -2  -5   23.02    2.77
  -8   2   5   25.41    1.92
  -8   2   5   25.80    1.99
  -7  -2   5    8.05    0.95
  -7   2   5    9.11    0.84
   7   2  -5    7.79    1.61
   7   2  -5   11.19    1.46
   6  -2  -5   23.04    2.59
  -6  -2   5   23.96    1.84
  -6   2   5   23.31    1.78
   6   2  -5   23.71    2.36
   6   2  -5   23.96    1.94
   5  -2  -5    0.62    0.70
  -5  -2   5   -0.17    0.31
   5   2  -5    0.65    0.76
  -5   2   5    0.44    0.28
  -5   2   5    0.75    0.30
   5   2  -5    1.22    0.62
   4  -2  -5   44.82    3.48
  -4  -2   5   45.95    3.38
   4   2  -5   46.75    3.49
  -4   2   5   47.72    3.37
  -4   2   5   50.59    3.38
   3  -2  -5   23.11    1.85
  -3  -2   5   22.66    1.75
  -3  -2   5   26.65    1.87
  -3   2   5   24.03    1.74
   3   2  -5   24.96    1.80
   3   2  -5   24.40    1.79
  -3   2   5   21.60    1.74
  -2  -2   5  289.61   20.09
  -2  -2   5  289.78   20.03
  -2   2   5  301.45   20.03
  -2   2   5  278.05   20.04
  -2   2   5  297.04   20.07
   2   2  -5  281.30   20.04
   2   2  -5  276.28   20.03
  -1  -2   5   51.60    3.70
  -1  -2   5   47.61    3.58
  -1  -2   5   47.79    3.58
  -1   2   5   53.28    3.63
   1   2  -5   53.56    3.59
  -1   2   5   52.17    3.59
   1   2  -5   49.98    3.60
   0  -2   5  135.43    9.59
   0  -2   5  134.44    9.47
   0  -2   5  145.84    9.49
   0  -2  -5  130.58    9.49
   0   2   5  133.51    9.56
   0   2  -5  130.26    9.48
   0   2  -5  139.70    9.48
   0   2   5  136.23    9.52
  -1  -2  -5   27.92    2.02
  -1  -2  -5   28.12    1.96
   1  -2   5   26.68    2.04
   1  -2   5   27.74    2.18
  -1  -2  -5   26.88    1.95
   1   2   5   28.08    2.03
  -1   2  -5   27.10    1.99
  -1   2  -5   27.64    1.98
   1   2   5   28.48    2.12
  -2  -2  -5  164.16   11.20
   2  -2   5  158.95   11.36
   2  -2   5  149.23   11.25
  -2   2  -5  158.25   11.18
   2   2   5  166.83   11.30
   2   2   5  160.83   11.22
  -2   2  -5  162.43   11.17
   3  -2   5    7.69    1.10
  -3  -2  -5    9.66    0.91
   3   2   5   10.92    0.93
  -3   2  -5    9.39    0.77
   3   2   5    7.25    0.84
  -4  -2  -5   38.52    2.88
  -4   2  -5   36.01    2.76
   4   2   5   38.60    2.93
  -4   2  -5   40.43    2.86
  -5  -2  -5    5.47    0.99
   5  -2   5    3.80    0.92
  -5   2  -5    4.74    0.69
   5   2   5    4.51    0.84
   5   2   5    5.72    0.95
  -5   2  -5    5.02    0.94
  -6  -2  -5    1.71    0.93
   6  -2   5    1.55    1.23
   6  -2   5    0.40    0.65
   6   2   5    1.29    0.62
   6   2   5    0.60    0.83
  -6   2  -5    0.57    0.84
  -6   2  -5    0.95    0.39
   7  -2   5    6.09    1.00
  -7  -2  -5    5.98    1.20
  -7   2  -5    6.58    0.73
   7   2   5    6.14    1.31
  -7   2  -5    6.82    1.22
   7   2   5    6.47    1.04
   8  -2   5   29.14    3.29
  -8  -2  -5   32.08    3.00
   8   2   5   35.99    2.74
  -8   2  -5   34.13    2.53
   8   2   5   35.42    3.19
  -8   2  -5   33.72    2.93
   9  -2   5    8.45    2.12
  -9  -2  -5    7.79    1.83
  -9   2  -5   10.24    1.64
  -9   2  -5    6.67    0.98
   9   2   5    5.97    1.23
   9   2   5   10.45    1.94
 -10  -2  -5   57.10    5.12
  10  -2   5   59.30    5.49
  10   2   5   61.55    5.22
 -10   2  -5   61.85    5.30
 -11  -2  -5   27.94    3.48
 -11   2  -5   32.14    3.52
 -12  -2  -5   61.88    5.40
 -12   2  -5   73.48    5.39
 -14   3   5   27.93    2.54
  13  -3  -5    2.96    2.59
  13   3  -5   -2.20    2.35
 -13   3   5    5.65    1.47
 -13   3   5    3.67    1.12
 -12  -3   5   16.66    1.95
  12  -3  -5   10.06    2.93
 -12   3   5   12.07    1.47
  12   3  -5    9.27    2.68
 -12   3   5   12.52    1.92
 -11  -3   5    1.27    0.99
  11  -3  -5   -0.19    2.38
 -11   3   5    0.32    0.74
  11   3  -5   -2.86    2.14
 -11   3   5    0.62    0.89
 -10  -3   5   11.64    1.49
  10  -3  -5   11.29    2.57
 -10   3   5    9.61    1.30
  10   3  -5    7.14    1.49
  10   3  -5   10.81    2.56
 -10   3   5    8.90    1.10
   9  -3  -5    1.99    1.80
  -9  -3   5    0.51    0.68
  -9   3   5    0.59    0.56
  -9   3   5    1.00    0.56
   9   3  -5   -2.21    1.07
   9   3  -5    0.58    1.80
  -8  -3   5   20.54    1.68
   8  -3  -5   16.80    2.68
   8   3  -5   14.40    2.16
  -8   3   5   23.19    1.67
   8   3  -5   16.00    2.40
  -8   3   5   19.85    1.56
  -7  -3   5    4.80    0.71
   7  -3  -5    5.23    1.36
   7   3  -5    6.97    1.41
  -7   3   5    5.72    0.79
   7   3  -5    5.91    1.12
  -7   3   5    4.37    0.64
   6  -3  -5  226.48   16.03
  -6  -3   5  216.32   15.87
  -6   3   5  248.68   15.89
   6   3  -5  228.16   16.06
  -6   3   5  214.13   15.85
  -5  -3   5    4.52    0.67
  -5  -3   5    6.14    1.12
   5  -3  -5    5.20    1.06
   5   3  -5    5.59    0.84
   5   3  -5    7.39    0.95
  -5   3   5    5.97    0.60
  -5   3   5    5.63    0.63
  -4  -3   5  234.40   15.26
   4  -3  -5  243.14   15.29
  -4  -3   5  208.51   15.20
   4   3  -5  202.14   15.25
   4   3  -5  212.00   15.22
  -4   3   5  205.66   15.19
  -3  -3   5    8.63    0.77
  -3   3   5    8.82    0.76
   3   3  -5   10.32    0.86
  -2  -3   5   84.57    6.37
  -2  -3   5   90.98    6.26
   2   3  -5   88.11    6.28
   2   3  -5   91.18    6.30
  -2   3   5   91.53    6.34
  -1  -3   5   -0.30    0.41
  -1  -3   5   -0.08    0.18
   1   3  -5    0.11    0.28
  -1   3   5    0.27    0.34
  -1   3   5    0.13    0.29
   1   3  -5    0.33    0.28
   0  -3   5   -0.31    0.40
   0  -3   5    0.22    0.20
   0  -3  -5    0.42    0.31
   0   3   5    0.29    0.28
   0   3   5    0.64    0.23
   0   3  -5    0.39    0.28
   0   3  -5    0.31    0.27
   0   3   5    0.43    0.36
  -1  -3  -5    0.79    0.38
   1  -3   5    0.01    0.43
  -1  -3  -5    0.70    0.19
   1   3   5    0.48    0.39
  -1   3  -5    0.71    0.31
   1   3   5    0.52    0.31
  -2  -3  -5   73.99    5.23
   2  -3   5   74.70    5.36
   2   3   5   76.64    5.33
   2   3   5   70.54    5.25
  -2   3  -5   73.59    5.17
  -2   3  -5   72.42    5.20
  -3  -3  -5    4.32    0.77
   3  -3   5    4.17    0.88
   3  -3   5    2.77    0.76
   3   3   5    4.24    0.70
  -3   3  -5    4.77    0.67
   3   3   5    4.46    0.77
  -3   3  -5    4.28    0.84
   4  -3   5   68.79    5.64
  -4  -3  -5   77.26    5.43
   4   3   5   77.96    5.48
  -4   3  -5   74.38    5.34
   4   3   5   75.31    5.45
  -4   3  -5   77.76    5.40
  -5  -3  -5    6.37    1.02
   5  -3   5    3.93    1.43
  -5   3  -5    4.65    0.64
   5   3   5    4.57    0.95
  -5   3  -5    5.61    0.90
   5   3   5    5.85    0.90
  -6  -3  -5  159.96   12.09
   6   3   5  181.15   12.10
  -6   3  -5  167.86   12.04
   6   3   5  184.24   12.16
  -6   3  -5  158.24   11.93
  -7  -3  -5    2.48    1.17
   7  -3   5    3.45    1.36
  -7   3  -5    3.78    0.62
   7   3   5    4.66    1.28
   7   3   5    3.26    0.77
  -8  -3  -5   35.14    3.49
   8   3   5   41.27    3.22
   8   3   5   45.29    3.64
  -8   3  -5   42.01    3.32
  -8   3  -5   38.55    3.01
   9  -3   5    0.52    2.00
  -9  -3  -5    4.61    1.71
   9   3   5    1.79    1.82
  -9   3  -5    2.87    0.74
   9   3   5    0.73    0.87
 -10  -3  -5   20.93    3.13
 -10   3  -5   29.79    3.64
  11  -3   5    0.08    2.49
  11   3   5    4.77    2.34
  12  -3   5   14.34    2.61
  13  -4  -5   20.23    3.57
 -13   4   5   14.46    1.68
  13   4  -5   13.20    2.70
  12  -4  -5   24.41    4.38
 -12   4   5   19.74    1.96
 -12   4   5   23.02    2.04
  12   4  -5   19.37    3.39
  11  -4  -5   47.35    5.04
 -11  -4   5   47.67    3.50
 -11   4   5   38.27    3.31
 -11   4   5   38.68    3.22
 -10   4   5   34.04    2.66
 -10   4   5   34.20    2.75
   9  -4  -5   17.85    3.37
  -9  -4   5   17.83    1.68
   9   4  -5   15.21    2.42
   9   4  -5   14.40    1.69
  -9   4   5   15.35    1.43
  -8  -4   5   14.04    1.34
   8  -4  -5   15.76    2.51
   8   4  -5   10.28    1.44
  -8   4   5   12.05    1.16
   8   4  -5   11.74    1.90
  -7  -4   5   25.57    2.12
   7  -4  -5   28.35    2.71
  -7   4   5   26.24    2.05
   7   4  -5   22.16    2.38
  -7   4   5   30.94    2.13
   7   4  -5   27.10    2.44
  -6  -4   5   10.30    1.15
  -6  -4   5   16.36    1.57
   6  -4  -5   11.80    1.66
   6   4  -5   13.04    1.42
   6   4  -5   14.66    1.30
  -6   4   5   11.63    1.09
  -6   4   5   13.65    1.13
  -5  -4   5    1.19    0.42
  -5  -4   5    1.17    0.80
   5  -4  -5    1.35    0.76
  -5   4   5    1.55    0.42
   5   4  -5    2.14    0.65
  -5   4   5    1.71    0.36
  -4  -4   5   14.28    1.18
  -4  -4   5   11.90    1.72
   4  -4  -5   15.55    1.48
   4   4  -5   15.74    1.25
  -4   4   5   14.30    1.16
   4   4  -5   16.75    1.32
  -4   4   5   14.32    1.18
   3  -4  -5   59.92    4.29
  -3  -4   5   58.35    4.11
   3   4  -5   57.53    4.13
  -3   4   5   53.55    4.11
   3   4  -5   59.32    4.18
  -3   4   5   58.99    4.12
  -2  -4   5  101.97    7.19
   2  -4  -5  104.69    7.40
   2   4  -5  108.27    7.27
   2   4  -5  102.17    7.23
  -2   4   5  102.37    7.21
  -2   4   5   92.58    7.21
  -2   4   5  107.17    7.31
  -1  -4   5  103.61    8.04
   1  -4  -5  107.84    7.74
   1  -4  -5  117.02    7.97
  -1   4   5  111.73    7.83
   1   4  -5  116.12    7.80
   1   4  -5  105.71    7.75
   0  -4  -5   57.62    4.03
   0   4   5   57.18    4.11
   0   4  -5   58.03    4.06
   0   4  -5   51.15    4.05
   0   4   5   58.04    3.99
   1  -4   5   72.36    5.54
  -1  -4  -5   75.38    5.36
  -1   4  -5   70.23    5.35
   1   4   5   76.26    5.43
   1   4   5   80.79    5.30
   1   4   5   78.37    5.48
  -2  -4  -5   68.60    4.73
   2  -4   5   67.24    4.87
  -2   4  -5   60.50    4.68
   2   4   5   68.81    4.83
   2   4   5   64.69    4.77
   3  -4   5   23.75    2.10
  -3  -4  -5   25.84    1.98
  -3   4  -5   22.50    1.84
   3   4   5   23.71    1.94
   3   4   5   25.26    2.02
   4  -4   5   12.83    1.52
  -4  -4  -5   14.02    1.47
   4   4   5   13.20    1.33
   4   4   5   15.29    1.37
  -4   4  -5   13.66    1.27
  -4   4  -5   12.75    1.15
   5  -4   5    9.90    1.56
   5  -4   5   11.71    2.09
  -5  -4  -5   12.04    1.51
   5   4   5   11.69    1.31
  -5   4  -5   11.87    1.16
   5   4   5   12.68    1.27
  -5   4  -5   11.54    1.04
   6  -4   5   -0.71    1.44
   6  -4   5    0.33    0.87
  -6  -4  -5    0.55    1.02
  -6   4  -5    1.72    0.62
   6   4   5    0.63    0.80
   6   4   5    0.25    0.62
  -6   4  -5    0.70    0.45
   7  -4   5   11.14    1.77
  -7  -4  -5   12.19    1.98
   7   4   5   15.65    1.83
  -7   4  -5   14.24    1.24
   8  -4   5   14.74    3.12
  -8   4  -5   18.13    1.59
   8   4   5   18.68    2.55
  -9  -4  -5   29.34    3.15
   9  -4   5   23.20    3.28
  -9   4  -5   19.34    1.95
   9   4   5   21.33    2.83
  10  -4   5   23.06    4.23
 -10  -4  -5   17.47    3.10
  10   4   5   26.32    3.23
 -10   4  -5   23.91    2.05
  11  -4   5   20.43    3.78
 -11   4  -5   21.90    2.06
  11   4   5   23.11    3.19
  12  -5  -5    9.85    3.13
  11  -5  -5    2.08    3.20
  11   5  -5   -1.75    2.16
 -11   5   5    2.66    0.95
 -10  -5   5    9.75    1.65
  10  -5  -5    5.81    2.83
  -9  -5   5   11.36    1.50
   9  -5  -5   14.78    2.70
  -9   5   5    7.72    1.13
  -9   5   5    8.82    1.11
   9   5  -5    9.77    2.35
   8  -5  -5    2.92    1.65
  -8  -5   5    2.33    0.73
  -8   5   5    1.21    0.64
   8   5  -5   -0.04    1.21
  -7  -5   5   99.45    7.28
  -7  -5   5   96.12    7.42
   7  -5  -5   94.64    7.61
  -7   5   5  105.33    7.28
   7   5  -5  105.36    7.26
   7   5  -5  108.86    7.56
  -7   5   5  106.00    7.28
   6  -5  -5    8.30    1.51
  -6  -5   5    6.10    0.88
   6   5  -5    6.55    0.94
  -6   5   5    5.72    0.70
   6   5  -5    6.51    1.05
  -6   5   5    6.15    0.76
  -5  -5   5  107.41    8.17
   5  -5  -5  108.55    8.21
  -5  -5   5  116.34    8.05
  -5   5   5  108.54    8.01
   5   5  -5  121.09    8.17
  -5   5   5  121.43    8.05
   4  -5  -5    7.61    1.24
  -4  -5   5    4.87    0.60
   4  -5  -5    5.10    0.96
   4   5  -5    4.99    0.77
  -4   5   5    4.03    0.56
   4   5  -5    5.26    0.74
  -4   5   5    4.87    0.63
  -3  -5   5  157.10   12.65
  -3  -5   5  195.27   12.53
   3   5  -5  191.98   12.64
  -3   5   5  160.93   12.52
   3   5  -5  186.43   12.56
  -3   5   5  175.46   12.55
  -3   5   5  187.88   12.67
   2  -5  -5    2.13    0.95
   2  -5  -5    2.32    0.46
  -2   5   5    2.52    0.64
   2   5  -5    2.35    0.62
   1  -5  -5    1.71    0.47
  -1  -5   5   -0.08    0.69
   1  -5  -5    1.25    0.93
   1   5  -5    1.53    0.50
  -1   5   5    0.79    0.50
   0  -5  -5    0.84    0.94
   0  -5   5   -0.32    0.59
   0  -5  -5    0.48    0.46
   0   5   5   -0.23    0.52
   0   5   5    0.19    0.30
   0   5  -5    0.11    0.41
  -1  -5  -5    9.48    1.00
  -1  -5  -5    8.76    1.67
   1   5   5    9.31    1.06
  -1   5  -5    9.85    0.99
  -1   5  -5    8.03    0.89
   1   5   5   10.34    0.79
  -2  -5  -5    3.11    1.27
   2  -5   5    1.58    0.77
   2   5   5    2.06    0.59
  -2   5  -5    2.64    0.57
   3  -5   5   63.48    5.23
  -3  -5  -5   77.05    5.18
   3  -5   5   70.51    5.29
  -3   5  -5   70.52    5.09
   3   5   5   74.20    5.22
  -4  -5  -5    2.90    0.98
   4  -5   5    3.66    0.87
   4   5   5    2.29    0.69
  -4   5  -5    3.22    0.57
   5  -5   5  101.53    7.90
   5  -5   5  106.64    7.84
  -5  -5  -5  106.61    7.75
   5   5   5  111.34    7.74
  -5   5  -5  106.62    7.56
  -6  -5  -5    4.49    1.34
  -6  -5  -5    4.30    1.73
   6  -5   5    5.94    1.34
   6   5   5    4.01    1.14
  -6   5  -5    5.81    0.83
  -7  -5  -5   65.96    5.54
  -7  -5  -5   64.05    5.15
   7   5   5   67.41    5.13
  -7   5  -5   62.56    4.71
  -8  -5  -5    6.21    1.71
   8  -5   5    4.88    3.99
  -8  -5  -5    3.81    2.58
   8   5   5    2.17    1.48
  -8   5  -5    2.40    0.79
  -9  -5  -5   16.31    3.45
   9  -5   5   16.56    3.35
   9   5   5   21.10    2.90
  -9   5  -5   20.02    1.88
  10  -5   5    2.48    2.79
  11  -5   5    7.84    2.52
 -11   5  -5   13.97    1.60
 -12  -6   5   33.01    3.01
 -11  -6   5   68.20    4.75
  11  -6  -5   70.96    6.56
 -11   6   5   48.69    4.49
 -10  -6   5   21.28    2.32
  -9  -6   5   30.12    2.89
   9  -6  -5   24.93    4.07
  -9  -6   5   27.70    2.80
   9   6  -5   20.44    3.06
  -9   6   5   24.09    2.19
  -8  -6   5    8.98    1.34
   8  -6  -5    8.92    2.16
   7  -6  -5   33.29    3.34
  -7  -6   5   35.40    3.03
  -7  -6   5   34.17    2.57
   7   6  -5   31.06    2.92
  -7   6   5   30.86    2.56
  -6  -6   5    5.27    0.77
  -5  -6   5    0.82    0.42
   5  -6  -5    1.14    0.93
  -5  -6   5    0.87    0.95
   5   6  -5    1.37    0.62
   5   6  -5    1.03    0.67
  -5   6   5    1.75    0.56
   4  -6  -5    1.91    0.73
   4  -6  -5    3.00    1.12
  -4  -6   5    3.42    0.52
   4   6  -5    2.93    0.69
   4   6  -5    3.03    0.66
  -4   6   5    2.50    0.56
  -3  -6   5   55.26    4.24
   3  -6  -5   54.54    4.22
  -3   6   5   53.73    4.00
   3   6  -5   58.72    4.13
   3   6  -5   56.04    4.01
  -3   6   5   55.06    4.15
   2  -6  -5   20.02    2.02
   2   6  -5   22.35    1.77
   2   6  -5   19.56    1.65
  -2   6   5   20.80    1.80
  -2   6   5   21.37    1.63
   1  -6  -5  123.28    8.17
  -1  -6   5  107.80    8.34
   1  -6  -5  115.38    8.45
  -1   6   5  115.93    8.31
   1   6  -5  120.07    8.28
   1   6  -5  113.76    8.19
   0  -6  -5   10.55    1.04
   0  -6  -5    9.62    1.67
   0   6   5   10.57    0.92
   0   6  -5    9.83    1.08
   0   6  -5   10.16    1.00
   0   6   5   10.07    1.16
  -1  -6  -5   83.00    5.57
  -1  -6  -5   76.48    5.91
   1  -6   5   69.71    5.69
  -1   6  -5   79.25    5.62
   1   6   5   76.16    5.66
  -1   6  -5   74.92    5.54
   1   6   5   82.77    5.47
  -2  -6  -5    9.47    1.86
  -2  -6  -5    9.36    1.34
   2   6   5   11.79    1.23
  -2   6  -5   10.63    1.05
   3  -6   5   33.40    2.71
  -3  -6  -5   30.29    2.98
   3  -6   5   29.24    2.66
  -3  -6  -5   30.26    2.55
  -3   6  -5   29.59    2.33
   3   6   5   29.86    2.50
   4  -6   5    5.39    1.33
  -4  -6  -5    2.61    1.13
   4  -6   5    3.79    1.20
  -4  -6  -5    2.61    1.46
   4   6   5    3.73    0.96
  -4   6  -5    4.78    0.73
   5  -6   5   13.15    2.11
  -5  -6  -5   10.91    2.04
  -5  -6  -5   11.54    1.82
   5  -6   5   15.44    2.82
   5   6   5   10.81    1.59
  -5   6  -5   10.94    1.22
   6  -6   5    1.53    1.30
  -6  -6  -5    1.33    1.36
   6  -6   5    1.28    1.86
   6   6   5   -0.81    1.37
  -6   6  -5    0.64    0.63
  -7  -6  -5   19.17    3.16
   7  -6   5   16.47    2.54
  -7   6  -5   19.42    1.77
   7   6   5   22.92    2.44
  -8  -6  -5    1.64    2.12
   8  -6   5    5.02    3.23
   8   6   5    1.88    1.65
  -8   6  -5    4.75    0.95
   9  -6   5   22.16    3.98
   9   6   5   26.62    3.24
  -9   6  -5   28.69    2.40
  10  -7  -5   10.84    3.24
  10   7  -5    3.67    2.17
 -10   7   5    7.76    1.26
   9  -7  -5    4.14    2.81
   9   7  -5   -0.50    1.81
  -9   7   5    2.74    1.02
   8  -7  -5   12.58    2.60
  -8   7   5    8.46    1.41
   8   7  -5   12.09    2.22
  -7   7   5   24.83    2.12
   7   7  -5   23.74    2.61
   6  -7  -5   73.91    5.99
  -6  -7   5   80.75    5.85
   6   7  -5   73.57    5.77
  -5   7   5   22.53    1.93
   5   7  -5   22.94    2.14
   5   7  -5   22.79    1.86
   4  -7  -5   56.45    4.79
  -4  -7   5   62.68    4.71
   4  -7  -5   54.44    4.54
   4   7  -5   60.37    4.52
  -4   7   5   65.00    4.39
   3  -7  -5   34.02    2.88
  -3   7   5   31.18    2.77
   3   7  -5   34.34    2.76
   3   7  -5   33.84    2.61
  -3   7   5   38.23    2.62
  -2  -7   5   26.33    2.52
   2  -7  -5   22.77    2.28
   2   7  -5   22.31    1.92
   2   7  -5   22.95    2.03
  -2   7   5   26.44    1.89
  -2   7   5   22.26    2.11
  -1  -7   5    0.95    1.01
   1  -7  -5    0.83    1.01
  -1   7   5    0.89    0.73
   1   7  -5    1.01    0.58
   1   7  -5    1.06    0.63
  -1   7   5    1.45    0.86
   0  -7  -5    0.45    1.11
   0  -7   5    1.48    1.02
   0   7   5    0.00    0.45
   0   7  -5    0.57    0.59
   0   7   5   -0.35    0.69
   0   7  -5    0.90    0.64
  -1  -7  -5    2.09    1.28
   1  -7   5    2.32    1.05
  -1   7  -5    2.63    0.70
   1   7   5    1.61    0.84
  -1   7  -5    2.72    0.74
  -2  -7  -5   21.85    1.99
   2  -7   5   20.94    2.34
   2  -7   5   22.48    2.47
  -2  -7  -5   19.78    2.55
  -2   7  -5   20.56    1.79
   2   7   5   22.98    2.08
   3  -7   5   15.68    2.22
  -3  -7  -5   16.10    1.76
  -3  -7  -5   12.97    2.34
  -3   7  -5   13.19    1.37
   3   7   5   12.48    1.64
  -4  -7  -5   28.57    2.52
   4  -7   5   27.90    2.85
  -4  -7  -5   20.87    3.66
  -4   7  -5   23.62    2.14
  -5  -7  -5   24.04    3.25
  -5  -7  -5   30.79    2.70
  -5   7  -5   22.50    2.05
   5   7   5   22.28    2.53
  -6  -7  -5   74.98    5.33
  -6  -7  -5   56.61    5.51
   6  -7   5   60.55    5.83
   6   7   5   64.24    5.09
  -6   7  -5   60.52    4.67
   7  -7   5   17.77    3.56
  -7  -7  -5   11.63    2.61
   7   7   5   14.31    2.53
  -7   7  -5   16.03    1.68
   8  -7   5   18.53    4.04
  -8  -7  -5   14.04    2.68
   8   7   5   15.44    2.74
  -8   7  -5   17.83    1.79
   8  -8  -5   18.69    3.72
  -8   8   5   13.96    1.75
   8   8  -5   15.69    2.66
   7  -8  -5    2.47    2.02
  -6  -8   5   13.84    2.34
   6  -8  -5   10.97    2.11
  -6   8   5    9.64    1.43
   6   8  -5    8.93    1.63
  -5  -8   5    4.00    1.56
   5  -8  -5    1.33    1.66
   5   8  -5    0.13    1.06
  -5   8   5    0.18    0.88
  -4  -8   5   14.12    2.33
   4  -8  -5   15.68    2.24
   4  -8  -5   18.77    2.24
  -2  -8   5   75.39    5.98
   2  -8  -5   69.62    5.89
   2   8  -5   76.45    5.64
   2   8  -5   80.98    5.80
  -2   8   5   87.01    5.65
  -2   8   5   78.35    5.85
   0  -8   5   48.42    4.12
   0   8   5   46.05    3.77
   0   8  -5   47.41    3.68
   0   8  -5   47.00    3.57
  -1  -8  -5    1.77    1.39
  -1   8  -5    0.40    1.09
   1   8   5   -0.01    1.00
   2  -8   5   53.69    4.34
  -2  -8  -5   50.18    4.44
  -2   8  -5   49.77    3.85
   2   8   5   51.27    4.11
   3  -8   5    3.22    2.43
  -3  -8  -5    0.30    1.56
   3   8   5   -1.34    1.08
  -3   8  -5   -0.05    0.85
  -4  -8  -5   10.29    2.23
   4  -8   5   17.99    2.69
  -4   8  -5   13.82    1.55
   4   8   5   11.96    2.11
   5  -8   5    1.77    2.09
  -5  -8  -5    0.63    1.91
   5  -8   5    3.05    1.80
   5   8   5    0.22    1.38
  -5   8  -5    0.13    0.88
   6  -8   5    6.63    3.19
  -7  -8  -5    3.30    1.94
   7  -8   5    7.88    3.14
   7   8   5    2.20    1.56
   8  -8   5   27.77    4.69
   7   9  -5   14.36    2.55
  -7   9   5   17.29    1.76
   6  -9  -5   50.95    4.51
  -6   9   5   44.55    3.55
   6   9  -5   39.23    3.91
   5   9  -5   14.58    2.33
  -5   9   5   18.94    1.97
   4  -9  -5   39.27    4.03
  -4  -9   5   44.40    3.91
  -4   9   5   40.71    3.19
   4   9  -5   33.10    3.37
  -3   9   5   22.33    2.01
   3   9  -5   18.97    2.27
   2  -9  -5   22.24    2.90
   2   9  -5   17.03    1.72
   2   9  -5   13.72    1.98
  -2   9   5   13.62    2.04
  -2   9   5   18.45    1.58
   1  -9  -5    2.29    1.29
  -1  -9   5    4.37    1.86
  -1   9   5   -0.71    1.13
   1   9  -5    1.39    1.00
   1   9  -5    1.29    0.99
   0  -9  -5    0.89    1.28
   0  -9   5    3.34    1.72
   0   9  -5    0.44    0.95
   0   9   5    1.02    1.16
   0   9  -5   -0.39    0.96
   1  -9   5    5.58    1.97
  -1  -9  -5    2.15    1.44
  -1   9  -5    2.16    1.03
   1   9   5    1.34    1.26
   2  -9   5   16.34    3.19
  -2  -9  -5   15.59    2.68
   2   9   5   12.90    2.16
  -2   9  -5   15.94    1.76
  -3  -9  -5   14.40    2.83
   3  -9   5   18.36    3.26
   3   9   5    8.71    1.79
  -3   9  -5   11.68    1.52
  -4  -9  -5   18.69    2.95
   4  -9   5   17.70    3.64
  -4   9  -5   19.67    1.90
   4   9   5   16.21    2.49
  -5  -9  -5   18.77    2.71
   5  -9   5   20.28    3.70
  -5   9  -5   18.53    1.72
   5   9   5   12.33    2.33
   6  -9   5   45.96    5.15
  -5  10   5    3.46    1.01
  -4  10   5    4.00    1.08
   4  10  -5    2.27    1.45
   3 -10  -5   54.40    4.41
  -3 -10   5   40.45    3.95
   1 -10  -5   46.40    4.15
   1  10  -5   34.59    3.41
  -1  10   5   37.92    3.39
   1  10  -5   43.85    3.24
   0  10  -5   11.50    1.62
  -1  10  -5   24.38    2.34
   1  10   5   28.02    2.54
   2 -10   5   34.02    3.97
   2 -10   5   29.62    3.43
   3 -10   5   16.83    3.24
 -14   0   6   44.05    3.56
  13   0  -6    0.34    2.24
  13   0  -6   -0.92    1.12
 -13   0   6    3.30    1.25
 -12   0   6   79.86    6.72
  12   0  -6  101.23    6.66
  12   0  -6   93.49    7.33
  11   0  -6    0.50    0.90
 -11   0   6    0.25    1.00
  11   0  -6   -0.67    1.65
  10   0  -6   88.45    6.80
 -10   0   6   78.98    6.39
  10   0  -6   97.67    6.36
   9   0  -6    0.46    0.60
  -9   0   6    0.25    0.52
   9   0  -6   -0.60    1.07
   8   0  -6   58.48    4.36
  -8   0   6   49.80    3.92
   7   0  -6   -0.65    1.05
  -7   0   6   -0.30    0.37
   7   0  -6    0.70    0.53
   6   0  -6   10.43    1.57
  -6   0   6    7.46    1.01
   6   0  -6    8.23    0.88
   5   0  -6    0.46    0.85
   5   0  -6   -0.01    0.39
  -5   0   6   -0.27    0.26
  -4   0   6   22.66    1.62
   4   0  -6   20.01    1.96
  -3   0   6    0.15    0.19
   3   0  -6   -0.23    0.60
   3   0  -6   -0.05    0.28
   2   0  -6  334.55   22.97
  -2   0   6  325.15   22.97
   1   0  -6    0.47    0.26
  -1   0   6    0.70    0.56
  -1   0   6    0.36    0.19
   0   0  -6  232.92   16.79
   0   0   6  256.59   16.83
   0   0   6  234.17   16.98
  -1   0  -6    0.46    0.23
   1   0   6    0.05    0.39
  -1   0  -6   -0.04    0.28
  -2   0  -6   97.65    6.58
   2   0   6   91.37    6.63
  -2   0  -6   99.38    6.62
   2   0   6   87.84    6.76
   3   0   6   -0.01    0.58
  -3   0  -6    0.36    0.41
   3   0   6   -0.08    0.41
  -3   0  -6    0.06    0.24
   4   0   6   28.72    2.52
  -4   0  -6   35.20    2.33
   4   0   6   33.65    2.63
   5   0   6   -0.50    0.95
  -5   0  -6   -0.13    0.30
  -5   0  -6    0.85    0.69
   5   0   6    0.46    0.53
   6   0   6    3.45    1.16
  -6   0  -6    3.91    0.99
   6   0   6    2.62    0.70
  -6   0  -6    2.94    0.48
   7   0   6    0.60    1.14
  -7   0  -6   -0.11    0.95
   7   0   6    0.41    0.67
  -7   0  -6    1.10    0.40
   8   0   6   23.88    2.05
  -8   0  -6   20.49    2.35
  -9   0  -6    3.29    1.60
   9   0   6    0.32    0.85
   9   0   6    1.28    1.75
  10   0   6   87.42    7.05
 -10   0  -6   87.11    6.84
  14  -1  -6   29.86    4.15
 -14  -1   6   44.24    3.25
 -14   1   6   41.55    3.37
 -13  -1   6   19.25    2.17
  13  -1  -6   14.13    1.97
  13  -1  -6   14.74    2.73
 -13   1   6   15.61    2.21
  12  -1  -6   17.17    3.20
 -12  -1   6   21.01    2.16
 -12   1   6   21.41    2.19
  12   1  -6   16.79    2.73
 -11  -1   6    0.06    1.15
  11  -1  -6    0.53    2.12
  11   1  -6    2.25    1.04
  11   1  -6   -0.91    1.73
  10  -1  -6   14.98    2.51
 -10  -1   6   11.04    1.38
 -10   1   6    9.35    1.17
  10   1  -6   11.96    1.39
  10   1  -6   14.86    2.15
 -10   1   6   10.32    1.40
  -9  -1   6    3.71    0.73
   9  -1  -6    5.50    1.49
   9   1  -6    4.26    1.47
   9   1  -6    4.96    0.90
  -9   1   6    5.03    0.80
  -9   1   6    4.72    0.69
   8  -1  -6   25.47    2.60
  -8  -1   6   19.02    1.78
   8   1  -6   23.08    2.53
  -8   1   6   21.56    1.74
  -8   1   6   22.42    1.81
   8   1  -6   23.80    1.84
  -7  -1   6   38.03    3.11
   7  -1  -6   45.98    3.62
  -7   1   6   42.13    3.08
  -7   1   6   41.57    3.12
   7   1  -6   43.97    3.15
   7   1  -6   43.24    3.64
   6  -1  -6  114.55    7.74
  -6  -1   6  106.12    7.47
   6   1  -6  100.60    7.75
  -6   1   6  101.42    7.50
  -5  -1   6   37.33    2.84
   5  -1  -6   38.28    3.22
  -5   1   6   40.13    2.85
  -5   1   6   41.06    2.83
   5   1  -6   38.26    2.87
  -4  -1   6  177.39   12.46
   4  -1  -6  196.37   12.57
   4   1  -6  179.16   12.47
   4   1  -6  150.98   12.54
  -4   1   6  184.81   12.47
  -4   1   6  179.73   12.45
   3  -1  -6  111.04    8.54
  -3  -1   6  124.12    8.52
  -3   1   6  120.76    8.52
   3   1  -6  124.52    8.54
   3   1  -6  126.82    8.53
  -2  -1   6   56.98    3.92
   2  -1  -6   53.73    3.80
  -2  -1   6   55.70    3.80
   2  -1  -6   46.53    3.80
  -2   1   6   53.52    3.81
   2   1  -6   55.99    3.82
  -1  -1   6    0.79    0.48
   1  -1  -6    1.10    0.27
   1  -1  -6    0.90    0.18
  -1  -1   6    0.91    0.22
   1   1  -6    0.99    0.29
  -1   1   6    0.86    0.24
  -1   1   6    0.21    0.37
  -1   1   6    0.67    0.23
   0  -1  -6    1.99    0.29
   0  -1  -6    1.90    0.29
   0  -1   6    1.47    0.58
   0  -1   6    1.81    0.33
   0   1  -6    2.10    0.32
   0   1   6    1.52    0.31
   0   1   6    2.30    0.52
  -1  -1  -6   14.13    1.01
  -1  -1  -6   13.64    1.09
   1   1   6   14.59    1.06
   1   1   6   11.69    1.23
  -1   1  -6   14.02    1.04
  -2  -1  -6  136.67    9.25
  -2  -1  -6  136.75    9.19
  -2   1  -6  136.66    9.21
   2   1   6  112.18    9.35
   2   1   6  136.66    9.26
  -3  -1  -6   39.16    2.72
   3  -1   6   35.64    2.90
  -3  -1  -6   36.52    2.61
  -3   1  -6   37.61    2.65
   3   1   6   36.05    2.82
  -4  -1  -6   43.04    3.05
  -4  -1  -6   40.72    2.90
   4  -1   6   39.40    3.16
  -4   1  -6   39.57    2.94
   4   1   6   41.76    3.09
   4   1   6   42.48    3.25
   5  -1   6   47.11    3.79
   5  -1   6   43.77    3.92
  -5  -1  -6   53.25    3.76
   5   1   6   56.09    3.95
  -5   1  -6   50.37    3.60
   5   1   6   51.46    3.80
  -5   1  -6   51.91    3.76
  -6  -1  -6  116.77    8.31
   6  -1   6  109.34    8.29
   6  -1   6  113.82    8.39
  -6   1  -6  117.82    8.15
   6   1   6  123.26    8.34
   6   1   6  112.14    8.36
  -6   1  -6  118.72    8.31
   7  -1   6   25.28    2.25
   7  -1   6   31.60    2.65
  -7  -1  -6   25.33    2.47
  -7   1  -6   25.91    2.45
  -7   1  -6   26.75    2.05
   7   1   6   28.80    2.30
   8  -1   6   41.22    3.48
  -8  -1  -6   41.41    3.71
  -8   1  -6   45.37    3.28
   8   1   6   51.77    3.91
   8   1   6   47.08    3.52
  -8   1  -6   43.63    3.76
  -9  -1  -6   17.31    2.43
   9  -1   6   13.92    2.45
   9   1   6   12.72    1.66
   9   1   6   14.43    2.59
  -9   1  -6   19.20    2.54
 -10  -1  -6    8.44    2.01
 -14   2   6   22.66    2.41
 -13  -2   6   31.77    2.87
  13  -2  -6   29.55    4.10
  13   2  -6   27.94    3.65
 -13   2   6   32.48    2.97
  12  -2  -6   16.99    2.78
 -12  -2   6   12.72    1.85
  12   2  -6   14.44    2.55
 -12   2   6   10.27    1.53
 -12   2   6   14.01    1.98
 -11  -2   6  108.37    7.89
  11  -2  -6  108.15    8.55
  11   2  -6  114.96    7.86
 -11   2   6  110.94    7.91
 -11   2   6  103.49    7.80
 -10  -2   6   11.73    1.44
 -10   2   6    9.26    1.18
  10   2  -6   14.32    2.41
 -10   2   6   13.04    1.48
  -9  -2   6   36.07    2.85
   9  -2  -6   35.24    3.64
   9   2  -6   35.39    3.66
  -9   2   6   38.35    2.84
  -9   2   6   37.49    2.76
   8  -2  -6   10.90    2.05
  -8  -2   6    5.55    0.79
  -8   2   6    6.33    0.89
  -8   2   6    5.55    0.71
   8   2  -6    7.38    1.71
   8   2  -6    7.27    1.17
  -7  -2   6   37.56    2.82
   7  -2  -6   35.30    3.41
  -7   2   6   42.50    2.85
  -7   2   6   37.40    2.78
   7   2  -6   32.68    3.34
   7   2  -6   40.56    3.12
  -6  -2   6    1.02    0.41
   6  -2  -6    1.29    1.19
  -6   2   6    1.23    0.53
   6   2  -6    1.53    0.76
   6   2  -6    2.03    1.06
  -6   2   6    1.41    0.38
   5  -2  -6    0.72    0.73
  -5  -2   6   -0.04    0.31
  -5   2   6    0.21    0.34
  -5   2   6    0.43    0.27
   5   2  -6    0.66    0.71
   5   2  -6    0.20    0.35
   4  -2  -6    2.09    0.60
  -4  -2   6    2.15    0.37
  -4   2   6    2.23    0.38
   4   2  -6    3.62    0.63
  -3  -2   6  135.41    9.27
   3  -2  -6  123.26    9.30
  -3  -2   6  136.09    9.33
   3   2  -6  127.57    9.27
  -3   2   6  139.93    9.27
   3   2  -6  131.60    9.29
  -2  -2   6   37.01    2.68
  -2  -2   6   33.78    2.55
   2   2  -6   37.30    2.59
  -2   2   6   34.58    2.64
   2   2  -6   35.64    2.54
  -1  -2   6  289.61   19.64
  -1  -2   6  281.10   19.53
  -1   2   6  273.67   19.55
   1   2  -6  276.97   19.53
   0  -2  -6   25.14    1.90
   0  -2   6   29.84    1.94
   0  -2  -6   26.11    1.95
   0  -2   6   25.68    2.10
   0   2   6   26.28    2.06
   0   2  -6   26.03    1.93
  -1  -2  -6  169.40   11.78
  -1  -2  -6  170.36   11.83
   1  -2   6  172.72   12.01
  -1   2  -6  165.90   11.81
   1   2   6  167.56   11.94
   2  -2   6   10.66    1.28
   2  -2   6   10.69    1.26
  -2  -2  -6   13.08    1.05
   2   2   6   12.51    1.16
   2   2   6   12.33    1.01
  -2   2  -6   11.75    0.96
   3   2   6   38.45    2.88
  -3   2  -6   38.66    2.80
   3   2   6   39.86    3.00
  -4  -2  -6    4.95    0.87
   4  -2   6    3.69    1.58
  -4   2  -6    4.59    0.58
   4   2   6    5.17    0.86
  -4   2  -6    4.86    0.80
   4   2   6    4.73    0.86
   5  -2   6    7.71    1.24
  -5  -2  -6    8.84    1.19
   5  -2   6    8.45    1.72
  -5   2  -6    8.99    0.84
   5   2   6    9.95    1.13
  -5   2  -6    9.59    1.23
  -6  -2  -6    1.11    0.86
   6  -2   6   -1.26    1.08
   6  -2   6   -0.43    0.67
   6   2   6   -0.20    0.61
  -6   2  -6    0.19    0.85
   6   2   6   -0.29    0.86
  -6   2  -6    0.20    0.38
   7  -2   6   16.58    2.27
  -7  -2  -6   17.86    2.03
   7  -2   6   18.93    1.73
  -7   2  -6   19.08    1.94
   7   2   6   20.22    2.06
   7   2   6   18.80    1.75
  -7   2  -6   18.01    1.47
  -8  -2  -6    3.11    1.27
   8  -2   6    2.98    1.66
   8   2   6    4.75    1.47
  -8   2  -6    5.58    1.26
   8   2   6    2.83    0.92
  -9  -2  -6   42.79    4.13
  -9   2  -6   47.67    3.53
  -9   2  -6   57.69    4.23
   9   2   6   45.30    3.75
  10  -2   6    9.94    2.72
 -10  -2  -6   14.63    2.30
  10   2   6   13.54    2.51
  11  -2   6   44.70    5.00
  11   2   6   40.88    4.40
  12   2   6    8.52    2.60
 -14   3   6   21.07    2.27
  13  -3  -6   30.34    4.26
 -13   3   6   31.69    2.88
 -13   3   6   23.98    2.49
  13   3  -6   31.23    3.88
  12  -3  -6    4.09    2.50
 -12  -3   6    3.73    1.16
  12   3  -6   -1.29    2.23
 -12   3   6    1.50    0.93
 -12   3   6    2.35    1.20
  11  -3  -6    2.08    2.40
 -11  -3   6    4.27    1.06
 -11   3   6    3.01    1.01
 -11   3   6    1.99    0.87
  11   3  -6    1.60    2.06
 -10  -3   6    0.77    0.80
  10  -3  -6   -0.28    2.12
  10   3  -6   -0.32    1.10
 -10   3   6    0.87    0.73
  10   3  -6    0.93    1.85
 -10   3   6    0.73    0.68
   9  -3  -6   11.97    2.26
  -9  -3   6   10.50    1.30
  -9   3   6   10.15    1.24
   9   3  -6    7.72    1.50
   9   3  -6   13.51    2.23
  -9   3   6   10.79    1.07
  -8  -3   6    0.62    0.54
   8  -3  -6    0.83    1.39
  -8   3   6    1.10    0.48
  -8   3   6    1.34    0.56
   8   3  -6    1.28    1.31
   7  -3  -6  113.77    8.31
  -7  -3   6  108.34    8.00
  -7   3   6  107.63    7.98
   7   3  -6  105.05    8.42
   7   3  -6  115.47    8.31
  -7   3   6  127.16    8.04
  -6  -3   6    3.53    0.58
   6  -3  -6    4.11    1.02
  -6   3   6    3.25    0.55
   6   3  -6    6.11    1.16
  -6   3   6    4.21    0.71
   6   3  -6    6.34    1.09
  -5  -3   6  118.53    7.86
  -5  -3   6  107.44    7.77
  -5   3   6  115.72    7.79
   5   3  -6  110.56    7.86
  -5   3   6  106.51    7.76
   5   3  -6  102.89    7.82
  -4  -3   6    9.57    1.14
   4  -3  -6    7.32    1.06
  -4  -3   6    6.16    0.72
   4   3  -6    8.27    0.84
  -4   3   6    8.97    0.72
  -4   3   6    7.31    0.71
  -3  -3   6  314.31   21.09
  -3  -3   6  309.89   21.17
  -3   3   6  314.73   21.09
   3   3  -6  290.26   21.10
  -3   3   6  290.27   21.10
   3   3  -6  296.08   21.11
  -2  -3   6    2.25    0.35
  -2  -3   6    2.02    0.57
  -2   3   6    1.93    0.34
  -2   3   6    2.70    0.50
  -2   3   6    2.08    0.35
   2   3  -6    2.46    0.45
   2   3  -6    2.55    0.42
  -2   3   6    3.49    0.59
  -1  -3   6    4.25    0.47
  -1  -3   6    6.51    0.82
  -1   3   6    5.33    0.70
   1   3  -6    4.68    0.54
  -1   3   6    4.82    0.61
   1   3  -6    4.84    0.56
   0  -3  -6    0.44    0.36
   0  -3   6   -0.51    0.40
   0  -3   6    0.04    0.24
   0   3  -6    0.12    0.29
   0   3   6   -0.01    0.24
   0   3   6    0.06    0.35
   0   3   6    0.58    0.41
   0   3  -6   -0.08    0.31
   1  -3   6   34.10    2.68
  -1  -3  -6   35.62    2.53
   1  -3   6   31.25    2.54
   1   3   6   36.76    2.66
  -1   3  -6   34.04    2.50
   1   3   6   34.45    2.54
  -1   3  -6   34.95    2.47
   2  -3   6    4.19    0.93
   2  -3   6    5.67    0.98
  -2  -3  -6    6.38    0.78
   2   3   6    5.59    0.67
  -2   3  -6    5.86    0.62
   2   3   6    5.85    0.88
  -3  -3  -6  102.57    7.19
   3  -3   6   96.85    7.39
   3   3   6  102.89    7.30
  -3   3  -6   98.63    7.14
  -3   3  -6  106.11    7.14
   4  -3   6    1.76    0.85
  -4  -3  -6    2.34    0.73
   4  -3   6    1.01    1.18
   4   3   6    2.90    0.66
  -4   3  -6    1.91    0.48
  -4   3  -6    2.67    0.66
   4   3   6    1.95    0.61
  -5  -3  -6  144.01   10.11
  -5   3  -6  137.75    9.99
   5   3   6  146.82   10.18
   5   3   6  143.26   10.13
  -5   3  -6  140.08   10.08
  -6  -3  -6    5.66    1.16
   6  -3   6    4.47    1.48
   6  -3   6    4.20    1.04
  -6   3  -6    4.58    0.68
   6   3   6    6.48    0.98
   6   3   6    5.64    1.12
   7  -3   6   71.30    5.77
  -7  -3  -6   74.05    5.84
   7   3   6   82.79    5.78
  -7   3  -6   73.93    5.55
   7   3   6   87.78    5.90
  -8  -3  -6    2.08    1.70
   8  -3   6    1.95    1.87
   8  -3   6    2.22    0.96
   8   3   6    1.60    0.87
  -8   3  -6    4.54    1.14
  -8   3  -6    2.01    0.64
   8   3   6    3.20    1.47
  -9  -3  -6   38.65    3.79
   9   3   6   43.52    3.81
  -9   3  -6   47.87    3.58
   9   3   6   36.32    3.27
  -9   3  -6   36.65    3.06
  10   3   6    2.46    2.20
 -10   3  -6    6.18    1.00
  13  -4  -6   19.72    3.53
 -13   4   6   11.85    1.59
  13   4  -6   10.97    2.60
 -12  -4   6   38.64    2.94
  12  -4  -6   39.28    4.74
 -12   4   6   30.95    2.63
  12   4  -6   23.21    4.19
 -12   4   6   30.00    2.68
 -11  -4   6   52.94    3.69
  11   4  -6   40.18    4.65
 -11   4   6   41.54    3.53
 -11   4   6   46.30    3.48
  10  -4  -6   36.87    4.28
 -10   4   6   27.06    2.38
 -10   4   6   27.16    2.29
   9  -4  -6   22.26    3.52
  -9  -4   6   20.77    1.82
  -9   4   6   19.11    1.72
  -9   4   6   17.14    1.63
   9   4  -6   18.20    2.64
  -8  -4   6   17.16    1.53
   8  -4  -6   18.74    2.69
   8   4  -6   17.36    2.10
  -8   4   6   15.26    1.39
   8   4  -6   13.27    1.73
  -7  -4   6   16.71    1.46
   7  -4  -6   19.67    2.24
   7   4  -6   18.63    1.80
  -7   4   6   16.24    1.40
   7   4  -6   15.82    1.73
  -6  -4   6    4.25    0.87
  -6  -4   6    2.28    0.50
   6  -4  -6    3.89    1.00
   6   4  -6    2.97    1.08
  -6   4   6    2.48    0.51
   6   4  -6    3.09    0.85
  -6   4   6    3.41    0.67
  -5  -4   6    0.64    0.62
  -5  -4   6   -1.26    0.72
   5  -4  -6    0.86    0.73
  -5   4   6    0.44    0.38
  -5   4   6    0.13    0.30
   5   4  -6    0.81    0.53
   5   4  -6    0.35    1.11
  -4  -4   6    4.63    0.59
   4  -4  -6    5.60    1.05
  -4  -4   6    5.49    1.00
  -4   4   6    5.12    0.60
   4   4  -6    6.15    0.75
  -4   4   6    4.73    0.56
   4   4  -6    7.11    1.03
  -3  -4   6   46.26    3.22
   3  -4  -6   45.80    3.45
  -3  -4   6   47.26    3.45
  -3   4   6   43.06    3.28
   3   4  -6   47.31    3.28
  -3   4   6   44.06    3.42
  -3   4   6   42.90    3.23
   3   4  -6   43.25    3.27
   2  -4  -6  108.41    7.45
  -2  -4   6   97.07    7.20
  -2  -4   6  102.58    7.38
  -2   4   6   95.60    7.24
  -2   4   6  103.88    7.32
  -2   4   6  105.02    7.23
   2   4  -6  107.97    7.28
   1  -4  -6  105.23    7.45
  -1  -4   6  107.12    7.59
   1   4  -6  114.60    7.48
   1   4  -6   94.54    7.48
  -1   4   6  107.72    7.52
   0  -4   6   69.67    5.52
   0  -4  -6   76.59    5.38
   0   4  -6   69.22    5.37
   0   4   6   79.25    5.45
   0   4   6   76.52    5.50
   0   4  -6   77.72    5.40
   0   4   6   81.58    5.34
   1  -4   6   65.39    4.94
  -1  -4  -6   69.98    4.79
  -1   4  -6   63.98    4.76
   1   4   6   68.76    4.91
  -2  -4  -6   36.16    2.69
   2  -4   6   34.38    2.82
  -2   4  -6   33.97    2.61
   2   4   6   36.83    2.79
   2   4   6   36.45    2.70
   3  -4   6   17.96    1.79
  -3  -4  -6   19.55    1.61
   3   4   6   17.31    1.56
   3   4   6   17.67    1.64
  -3   4  -6   18.36    1.45
  -4  -4  -6   12.03    1.33
   4  -4   6   11.47    1.86
   4  -4   6   10.00    1.51
   4   4   6   11.58    1.21
   4   4   6   12.15    1.28
  -4   4  -6    9.69    1.16
  -4   4  -6   10.38    1.01
   5  -4   6    2.25    1.01
   5  -4   6    4.88    1.51
  -5  -4  -6    3.70    0.99
  -5   4  -6    3.45    0.77
   5   4   6    3.53    0.80
   5   4   6    4.38    0.90
  -5   4  -6    4.17    0.65
   6  -4   6    0.57    1.63
   6  -4   6   -0.12    0.92
  -6  -4  -6    0.86    1.15
   6   4   6    0.75    0.87
  -6   4  -6    1.53    0.54
   6   4   6    0.46    0.74
   7  -4   6    7.47    1.64
  -7  -4  -6   10.93    1.86
   7  -4   6    8.64    2.16
   7   4   6    8.61    1.67
  -7   4  -6    9.19    1.00
   7   4   6    8.91    1.35
   8  -4   6    8.49    1.55
  -8  -4  -6    9.40    1.79
   8  -4   6    8.78    2.47
  -8   4  -6   10.51    1.15
   8   4   6    8.54    2.03
  -9  -4  -6   29.39    3.30
   9  -4   6   19.69    3.26
  -9   4  -6   22.26    2.09
   9   4   6   27.70    2.97
 -10   4  -6   30.46    2.56
  10   4   6   29.81    3.49
  11  -4   6   20.39    3.64
  11   4   6   16.44    2.66
  12  -5  -6   18.59    3.57
 -12   5   6   12.91    1.58
  12   5  -6   13.04    2.77
  11  -5  -6    5.53    3.17
  11   5  -6    1.43    2.21
 -10  -5   6   14.13    1.67
  10  -5  -6   11.73    3.05
 -10   5   6    8.48    1.33
  10   5  -6   12.06    2.42
  -9  -5   6    3.37    0.91
   9  -5  -6   -0.37    2.13
   8  -5  -6   19.02    3.09
  -8  -5   6   24.27    2.34
  -8  -5   6   22.00    1.89
   8   5  -6   22.63    1.89
   8   5  -6   22.87    2.40
  -8   5   6   19.50    1.79
  -8   5   6   20.24    1.79
   7  -5  -6    5.41    1.43
  -7  -5   6    4.17    0.67
  -7   5   6    2.62    0.65
  -7   5   6    3.28    0.67
   7   5  -6    4.61    1.04
   7   5  -6    4.39    0.91
  -6  -5   6   84.14    6.08
   6  -5  -6   77.55    6.30
  -6  -5   6   81.14    6.26
  -6   5   6   87.93    6.09
  -6   5   6   91.13    6.11
   6   5  -6   90.18    6.25
  -5  -5   6    3.02    0.53
   5  -5  -6    3.58    0.88
  -5   5   6    3.49    0.59
  -5   5   6    2.99    0.54
   5   5  -6    3.68    0.71
   5   5  -6    4.13    0.73
  -4  -5   6  138.89    9.12
   4  -5  -6  136.23    9.28
  -4  -5   6  113.68    9.25
   4  -5  -6  118.47    9.27
  -4   5   6  134.96    9.14
   4   5  -6  138.27    9.22
  -4   5   6  121.20    9.12
   4   5  -6  136.86    9.16
  -3  -5   6    7.98    0.68
   3  -5  -6    7.85    1.27
  -3   5   6    5.91    0.68
  -3   5   6    7.71    0.92
   3   5  -6    7.70    0.77
  -3   5   6    5.77    0.66
   3   5  -6    7.16    0.85
   2  -5  -6   45.60    3.46
   2  -5  -6   43.26    3.11
  -2  -5   6   36.89    3.32
  -2   5   6   44.63    3.24
  -2   5   6   44.34    3.15
   2   5  -6   43.17    3.14
   1  -5  -6   -0.02    0.44
  -1  -5   6   -0.17    0.55
   1  -5  -6    0.93    0.96
  -1   5   6   -0.11    0.31
   1   5  -6    0.09    0.46
  -1   5   6    0.28    0.49
   1   5  -6    0.06    0.43
   0  -5   6    0.09    0.64
   0  -5  -6    1.94    0.52
   0  -5  -6    1.46    1.07
   0   5   6    1.20    0.58
   0   5  -6    0.88    0.49
   0   5   6    1.41    0.38
   0   5  -6    1.15    0.53
   1  -5   6    0.34    0.64
  -1  -5  -6   -0.05    0.63
  -1   5  -6    0.88    0.45
   1   5   6    1.19    0.34
   1   5   6    0.76    0.58
  -2  -5  -6   95.03    6.36
   2  -5   6   89.67    6.53
   2  -5   6   81.57    6.42
   2   5   6   91.11    6.43
  -2   5  -6   87.87    6.32
  -3  -5  -6    2.63    0.80
   3  -5   6    1.90    0.83
   3   5   6    3.44    0.77
  -3   5  -6    3.17    0.57
  -4  -5  -6   38.37    2.96
   4  -5   6   36.60    3.28
   4  -5   6   38.20    3.20
  -4   5  -6   36.34    2.75
   4   5   6   35.34    2.90
  -5  -5  -6    3.54    1.21
   5  -5   6    5.25    1.28
   5   5   6    4.69    1.00
  -5   5  -6    4.47    0.75
   6  -5   6   91.30    7.94
  -6  -5  -6  105.27    7.61
   6   5   6  109.80    7.60
  -6   5  -6  104.90    7.34
   7  -5   6    1.13    1.28
   7   5   6    3.12    2.38
  -7   5  -6    2.81    1.22
  -8  -5  -6   45.04    4.08
  -8  -5  -6   37.62    4.41
  -8   5  -6   39.92    3.12
   8   5   6   40.56    3.77
  -9  -5  -6    2.75    2.25
   9  -5   6   -0.02    3.05
  -9   5  -6    1.77    0.92
   9   5   6    0.80    1.72
 -10  -5  -6    5.37    2.16
  10  -5   6    6.88    2.69
 -10   5  -6    6.17    1.18
  10   5   6    1.71    1.85
 -12  -6   6   60.05    4.66
 -11  -6   6   32.35    2.91
 -10  -6   6   48.94    3.47
  10  -6  -6   47.75    5.38
 -10   6   6   35.80    3.28
  10   6  -6   38.79    4.25
  -9  -6   6   14.20    2.20
  -8  -6   6   24.85    2.09
  -8  -6   6   27.70    2.68
   8  -6  -6   23.56    3.37
   8   6  -6   22.56    2.78
  -8   6   6   22.01    2.04
  -7  -6   6    4.38    0.73
   7  -6  -6    5.10    1.52
   7   6  -6    4.06    0.79
   7   6  -6    4.69    1.19
  -7   6   6    4.30    0.80
   6  -6  -6    6.06    1.34
  -6  -6   6    7.39    1.28
   6   6  -6    5.15    1.04
   6   6  -6    4.42    0.90
  -6   6   6    5.17    0.85
  -5  -6   6    0.39    0.42
  -5  -6   6   -0.01    0.97
   5  -6  -6    0.38    1.08
   5   6  -6    0.41    0.63
   5   6  -6   -0.13    0.82
  -5   6   6    0.37    0.52
   4  -6  -6    8.65    1.33
   4  -6  -6    5.74    1.12
  -4  -6   6    7.87    1.50
  -4  -6   6    7.47    0.69
   4   6  -6    6.27    0.91
  -4   6   6    6.15    0.80
   4   6  -6    6.99    0.93
   3  -6  -6    8.98    1.39
   3  -6  -6    7.99    0.88
  -3   6   6    7.96    1.08
   3   6  -6    9.57    1.01
  -3   6   6    9.86    0.94
   3   6  -6   10.58    1.04
   2  -6  -6  103.53    7.57
   2  -6  -6  106.64    7.30
  -2  -6   6  100.58    7.51
   2   6  -6   99.02    7.33
  -2   6   6   99.74    7.44
   2   6  -6  106.54    7.41
  -2   6   6  108.60    7.32
   1  -6  -6   14.50    1.96
   1  -6  -6   16.76    1.45
  -1   6   6   19.20    1.42
  -1   6   6   17.28    1.57
   1   6  -6   17.81    1.45
   1   6  -6   17.99    1.53
   0  -6   6   74.55    6.11
   0  -6  -6   84.11    6.34
   0  -6  -6   87.22    5.96
   0   6   6   82.12    6.06
   0   6   6   91.53    5.91
   0   6  -6   85.54    6.03
   0   6  -6   79.76    5.95
  -1  -6  -6   16.38    1.48
  -1  -6  -6   14.56    2.06
  -1   6  -6   14.58    1.33
   1   6   6   14.55    1.50
   1   6   6   17.20    1.21
  -2  -6  -6   44.28    3.86
  -2  -6  -6   46.16    3.39
   2  -6   6   42.26    3.58
   2  -6   6   46.81    3.56
   2   6   6   44.71    3.44
  -2   6  -6   43.20    3.29
  -3  -6  -6    1.80    1.38
  -3  -6  -6    2.25    0.98
   3  -6   6    4.95    1.19
   3   6   6    3.28    0.92
  -3   6  -6    3.70    0.70
   4  -6   6   12.71    2.14
   4  -6   6   10.52    2.02
  -4  -6  -6   13.38    1.79
  -4  -6  -6   11.33    2.42
  -4   6  -6   12.77    1.25
   4   6   6   13.92    1.53
  -5  -6  -6   -0.28    1.63
   5  -6   6    2.95    1.35
   5  -6   6    2.69    1.85
  -5  -6  -6    1.46    1.28
  -5   6  -6    1.39    0.70
   5   6   6    0.70    1.00
   6  -6   6    0.62    1.44
  -6  -6  -6   -1.77    1.80
  -6  -6  -6    1.54    1.52
   6  -6   6    2.81    2.44
   6   6   6    0.87    1.19
  -6   6  -6    2.09    0.70
   7  -6   6   -0.17    1.44
   7  -6   6    0.43    3.02
  -7  -6  -6    2.23    2.01
  -7  -6  -6    5.21    1.78
  -7   6  -6    3.09    0.81
   7   6   6    0.46    1.37
   8  -6   6   14.37    3.50
  -8  -6  -6   12.39    2.76
  -8   6  -6   17.97    1.65
   8   6   6   13.63    2.51
   9  -6   6   10.80    3.06
  -9   6  -6   12.86    1.62
 -10  -6  -6   28.57    3.44
  10  -6   6   27.08    4.00
  10  -7  -6    3.77    3.21
 -10   7   6    3.81    0.97
  10   7  -6   -0.33    2.02
   9  -7  -6    9.75    2.84
  -9   7   6    5.78    1.18
   9   7  -6    5.63    2.02
   8  -7  -6   17.54    3.37
  -8   7   6    9.22    1.50
   7  -7  -6   45.76    4.12
  -7  -7   6   36.95    4.19
  -7   7   6   44.12    3.33
   7   7  -6   44.54    3.68
  -6   7   6   19.46    2.25
   6   7  -6   18.95    2.05
   6   7  -6   19.96    1.64
   5  -7  -6   36.45    3.65
   5  -7  -6   35.13    3.11
  -5  -7   6   43.96    3.50
   5   7  -6   38.15    3.17
  -5   7   6   43.50    3.03
   4  -7  -6   23.66    2.27
   4   7  -6   25.50    2.07
   4   7  -6   26.80    2.21
  -3  -7   6   83.01    5.90
   3  -7  -6   70.04    5.77
  -3   7   6   75.93    5.74
  -3   7   6   81.70    5.58
   3   7  -6   80.63    5.70
   3   7  -6   74.54    5.58
   2  -7  -6    9.97    1.63
  -2   7   6   10.60    1.32
   2   7  -6    8.73    1.02
  -2   7   6    9.85    1.04
   2   7  -6   10.18    1.19
  -1  -7   6    4.09    1.28
   1  -7  -6    3.96    1.26
   1   7  -6    4.64    0.82
   1   7  -6    3.73    0.83
  -1   7   6    4.58    0.68
  -1   7   6    3.64    0.91
   0  -7   6    0.81    1.01
   0  -7  -6    0.64    1.16
   0   7  -6    0.10    0.62
   0   7   6    0.63    0.41
   0   7  -6    0.04    0.65
   0   7   6   -0.38    0.71
  -1  -7  -6    8.31    1.71
  -1  -7  -6    7.74    1.19
   1   7   6    8.17    1.28
  -1   7  -6    9.10    1.06
  -2  -7  -6   16.11    1.76
  -2  -7  -6   15.62    2.46
  -2   7  -6   16.65    1.51
   2   7   6   15.01    1.75
  -3  -7  -6   27.80    2.66
   3  -7   6   30.79    3.08
   3  -7   6   32.48    2.94
   3   7   6   30.10    2.63
  -3   7  -6   24.55    2.75
   4  -7   6   11.43    2.31
  -4  -7  -6   12.73    1.88
  -4  -7  -6    5.52    1.96
  -4   7  -6    7.83    1.19
   4   7   6    9.70    1.61
   5  -7   6   47.55    5.32
  -5  -7  -6   47.55    4.72
  -5  -7  -6   55.21    4.26
   5   7   6   50.86    4.12
  -5   7  -6   49.11    3.78
  -6  -7  -6   19.73    3.45
   6  -7   6   24.38    3.34
   6   7   6   25.82    2.74
  -6   7  -6   24.65    2.12
   7  -7   6   29.18    4.97
  -7  -7  -6   23.95    3.86
  -7   7  -6   31.54    2.53
   7   7   6   30.47    3.20
   8  -7   6   17.60    3.86
  -8   7  -6   17.28    1.80
  -9   8   6   21.01    1.83
   9   8  -6   15.86    3.05
   7  -8  -6   19.19    3.26
  -7  -8   6   21.60    2.76
  -7   8   6   20.06    1.96
   7   8  -6   15.96    2.42
   6  -8  -6   -0.06    1.64
  -6   8   6    1.08    0.98
  -5  -8   6    4.29    1.73
   5  -8  -6    2.76    1.87
  -5   8   6    1.62    0.92
   4  -8  -6    3.93    1.64
   4  -8  -6    1.53    1.09
   3  -8  -6   33.68    3.21
  -3  -8   6   36.45    3.44
  -3   8   6   43.31    2.95
  -3   8   6   37.15    3.16
   3   8  -6   36.74    2.96
   3   8  -6   37.53    3.10
   2  -8  -6    0.53    1.06
  -2   8   6    1.17    1.00
   2   8  -6   -0.08    0.82
  -2   8   6    1.13    0.76
   2   8  -6    0.89    0.84
  -1  -8   6   71.37    6.00
   1   8  -6   76.78    5.69
  -1   8   6   78.45    5.87
   1   8  -6   76.97    5.79
  -1   8   6   87.56    5.61
   0  -8  -6    0.91    1.37
   0   8  -6    0.38    0.82
   0   8  -6    1.31    1.28
   0   8   6    0.35    0.98
   1  -8   6   59.22    4.84
  -1  -8  -6   54.73    4.92
  -1   8  -6   60.37    4.40
   1   8   6   62.02    4.62
  -2  -8  -6    0.86    1.56
  -2   8  -6    0.17    0.74
   2   8   6   -0.92    1.05
   3  -8   6   24.11    2.76
  -3  -8  -6   16.98    2.85
   3  -8   6   18.81    3.46
  -3   8  -6   18.39    1.88
   3   8   6   15.62    2.24
   4  -8   6    3.03    1.83
  -4  -8  -6   -2.03    1.78
   4  -8   6    2.00    2.09
   4   8   6    0.73    1.34
  -4   8  -6    1.85    0.93
   5  -8   6    7.98    2.60
   5  -8   6    7.96    2.39
  -5  -8  -6    3.82    2.18
  -5   8  -6    3.42    1.03
   5   8   6    5.58    1.68
  -6  -8  -6   -1.01    1.95
   6  -8   6    1.84    3.07
   6  -8   6    4.95    2.27
  -6   8  -6    3.52    0.93
   6   8   6   -0.08    1.54
  -7  -8  -6    9.52    2.06
   7  -8   6   16.84    3.73
   7   8   6    8.03    1.99
   7  -9  -6   34.80    4.12
   7   9  -6   25.80    3.13
  -7   9   6   30.07    2.56
   6  -9  -6   20.08    3.12
   6   9  -6   13.21    2.30
  -6   9   6   16.21    1.90
   5  -9  -6   27.12    3.35
   5   9  -6   23.93    2.62
   4  -9  -6   22.22    3.13
  -4   9   6   20.87    2.06
   4   9  -6   17.03    2.28
   3  -9  -6   57.27    4.57
  -3  -9   6   51.33    4.36
   3   9  -6   44.54    3.98
   3   9  -6   47.06    3.76
  -3   9   6   49.11    3.77
   2  -9  -6    5.89    1.46
   2   9  -6    5.08    1.25
  -2   9   6    5.67    1.37
   2   9  -6    6.21    1.31
   1  -9  -6    3.46    1.40
  -1  -9   6    6.51    1.76
  -1   9   6    2.59    1.27
   1   9  -6    1.90    1.07
   1   9  -6    3.87    0.99
   0  -9  -6    3.19    1.48
   0   9   6   -0.73    1.22
   0   9  -6    1.05    0.98
   0   9  -6    0.06    1.03
   1  -9   6    9.50    1.99
  -1  -9  -6    7.45    1.94
  -1   9  -6    8.13    1.30
   2  -9   6   17.83    3.32
   2  -9   6   15.99    2.77
  -2  -9  -6    9.23    2.17
   2   9   6    9.14    1.92
  -2   9  -6   10.51    1.57
  -3  -9  -6   14.56    2.98
   3  -9   6   24.98    3.53
   3   9   6   15.66    2.29
  -3   9  -6   19.22    1.88
   4  -9   6   11.72    2.68
   4   9   6   10.24    1.94
  -4   9  -6   13.91    1.54
   5  -9   6   40.06    4.55
   5   9   6   32.37    3.58
   6  -9   6   42.43    4.78
  -5  10   6    3.56    1.10
   4  10  -6    3.30    1.46
  -3 -10   6   30.92    3.58
   3 -10  -6   41.12    3.98
  -2  10   6   35.04    3.07
   2  10  -6   30.11    3.16
   2  10  -6   41.85    3.09
   1  10  -6   13.18    1.82
   0 -10  -6   34.88    3.30
   0  10  -6   29.23    2.65
   0  10   6   28.50    2.75
  -1 -10  -6   12.12    2.32
  -1  10  -6    9.33    1.48
   2 -10   6   22.16    3.32
  -2  10  -6   20.22    1.96
   3 -10   6   20.01    3.28
  14   0  -7   -0.83    1.92
  13   0  -7   37.20    4.14
 -13   0   7   35.96    3.29
  13   0  -7   37.93    3.06
  12   0  -7    1.54    1.79
  12   0  -7   -0.27    1.09
 -12   0   7    1.67    1.09
  11   0  -7  166.63   12.61
  11   0  -7  179.17   12.24
 -10   0   7    0.93    0.72
  10   0  -7   -0.20    0.72
  10   0  -7    0.41    1.42
   9   0  -7   97.13    6.93
  -9   0   7   89.21    6.95
   9   0  -7  105.76    7.28
   8   0  -7    0.04    0.57
   8   0  -7   -0.69    1.10
  -8   0   7    0.11    0.45
   7   0  -7   28.41    2.30
   7   0  -7   34.72    2.92
  -7   0   7   29.41    2.31
  -6   0   7   -0.19    0.34
   6   0  -7   -0.42    0.53
   6   0  -7    0.69    0.90
  -5   0   7    8.59    0.78
   5   0  -7    8.12    1.45
   5   0  -7    7.33    0.81
  -4   0   7   -0.17    0.22
   4   0  -7   -0.01    0.32
   4   0  -7   -0.59    0.69
  -3   0   7  123.36    8.79
   3   0  -7  127.37    8.80
   2   0  -7    0.38    0.30
  -2   0   7    0.04    0.21
  -2   0   7    0.54    0.63
  -1   0   7  255.23   17.90
  -1   0   7  264.04   18.09
   1   0  -7  250.41   17.87
   0   0  -7    0.39    0.26
   0   0   7    0.07    0.22
   0   0   7    0.30    0.54
  -1   0  -7  218.94   15.08
  -1   0  -7  212.05   15.10
   1   0   7  218.30   15.30
  -2   0  -7    0.15    0.38
  -2   0  -7   -0.36    0.25
   2   0   7    0.13    0.36
   2   0   7    0.23    0.48
  -3   0  -7   53.60    3.66
   3   0   7   47.73    3.79
  -3   0  -7   52.24    3.57
   3   0   7   48.35    3.66
  -4   0  -7   -0.23    0.30
   4   0   7    0.14    0.56
  -4   0  -7    0.50    0.53
  -5   0  -7    1.16    0.66
  -5   0  -7    1.50    0.36
   5   0   7    0.79    0.61
  -6   0  -7    0.49    0.35
  -6   0  -7    0.06    0.80
   6   0   7    0.91    1.00
   6   0   7   -0.22    0.65
  -7   0  -7   10.12    0.85
   7   0   7    7.33    1.24
  -7   0  -7    8.91    1.58
   7   0   7    9.85    1.70
   8   0   7    0.90    1.53
  -8   0  -7    0.98    1.29
   8   0   7   -0.51    0.84
   9   0   7   68.97    4.99
   9   0   7   61.89    5.45
  -9   0  -7   65.07    5.27
 -10   0  -7    3.35    1.90
  10   0   7    0.25    2.07
  11   0   7   44.59    4.63
  12   0   7   -2.45    1.95
  14  -1  -7   10.90    2.26
  14  -1  -7   10.95    1.73
  14   1  -7   10.02    2.37
 -13  -1   7   38.98    3.34
  13  -1  -7   43.50    3.23
  13  -1  -7   38.30    4.18
  13   1  -7   31.84    4.23
 -13   1   7   36.71    3.40
  12  -1  -7   11.88    2.26
  12  -1  -7   11.51    1.63
 -12  -1   7   13.61    1.76
 -12   1   7   12.10    1.87
  12   1  -7   11.77    2.28
  12   1  -7   10.38    1.58
 -11  -1   7    1.51    0.81
  11  -1  -7    2.65    1.90
 -11   1   7    2.54    1.03
  11   1  -7    0.06    1.65
  11   1  -7    0.49    1.05
  10  -1  -7    8.28    1.79
 -10  -1   7    4.10    0.85
 -10   1   7    5.26    0.99
  10   1  -7    6.01    1.70
  10   1  -7    4.56    1.06
   9  -1  -7   14.40    2.26
  -9  -1   7   11.77    1.25
  -9   1   7   12.88    1.29
   9   1  -7   14.65    2.08
   9   1  -7   13.10    1.37
   8  -1  -7   22.21    2.45
  -8  -1   7   17.74    1.61
   8   1  -7   19.93    1.65
   8   1  -7   18.50    2.28
  -8   1   7   19.73    1.59
  -8   1   7   19.83    1.63
   7  -1  -7   99.40    6.65
  -7  -1   7   82.22    6.32
   7   1  -7   89.51    6.66
   7   1  -7   87.61    6.34
  -7   1   7   84.87    6.30
  -7   1   7   90.07    6.34
   6  -1  -7   32.19    2.78
  -6  -1   7   29.10    2.29
   6   1  -7   30.19    2.77
  -6   1   7   31.21    2.32
  -6   1   7   30.68    2.28
  -5  -1   7   82.08    5.63
   5  -1  -7   80.85    5.86
   5   1  -7   79.73    5.64
   5   1  -7   68.29    5.79
  -5   1   7   84.35    5.64
  -4  -1   7   63.43    4.38
   4  -1  -7   53.99    4.51
   4  -1  -7   60.59    4.37
  -4   1   7   64.26    4.38
   4   1  -7   60.41    4.48
   4   1  -7   65.41    4.40
  -3  -1   7  185.08   13.04
   3  -1  -7  197.57   13.07
   3  -1  -7  177.63   13.03
   3   1  -7  188.37   13.05
  -3   1   7  184.26   13.05
  -2  -1   7   23.29    1.74
   2  -1  -7   23.02    1.74
  -2   1   7   23.57    1.76
   2   1  -7   25.16    1.78
   1  -1  -7   41.41    2.95
  -1  -1   7   34.60    3.16
  -1  -1   7   44.61    2.97
  -1   1   7   43.53    2.98
   1   1  -7   41.97    2.96
   0  -1   7    3.26    0.84
   0  -1  -7    4.55    0.45
   0  -1   7    5.35    0.51
   0   1  -7    4.49    0.48
   0   1   7    3.20    0.71
  -1  -1  -7   38.93    2.93
  -1  -1  -7   41.96    2.88
   1   1   7   41.31    2.91
  -1   1  -7   40.43    2.90
   2  -1   7   50.24    4.23
  -2  -1  -7   58.53    3.95
  -2  -1  -7   60.38    4.03
   2   1   7   60.61    4.02
  -2   1  -7   59.87    3.98
   2   1   7   46.70    4.14
  -3  -1  -7   62.29    4.37
   3  -1   7   63.44    4.69
  -3  -1  -7   60.78    4.48
  -3   1  -7   63.10    4.41
  -4  -1  -7   14.14    1.11
   4  -1   7   15.82    1.49
  -4  -1  -7   15.68    1.36
  -4   1  -7   14.55    1.16
  -4   1  -7   15.58    1.33
   4   1   7   15.03    1.40
   4   1   7   13.95    1.44
  -5  -1  -7   98.99    7.12
   5  -1   7   96.40    7.20
   5   1   7  105.88    7.19
  -5   1  -7   98.35    7.00
   5   1   7   98.66    7.22
  -5   1  -7   99.79    7.11
  -6  -1  -7   35.52    2.88
   6  -1   7   35.52    3.05
   6  -1   7   34.55    2.84
  -6   1  -7   35.75    2.62
   6   1   7   36.05    2.87
   6   1   7   39.26    2.98
  -6   1  -7   34.10    2.87
  -7  -1  -7   42.84    3.84
   7  -1   7   46.81    3.74
   7  -1   7   52.34    4.06
   7   1   7   53.42    3.93
  -7   1  -7   46.49    3.84
  -7   1  -7   48.77    3.51
   7   1   7   50.67    3.78
  -8  -1  -7   16.08    2.15
   8  -1   7   14.38    1.74
   8  -1   7   22.37    2.67
  -8   1  -7   18.76    1.36
   8   1   7   11.62    2.32
  -8   1  -7   15.01    2.11
   8   1   7   16.02    1.75
  -9  -1  -7   26.24    3.12
   9  -1   7   35.46    3.59
   9   1   7   29.24    2.66
  -9   1  -7   31.89    4.79
 -10  -1  -7    4.98    2.02
  10   1   7    0.97    2.10
  12  -1   7    5.81    2.24
  12   1   7    2.96    2.99
  14  -2  -7   20.05    2.12
  14   2  -7   18.00    3.28
 -13  -2   7   10.36    1.75
  13  -2  -7   11.69    2.54
  13   2  -7    6.00    2.30
 -13   2   7    6.03    1.52
  12  -2  -7   84.56    6.94
 -12  -2   7   79.95    6.13
  12   2  -7   84.32    6.71
 -12   2   7   82.60    6.21
 -11  -2   7   21.68    2.00
 -11   2   7   22.40    2.16
 -11   2   7   16.37    1.88
  10  -2  -7   76.44    6.09
 -10  -2   7   72.47    5.47
  10   2  -7   79.56    5.52
 -10   2   7   69.78    5.39
 -10   2   7   76.53    5.50
  10   2  -7   73.65    6.06
  -9  -2   7   10.98    1.25
   9   2  -7   13.40    1.44
  -9   2   7   11.15    1.27
  -9   2   7   11.84    1.15
   9   2  -7   12.10    2.34
   8  -2  -7   55.60    4.96
  -8  -2   7   58.92    4.52
   8   2  -7   63.24    5.05
   8   2  -7   63.26    4.62
  -8   2   7   71.34    4.58
  -8   2   7   62.04    4.50
  -7  -2   7    3.17    0.59
   7  -2  -7    3.69    1.31
  -7   2   7    3.32    0.61
  -7   2   7    3.51    0.59
   7   2  -7    4.91    0.92
   7   2  -7    4.67    1.29
  -6  -2   7    0.20    0.33
   6  -2  -7   -0.07    1.56
  -6   2   7    0.28    0.37
   6   2  -7    0.88    0.88
  -6   2   7    0.34    0.41
   6   2  -7   -0.33    0.60
  -5  -2   7    0.93    0.34
   5  -2  -7    0.59    0.79
  -5   2   7    0.62    0.36
   5   2  -7    1.00    0.70
   5   2  -7    1.63    0.66
  -5   2   7    0.72    0.38
   4  -2  -7    3.48    0.67
  -4  -2   7    2.62    0.46
  -4   2   7    3.01    0.45
   4   2  -7    3.69    0.62
  -4   2   7    2.83    0.44
   4   2  -7    5.10    0.69
  -3  -2   7   13.82    1.29
   3  -2  -7   13.89    1.23
  -3  -2   7   13.63    1.09
   3   2  -7   14.33    1.16
  -3   2   7   14.18    1.10
   3   2  -7   14.06    1.09
  -3   2   7   13.36    1.10
  -2  -2   7  176.14   12.36
  -2  -2   7  167.05   12.24
  -2   2   7  172.46   12.32
   2   2  -7  175.17   12.27
  -2   2   7  186.61   12.28
  -2   2   7  174.29   12.27
  -1  -2   7   32.77    2.28
   1  -2  -7   28.45    2.26
  -1  -2   7   31.92    2.47
  -1   2   7   32.04    2.30
  -1   2   7   30.64    2.43
   1   2  -7   32.57    2.30
  -1   2   7   32.08    2.30
   0  -2   7  220.02   13.85
   0  -2  -7  193.76   13.85
   0  -2   7  194.77   14.02
   0  -2  -7  204.91   13.81
   0   2  -7  188.32   13.83
   0   2   7  201.80   13.84
   0   2   7  183.52   13.97
   1  -2   7   21.61    2.12
  -1  -2  -7   26.51    1.89
  -1  -2  -7   24.48    1.80
  -1   2  -7   25.54    1.85
   1   2   7   24.61    2.05
   1   2   7   27.11    1.91
   2  -2   7   46.70    4.24
  -2  -2  -7   59.71    4.03
  -2   2  -7   61.57    4.02
   2   2   7   54.63    4.22
  -2   2  -7   56.00    3.97
  -3  -2  -7    8.54    0.89
   3  -2   7    4.58    1.10
   3   2   7    7.23    1.01
   3   2   7    6.99    0.82
  -3   2  -7    7.96    0.81
  -3   2  -7    6.31    0.70
   4  -2   7   11.34    1.56
  -4  -2  -7   14.68    1.37
   4   2   7   14.43    1.43
  -4   2  -7   13.45    1.15
  -4   2  -7   16.24    1.31
   5  -2   7    0.03    0.73
  -5  -2  -7    0.47    0.72
   5   2   7    0.86    0.72
  -5   2  -7    0.05    0.36
   5   2   7    0.09    0.65
  -5   2  -7    0.09    0.70
   6  -2   7   10.68    1.31
   6  -2   7   10.00    1.60
  -6  -2  -7    8.91    1.41
   6   2   7   11.40    1.46
   6   2   7    9.78    1.25
  -6   2  -7    9.27    0.92
  -6   2  -7    9.44    1.41
   7  -2   7    0.90    0.81
   7  -2   7    1.75    1.36
  -7  -2  -7    1.32    1.11
  -7   2  -7    1.50    1.10
   7   2   7    0.95    0.79
   7   2   7    0.57    1.01
  -7   2  -7    2.04    0.50
   8  -2   7   11.14    1.59
  -8  -2  -7   13.78    2.53
   8  -2   7   13.00    2.47
  -8   2  -7   17.57    2.16
  -8   2  -7   13.48    1.25
   8   2   7   15.17    1.68
   8   2   7   13.98    2.05
   9  -2   7   10.67    2.49
  -9  -2  -7   13.06    2.25
   9   2   7    7.34    1.56
   9   2   7    9.15    2.14
  -9   2  -7   12.86    1.28
  10  -2   7   67.30    6.31
 -10  -2  -7   62.66    5.76
 -10   2  -7   77.37    5.74
  10   2   7   66.33    5.85
 -14   3   7   28.70    2.53
  13  -3  -7    6.28    2.53
 -13   3   7    3.10    1.20
 -13   3   7    5.58    1.41
  13   3  -7    2.63    2.25
 -12  -3   7   30.67    2.56
  12  -3  -7   28.71    4.02
  12   3  -7   27.84    3.72
 -12   3   7   22.83    2.32
 -12   3   7   25.36    2.64
 -11  -3   7    1.89    0.96
  11  -3  -7   -0.53    2.26
 -11   3   7    1.04    0.84
 -11   3   7   -0.05    0.93
  11   3  -7   -0.51    1.93
 -10  -3   7   11.23    1.48
  10  -3  -7   12.64    2.55
 -10   3   7   10.34    1.48
 -10   3   7   11.30    1.24
  10   3  -7   16.11    2.42
  10   3  -7   10.33    1.71
  -9  -3   7    0.72    0.63
   9  -3  -7    1.58    1.82
  -9   3   7    0.97    0.58
  -9   3   7    0.55    0.61
   9   3  -7    1.76    1.50
  -8  -3   7   44.71    3.36
   8  -3  -7   40.50    4.05
   8   3  -7   47.38    3.82
  -8   3   7   51.24    3.41
  -8   3   7   45.46    3.32
   8   3  -7   40.73    3.56
   7  -3  -7    3.66    1.24
  -7  -3   7    3.80    0.62
   7   3  -7    4.88    1.19
   7   3  -7    4.44    1.04
  -7   3   7    4.65    0.66
  -7   3   7    4.41    0.74
  -6  -3   7   83.32    6.30
   6  -3  -7   85.25    6.53
  -6   3   7   81.45    6.28
   6   3  -7   99.41    6.53
   6   3  -7   84.91    6.41
  -6   3   7   98.72    6.34
  -5  -3   7    3.38    0.75
   5  -3  -7    2.61    0.80
   5   3  -7    0.50    0.94
  -5   3   7    2.46    0.43
  -5   3   7    2.34    0.48
   5   3  -7    3.28    0.67
   4  -3  -7  186.04   12.25
  -4  -3   7  173.92   12.25
  -4  -3   7  179.04   12.17
   4   3  -7  175.81   12.21
  -4   3   7  170.07   12.18
  -4   3   7  161.49   12.19
   4   3  -7  169.83   12.18
  -3  -3   7    6.39    0.60
  -3  -3   7    5.47    0.95
  -3   3   7    5.70    0.59
  -3   3   7    5.61    0.58
   3   3  -7    6.00    0.62
   3   3  -7    6.01    0.77
  -2  -3   7   66.16    4.88
  -2  -3   7   64.24    4.73
  -2   3   7   72.80    4.75
  -2   3   7   67.24    4.83
  -2   3   7   64.40    4.76
   2   3  -7   65.91    4.77
  -2   3   7   65.99    4.79
   2   3  -7   69.04    4.74
  -1  -3   7    1.03    0.58
  -1  -3   7    1.63    0.29
   1   3  -7    1.41    0.32
  -1   3   7    1.60    0.44
   1   3  -7    1.93    0.44
   0  -3  -7   10.21    0.99
   0  -3  -7   10.50    0.87
   0  -3   7   11.90    0.89
   0  -3   7    9.98    1.16
   0   3   7   10.81    0.97
   0   3   7   11.19    1.16
   0   3  -7   11.24    0.95
  -1  -3  -7    2.22    0.34
   1  -3   7    1.12    0.52
  -1  -3  -7    1.94    0.52
   1  -3   7    1.43    0.73
  -1   3  -7    1.13    0.49
  -1   3  -7    1.72    0.40
   1   3   7    2.50    0.71
   1   3   7    2.44    0.48
   2  -3   7  152.68   10.80
  -2  -3  -7  152.22   10.58
   2  -3   7  146.99   10.64
   2   3   7  149.51   10.59
  -2   3  -7  152.95   10.53
  -2   3  -7  147.22   10.54
   2   3   7  151.88   10.71
   3  -3   7    1.90    0.94
  -3  -3  -7    4.06    0.72
   3  -3   7    2.27    0.83
   3   3   7    4.12    0.82
  -3   3  -7    3.60    0.57
  -3   3  -7    3.09    0.53
  -4  -3  -7   45.25    3.30
  -4   3  -7   44.63    3.24
  -4   3  -7   43.36    3.17
   4   3   7   43.50    3.40
   4   3   7   41.98    3.27
  -5  -3  -7    4.24    0.88
   5  -3   7    2.04    1.04
   5  -3   7    3.73    1.26
   5   3   7    5.09    0.90
   5   3   7    2.69    0.75
  -5   3  -7    4.67    0.94
  -5   3  -7    4.00    0.60
   6  -3   7   91.66    7.36
  -6  -3  -7  101.70    7.31
  -6   3  -7   99.87    7.10
   6   3   7  108.29    7.34
  -7  -3  -7    1.60    1.25
   7  -3   7    2.59    0.97
   7  -3   7    1.39    1.53
  -7   3  -7    2.83    1.83
   7   3   7    1.75    0.88
  -7   3  -7    3.12    0.62
   7   3   7    2.95    1.19
   8  -3   7   44.30    3.77
  -8  -3  -7   43.23    3.99
   8  -3   7   49.45    4.50
  -8   3  -7   51.04    3.90
   8   3   7   47.32    3.81
  -8   3  -7   46.17    3.52
   8   3   7   53.73    4.07
  -9  -3  -7    3.45    1.54
   9  -3   7    3.15    2.33
   9   3   7    0.94    1.68
  -9   3  -7    3.12    0.77
   9   3   7   -1.39    1.64
  10  -3   7    6.55    2.68
  10   3   7    2.85    2.04
  11   3   7   -2.15    1.89
  13   4  -7    9.79    2.57
 -13   4   7   13.76    1.55
 -12  -4   7   38.80    3.05
 -12   4   7   34.66    2.88
 -12   4   7   34.69    2.87
  12   4  -7   33.17    4.20
 -11  -4   7   52.60    3.97
  11  -4  -7   56.34    5.46
 -11   4   7   50.16    3.84
  11   4  -7   46.13    4.80
 -11   4   7   49.38    3.93
  10  -4  -7   43.62    4.45
 -10  -4   7   33.07    3.05
 -10   4   7   34.78    2.77
 -10   4   7   32.03    2.64
  10   4  -7   29.97    3.76
   9  -4  -7   30.48    3.90
  -9  -4   7   29.47    2.44
   9   4  -7   30.74    3.07
  -9   4   7   30.28    2.43
  -9   4   7   28.85    2.34
  -8  -4   7   26.86    2.27
   8  -4  -7   35.51    3.19
   8   4  -7   30.59    2.72
  -8   4   7   25.58    2.21
  -8   4   7   28.78    2.28
  -7  -4   7    8.92    0.96
   7  -4  -7    9.29    1.91
  -7   4   7    7.51    0.89
  -7   4   7    9.84    1.04
   7   4  -7    9.64    1.36
   7   4  -7    8.62    1.29
  -6  -4   7    0.61    0.79
   6  -4  -7    0.56    0.80
  -6  -4   7    0.15    0.37
   6   4  -7    0.65    0.62
   6   4  -7    0.45    0.76
  -6   4   7    1.03    0.45
   5  -4  -7    1.41    0.74
  -5  -4   7    1.28    0.41
  -5  -4   7    1.82    0.84
   5   4  -7    2.28    0.77
  -5   4   7    1.47    0.44
   5   4  -7    1.89    0.60
  -4  -4   7    1.82    0.80
   4  -4  -7    2.10    0.70
  -4  -4   7    1.45    0.34
   4   4  -7    2.01    0.47
   4   4  -7    0.48    0.57
  -4   4   7    1.91    0.42
  -3  -4   7   31.75    2.72
  -3  -4   7   33.49    2.48
   3  -4  -7   33.47    2.78
  -3   4   7   34.77    2.62
   3   4  -7   35.41    2.56
   3   4  -7   36.32    2.54
  -2  -4   7   63.96    4.72
  -2  -4   7   64.42    4.91
   2   4  -7   67.02    4.79
  -2   4   7   67.93    4.74
   2   4  -7   71.19    4.79
  -1  -4   7   73.06    5.67
  -1  -4   7   77.99    5.49
   1  -4  -7   76.26    5.53
   1   4  -7   74.71    5.54
  -1   4   7   85.72    5.50
   1   4  -7   79.04    5.54
  -1   4   7   78.49    5.66
   0  -4  -7   84.65    5.89
   0  -4   7   80.31    6.04
   0   4  -7   83.08    5.89
   0   4   7   90.15    5.84
   0   4  -7   77.45    5.87
   0   4   7   81.76    6.01
  -1  -4  -7   72.57    5.54
   1  -4   7   75.12    5.67
   1  -4   7   84.72    5.54
  -1   4  -7   73.70    5.48
   1   4   7   79.37    5.65
  -2  -4  -7   29.22    2.19
   2  -4   7   27.19    2.37
  -2   4  -7   26.56    2.09
   2   4   7   28.61    2.32
  -3  -4  -7   17.66    1.49
   3  -4   7   15.98    1.77
  -3   4  -7   15.59    1.31
  -3   4  -7   15.20    1.33
   3   4   7   15.61    1.58
   4  -4   7    5.32    1.16
  -4  -4  -7    6.68    0.97
   4   4   7    5.90    0.97
   4   4   7    5.43    1.04
  -4   4  -7    5.26    0.94
  -4   4  -7    6.22    0.73
   5  -4   7    0.90    1.01
  -5  -4  -7   -0.16    0.90
   5  -4   7   -1.40    1.43
  -5   4  -7    1.32    0.75
   5   4   7   -0.74    0.67
  -5   4  -7    0.53    0.46
   5   4   7    0.33    0.73
  -6  -4  -7    3.34    1.27
   6  -4   7    3.73    1.75
   6  -4   7    3.41    1.21
  -6   4  -7    6.24    0.94
  -6   4  -7    3.82    0.67
   6   4   7    3.75    0.98
   6   4   7    4.86    1.12
  -7  -4  -7    4.24    1.54
   7  -4   7    2.44    1.24
   7  -4   7    5.60    2.02
  -7   4  -7    4.91    0.79
   7   4   7    4.55    1.11
   7   4   7    4.20    1.38
  -8  -4  -7    8.13    1.78
   8  -4   7    9.14    2.30
   8  -4   7    6.76    1.37
   8   4   7    5.65    1.39
   8   4   7    8.06    1.67
  -8   4  -7    7.79    1.39
   9  -4   7   20.40    4.05
  -9  -4  -7   35.84    3.48
   9   4   7   28.96    3.19
  -9   4  -7   27.46    2.35
  10  -4   7   27.73    4.34
 -10   4  -7   33.93    2.67
  10   4   7   31.79    3.50
  11  -4   7   20.96    3.49
  12  -5  -7    9.87    3.46
  11  -5  -7   -0.52    3.26
  11   5  -7   -0.73    2.13
 -11   5   7    2.85    0.93
 -10  -5   7    2.34    0.94
  10  -5  -7    0.45    2.69
  10   5  -7    1.18    1.74
 -10   5   7    2.02    0.84
   9  -5  -7   16.04    2.92
  -9  -5   7   13.59    1.49
  -9   5   7   11.03    1.33
  -9   5   7   10.93    1.27
   9   5  -7   13.44    2.22
  -8  -5   7    2.07    0.68
  -8   5   7    1.29    0.64
  -8   5   7    1.98    0.68
   8   5  -7   -0.32    1.02
   8   5  -7    1.89    1.12
   7  -5  -7   69.69    5.75
  -7  -5   7   71.17    5.58
  -7  -5   7   72.25    5.35
  -7   5   7   77.69    5.39
  -7   5   7   76.48    5.37
   7   5  -7   79.80    5.58
  -6  -5   7    3.56    0.55
   6  -5  -7    3.05    1.05
   6   5  -7    3.38    0.76
  -6   5   7    2.70    0.60
  -6   5   7    2.93    0.63
   6   5  -7    3.66    0.90
  -5  -5   7   65.78    4.52
   5  -5  -7   57.92    4.72
  -5  -5   7   57.60    4.74
  -5   5   7   63.80    4.52
   5   5  -7   68.61    4.61
   5   5  -7   64.68    4.62
  -5   5   7   62.73    4.54
   4  -5  -7    5.37    1.03
  -4  -5   7    3.61    0.55
  -4   5   7    4.18    0.61
  -4   5   7    3.26    0.54
   4   5  -7    5.16    0.79
   4   5  -7    3.89    0.69
  -3  -5   7  122.02    9.52
  -3  -5   7  134.06    9.35
   3  -5  -7  137.96    9.58
  -3   5   7  134.08    9.48
   3   5  -7  137.98    9.41
   3   5  -7  143.01    9.45
  -3   5   7  137.10    9.37
  -3   5   7  121.14    9.37
   2  -5  -7    2.55    0.53
   2  -5  -7    2.34    0.92
  -2  -5   7    2.30    0.73
   2   5  -7    2.52    0.60
   2   5  -7    3.86    0.66
  -2   5   7    3.01    0.52
  -2   5   7    2.14    0.63
   1  -5  -7   28.35    2.12
  -1  -5   7   24.10    2.33
   1  -5  -7   27.04    2.60
   1   5  -7   27.37    2.10
  -1   5   7   30.35    2.05
  -1   5   7   25.59    2.18
   1   5  -7   30.07    2.14
   0  -5   7   -0.49    0.64
   0   5  -7    0.25    0.46
   0   5  -7   -0.23    0.44
   0   5   7    0.57    0.37
   0   5   7   -0.19    0.53
   1  -5   7   26.14    2.38
  -1  -5  -7   29.31    2.17
  -1   5  -7   26.36    2.10
   1   5   7   28.08    2.22
  -2  -5  -7    3.96    0.79
   2  -5   7    4.65    0.98
   2   5   7    4.17    0.85
  -2   5  -7    3.87    0.65
   3  -5   7   51.84    4.10
  -3  -5  -7   53.38    3.86
   3  -5   7   46.66    4.27
   3   5   7   50.66    3.86
   3   5   7   54.44    4.00
  -3   5  -7   51.66    3.76
   4  -5   7    1.10    1.06
   4  -5   7    3.14    1.30
  -4  -5  -7    0.46    0.91
   4   5   7    1.34    0.85
  -4   5  -7    1.03    0.59
   4   5   7    0.90    0.75
   5  -5   7   82.65    6.63
  -5  -5  -7   93.68    6.45
   5  -5   7   77.54    6.77
  -5   5  -7   86.30    6.22
   5   5   7   94.00    6.42
   6  -5   7    3.30    1.37
  -6  -5  -7    3.58    1.45
   6  -5   7    4.92    2.21
  -6   5  -7    4.47    0.82
   6   5   7    3.56    1.14
  -7  -5  -7   45.51    4.04
   7   5   7   50.55    3.94
  -7   5  -7   44.20    3.50
   8  -5   7    3.94    2.58
  -8  -5  -7    4.42    1.75
  -8   5  -7    3.53    0.89
   8   5   7    3.05    1.65
   9  -5   7   29.38    4.53
   9   5   7   32.08    3.28
  -9   5  -7   27.32    2.48
 -10   5  -7   10.89    1.66
 -12  -6   7   25.48    2.52
 -11  -6   7   67.43    4.98
  11  -6  -7   74.62    6.78
  11   6  -7   59.90    5.71
 -11   6   7   62.09    4.83
 -10  -6   7   16.23    1.81
 -10   6   7   11.30    1.59
   9  -6  -7   34.88    4.76
  -9  -6   7   48.65    3.68
  -9   6   7   41.52    3.24
   9   6  -7   37.74    3.80
   8  -6  -7    5.95    1.89
  -8  -6   7    8.81    1.15
  -8   6   7    7.09    1.08
   8   6  -7    4.81    1.43
  -7  -6   7   12.24    1.19
   7   6  -7   12.17    1.62
   7   6  -7   10.97    1.41
  -7   6   7   10.72    1.23
   6  -6  -7    0.04    1.05
  -6  -6   7    3.32    1.21
  -6  -6   7    0.66    0.47
  -6   6   7    0.14    0.57
   6   6  -7   -0.16    0.75
   5  -6  -7    2.63    1.10
  -5  -6   7    2.98    1.17
  -5   6   7    1.79    0.59
   5   6  -7    1.66    0.70
   5   6  -7    2.10    0.79
  -5   6   7    1.19    0.43
  -4  -6   7    0.27    0.33
   4  -6  -7    0.50    0.76
  -4  -6   7    2.05    1.01
   4  -6  -7    0.97    1.01
   4   6  -7    0.02    0.52
  -4   6   7    0.26    0.50
   4   6  -7    0.68    0.63
   3  -6  -7   39.88    3.22
  -3  -6   7   37.64    3.22
   3  -6  -7   39.22    2.89
   3   6  -7   41.75    3.01
  -3   6   7   40.15    2.91
  -3   6   7   37.96    3.06
   2  -6  -7   11.47    1.65
   2  -6  -7   11.81    1.17
  -2   6   7   12.32    1.09
   2   6  -7   12.89    1.22
   2   6  -7   12.30    1.17
  -2   6   7   12.66    1.29
   1  -6  -7   89.97    6.32
   1  -6  -7   87.22    6.60
  -1  -6   7   77.82    6.42
  -1   6   7   97.16    6.23
   1   6  -7   84.83    6.25
   1   6  -7   91.22    6.32
  -1   6   7   86.11    6.35
   0  -6  -7   15.24    2.06
   0  -6   7   18.98    1.82
   0  -6  -7   16.16    1.50
   0   6  -7   15.09    1.39
   0   6   7   16.41    1.55
   0   6   7   18.05    1.32
   0   6  -7   14.99    1.46
  -1  -6  -7   86.97    6.68
   1  -6   7   84.18    6.46
  -1  -6  -7   92.33    6.25
  -1   6  -7   84.56    6.21
   1   6   7   87.23    6.33
  -2  -6  -7    6.34    1.00
  -2  -6  -7    5.73    1.63
   2  -6   7    7.69    1.58
  -2   6  -7    5.84    0.91
   2   6   7    6.48    1.10
  -3  -6  -7   20.06    2.86
   3  -6   7   21.81    2.47
   3  -6   7   23.37    2.46
  -3  -6  -7   24.82    2.15
  -3   6  -7   22.74    1.88
   3   6   7   22.65    2.07
  -4  -6  -7   -0.14    1.62
   4  -6   7   -0.12    1.29
   4  -6   7    5.13    1.69
  -4  -6  -7    0.54    1.13
   4   6   7    1.97    0.94
  -4   6  -7    2.00    0.70
   5  -6   7    1.40    2.05
   5  -6   7    1.32    1.40
  -5  -6  -7    1.93    1.97
  -5  -6  -7    2.15    1.39
  -5   6  -7    0.24    0.65
   5   6   7    0.41    1.19
  -6  -6  -7    4.11    1.63
   6  -6   7    1.31    1.66
  -6  -6  -7   -0.28    1.97
   6  -6   7   -0.88    2.41
  -6   6  -7    2.20    0.73
   6   6   7   -0.17    1.14
  -7  -6  -7    0.66    2.25
   7  -6   7    5.12    3.03
   7  -6   7    5.25    1.77
   7   6   7    3.90    1.46
  -8  -6  -7    0.95    2.31
   8  -6   7    1.93    2.94
   8   6   7    1.60    1.49
  -9  -6  -7   26.75    3.99
   9  -6   7   30.77    4.42
   9   6   7   36.70    3.25
  -9   6  -7   33.40    2.72
  10  -7  -7    5.82    3.03
  10   7  -7    5.66    2.08
 -10   7   7    4.35    1.04
   9  -7  -7    5.99    2.55
  -9   7   7    6.27    1.19
   8  -7  -7   25.00    3.67
  -8  -7   7   28.79    2.94
   8   7  -7   21.04    2.72
  -8   7   7   21.28    2.14
  -7  -7   7   17.72    2.33
   7   7  -7   16.73    2.07
  -7   7   7   17.24    1.70
   6  -7  -7   29.32    3.21
  -6  -7   7   39.98    3.93
   6   7  -7   31.36    2.77
   6   7  -7   28.74    2.86
  -6   7   7   31.79    2.64
   5  -7  -7   17.19    3.39
   5   7  -7   15.37    1.57
  -5   7   7   15.23    1.49
   5   7  -7   13.73    1.62
   4  -7  -7   50.13    4.40
  -4  -7   7   54.83    4.35
   4  -7  -7   48.23    4.14
  -4   7   7   58.09    3.98
   4   7  -7   56.49    4.10
   4   7  -7   54.97    4.00
   3  -7  -7   22.87    2.40
  -3   7   7   27.38    2.05
  -3   7   7   24.61    2.25
   3   7  -7   27.22    2.11
   3   7  -7   25.38    2.16
  -2  -7   7   20.35    2.21
   2  -7  -7   17.47    2.19
   2   7  -7   19.44    1.72
   2   7  -7   21.14    1.79
  -2   7   7   20.08    1.91
   1  -7  -7    4.82    1.37
  -1  -7   7    6.04    1.25
  -1   7   7    4.33    0.98
   1   7  -7    4.16    0.86
   1   7  -7    6.19    0.95
  -1   7   7    6.93    0.78
   0  -7  -7    1.43    1.33
   0  -7   7    3.77    1.18
   0   7  -7    1.86    0.74
   0   7  -7    1.68    0.72
   0   7   7    2.66    0.93
  -1  -7  -7    3.84    1.54
  -1  -7  -7    2.70    0.91
   1  -7   7    6.58    1.41
   1   7   7    4.32    1.03
  -1   7  -7    5.42    0.90
   2  -7   7   38.57    3.42
  -2  -7  -7   37.30    3.13
   2  -7   7   39.42    3.50
  -2  -7  -7   35.91    4.06
  -2   7  -7   39.01    2.98
   2   7   7   39.42    3.20
  -3  -7  -7    8.78    1.60
   3  -7   7   15.82    2.27
  -3  -7  -7   10.08    2.19
  -3   7  -7   11.95    1.29
  -4  -7  -7   17.28    3.07
  -4  -7  -7   19.08    2.37
   4  -7   7   18.43    3.06
   4  -7   7   24.66    3.43
  -4   7  -7   20.10    1.80
   4   7   7   19.21    2.18
  -5  -7  -7   16.11    3.29
   5  -7   7   22.50    3.18
  -5  -7  -7   16.92    2.87
   5   7   7   17.87    2.25
  -5   7  -7   19.00    1.80
  -6  -7  -7   29.85    4.29
   6  -7   7   44.87    4.92
   6  -7   7   34.09    3.97
  -6   7  -7   38.12    2.94
   6   7   7   37.01    3.41
   7  -7   7   15.09    3.59
  -7  -7  -7    9.00    2.62
   7   7   7   11.04    2.29
  -7   7  -7   13.09    1.51
   8  -7   7   20.60    4.20
  -8  -7  -7   13.46    3.02
  -8   7  -7   23.18    1.88
   8   7   7   16.17    2.34
   8  -8  -7   30.22    3.97
   8   8  -7   23.90    3.07
  -8   8   7   29.33    2.49
   7  -8  -7   -0.09    1.80
  -6  -8   7    6.59    1.86
   6  -8  -7    3.52    1.66
  -6   8   7    0.84    1.01
  -5  -8   7    3.24    1.71
   5  -8  -7    0.83    1.72
   5  -8  -7    2.32    0.97
   5   8  -7    1.87    1.10
   5   8  -7   -0.11    1.02
  -5   8   7   -0.06    0.93
   4  -8  -7    4.45    1.20
  -4  -8   7    4.61    1.66
   4  -8  -7    6.57    1.78
   4   8  -7    3.58    1.04
  -4   8   7    4.97    1.29
   3  -8  -7    0.26    1.08
   3   8  -7   -0.05    0.97
  -3   8   7    0.78    0.81
   2  -8  -7   43.66    5.15
  -2  -8   7   52.15    4.38
  -2   8   7   55.47    4.16
   2   8  -7   55.81    4.07
   1  -8  -7    0.40    1.28
   1   8  -7    0.43    0.87
  -1   8   7   -0.01    0.95
   0  -8  -7   66.38    5.55
   0  -8   7   67.24    5.44
   0   8  -7   65.94    5.02
   0   8  -7   71.45    5.14
   0   8   7   71.29    5.24
   1  -8   7    1.40    1.47
  -1  -8  -7    2.26    1.62
   1   8   7   -0.10    0.98
  -1   8  -7    3.29    0.96
  -2  -8  -7   29.61    3.51
   2  -8   7   28.09    3.40
   2  -8   7   34.41    3.34
   2   8   7   31.74    2.87
  -2   8  -7   30.78    2.57
  -3  -8  -7   -1.31    1.78
   3  -8   7    4.79    2.09
   3  -8   7    3.26    1.95
   3   8   7   -0.66    1.21
  -3   8  -7   -0.79    0.85
   4  -8   7   11.80    2.33
  -4  -8  -7    7.35    2.37
   4  -8   7   13.77    2.47
  -4   8  -7    8.92    1.49
   4   8   7    9.12    1.76
  -5  -8  -7    2.87    2.24
   5  -8   7    4.91    2.76
   5  -8   7    0.50    2.17
  -5   8  -7    0.39    0.90
   5   8   7   -0.34    1.42
  -6  -8  -7    3.39    2.05
   6  -8   7    8.47    2.90
  -6   8  -7    7.14    1.16
   7   9  -7   12.83    2.50
  -7   9   7   19.61    1.81
   6  -9  -7   19.73    3.25
   6   9  -7   22.69    2.67
  -6   9   7   25.34    2.29
   5  -9  -7   11.56    2.23
   5   9  -7    9.52    1.70
  -5   9   7   10.43    1.67
   4  -9  -7   31.50    3.79
  -4  -9   7   40.92    3.62
   4  -9  -7   40.29    3.43
  -4   9   7   35.67    2.96
   4   9  -7   29.78    3.18
   3  -9  -7   21.70    2.71
   3   9  -7   16.63    1.90
  -3   9   7   21.49    1.71
   3   9  -7   13.96    2.09
  -2  -9   7   19.15    2.55
   2  -9  -7   12.91    2.30
   2   9  -7   14.01    1.80
   2   9  -7   14.70    1.89
  -2   9   7   16.25    2.10
  -1  -9   7    7.12    1.89
   1  -9  -7    3.53    1.49
  -1   9   7    3.56    1.35
   1   9  -7    3.20    1.14
   1   9  -7    5.59    1.23
   0  -9  -7    1.72    1.58
   0  -9   7    4.78    1.71
   0   9  -7    3.60    1.11
   0   9   7    1.20    1.29
   1  -9   7    4.09    2.23
  -1  -9  -7    4.69    1.80
   1   9   7    3.29    1.32
  -1   9  -7    4.59    1.16
   2  -9   7   24.29    3.45
  -2  -9  -7   19.13    3.19
  -2   9  -7   22.81    2.14
   2   9   7   20.26    2.44
   3  -9   7   10.31    2.46
   3   9   7   10.44    1.93
  -3   9  -7    9.07    1.51
   4  -9   7   16.00    3.18
  -4  -9  -7   12.50    2.54
  -4   9  -7   18.39    1.64
   5  -9   7   34.99    4.29
   5  -9   7   27.75    4.75
   4  10  -7    0.69    1.38
   2  10  -7   12.92    1.62
  -1 -10   7   46.06    4.50
   1 -10  -7   35.53    3.57
   1  10  -7   39.73    3.08
  -1  10   7   32.51    3.36
   1  10  -7   32.97    3.22
   0 -10  -7   13.71    2.19
   0  10  -7   11.87    1.70
   1 -10   7   31.77    3.86
  -1  10  -7   38.08    2.93
   2 -10   7   18.87    3.46
 -14   0   8   28.84    2.63
 -13   0   8    1.40    1.19
  13   0  -8    0.60    2.01
  13   0  -8   -0.57    1.26
 -12   0   8   89.37    7.06
  12   0  -8  103.30    7.54
  11   0  -8    1.67    1.63
 -11   0   8    0.19    1.10
  11   0  -8   -0.06    0.94
 -10   0   8  120.47    9.19
  10   0  -8  129.98    9.15
  10   0  -8  136.25    9.50
   9   0  -8   -0.42    0.59
  -9   0   8    0.17    0.54
   9   0  -8   -0.56    1.16
  -8   0   8  114.06    8.30
   8   0  -8  107.23    8.27
   8   0  -8  130.17    8.60
   7   0  -8    0.09    1.18
  -7   0   8   -0.25    0.40
   7   0  -8    0.77    0.54
   6   0  -8    0.98    0.49
  -6   0   8    0.08    0.36
   6   0  -8    1.26    1.00
   5   0  -8   -1.05    0.85
  -4   0   8    7.26    0.66
   4   0  -8    7.08    0.72
   4   0  -8    5.80    1.16
  -3   0   8   -0.04    0.24
   3   0  -8    0.10    0.35
  -2   0   8  170.35   11.10
  -2   0   8  148.51   10.87
   2   0  -8  147.39   10.86
  -1   0   8    0.20    0.26
  -1   0   8    0.02    0.67
   1   0  -8   -0.12    0.30
   0   0  -8  251.31   19.00
   0   0   8  289.72   19.26
   0   0   8  277.69   19.05
  -1   0  -8    0.00    0.29
   1   0   8   -0.18    0.48
  -1   0  -8    0.19    0.39
   2   0   8  114.86    8.06
  -2   0  -8  109.16    7.78
  -2   0  -8  109.65    7.83
  -3   0  -8    0.09    0.47
  -3   0  -8    0.26    0.30
   3   0   8    0.02    0.56
   3   0   8   -0.35    0.48
  -4   0  -8   11.53    0.97
   4   0   8   12.86    1.26
  -4   0  -8   13.02    1.22
   4   0   8   11.52    1.32
  -5   0  -8    0.57    0.33
   5   0   8   -0.35    0.62
  -5   0  -8   -0.87    0.64
   6   0   8   20.75    2.03
  -6   0  -8   19.47    1.40
  -6   0  -8   16.28    1.78
   6   0   8   16.16    1.75
   7   0   8   -0.67    1.22
  -7   0  -8   -0.22    1.06
   7   0   8   -1.18    0.83
   8   0   8   20.00    2.61
  -8   0  -8   18.71    2.32
   8   0   8   17.38    1.96
  -9   0  -8   -0.22    1.46
   9   0   8    2.45    2.55
   9   0   8   -1.18    1.07
 -10   0  -8   64.86    5.33
  10   0   8   56.48    5.41
  11   0   8    0.91    2.21
  14  -1  -8   15.27    1.97
  14  -1  -8   22.37    3.20
  14   1  -8   17.57    2.64
  13  -1  -8   16.09    2.19
 -13  -1   8   22.43    2.34
  13  -1  -8   19.86    3.35
 -13   1   8   23.71    2.42
  13   1  -8   16.48    3.38
 -12  -1   8   25.13    2.26
  12  -1  -8   21.93    3.15
  12   1  -8   21.98    3.11
  12   1  -8   17.63    2.16
 -12   1   8   21.77    2.37
  11  -1  -8    1.12    1.75
  11  -1  -8    1.06    1.01
 -11  -1   8    1.95    0.83
  11   1  -8   -0.28    1.04
  11   1  -8   -1.09    1.64
  10  -1  -8    4.66    1.79
 -10  -1   8    5.95    0.98
  10  -1  -8    6.47    1.05
  10   1  -8    3.91    1.61
 -10   1   8    5.57    1.00
  10   1  -8    5.87    1.13
   9  -1  -8   10.53    2.12
  -9  -1   8    5.83    0.96
   9   1  -8    6.44    1.49
  -9   1   8    6.98    1.00
   9   1  -8    7.01    0.97
  -8  -1   8   73.08    5.89
   8  -1  -8   93.98    6.29
  -8   1   8   82.33    5.93
   8   1  -8   82.46    5.93
   8   1  -8   81.48    6.24
  -7  -1   8   39.57    3.17
   7  -1  -8   46.22    3.64
   7   1  -8   46.79    3.77
  -7   1   8   42.91    3.20
   7   1  -8   41.59    3.22
   6  -1  -8   75.43    5.56
  -6  -1   8   75.56    5.29
   6  -1  -8   66.71    5.27
  -6   1   8   78.24    5.31
   6   1  -8   73.64    5.31
   6   1  -8   74.52    5.52
   5  -1  -8   33.07    2.53
   5  -1  -8   34.06    2.94
   5   1  -8   35.84    2.77
   4  -1  -8  120.12    8.57
  -4  -1   8  125.27    8.57
   4  -1  -8  112.75    8.67
   4   1  -8  126.80    8.59
  -4   1   8  125.61    8.58
   4   1  -8  120.58    8.60
   3  -1  -8   37.09    2.71
  -3  -1   8   38.53    2.71
  -3  -1   8   33.88    2.89
   3  -1  -8   35.08    2.79
   3   1  -8   40.89    2.75
  -3   1   8   38.78    2.72
  -2  -1   8   71.17    5.06
   2  -1  -8   70.01    5.05
  -2   1   8   71.59    5.07
   2   1  -8   72.96    5.07
  -1  -1   8   45.13    3.17
   1  -1  -8   42.37    3.14
  -1   1   8   44.33    3.18
   1   1  -8   44.33    3.16
   0  -1  -8   14.78    1.23
   0  -1   8   18.00    1.29
   0   1  -8   16.39    1.26
  -1  -1  -8   12.22    0.86
  -1  -1  -8   11.44    0.96
   1  -1   8    8.19    1.29
  -1   1  -8   11.10    0.94
  -1   1  -8   10.67    0.88
   1   1   8    8.37    1.17
  -2  -1  -8   69.97    5.31
  -2  -1  -8   73.75    5.14
  -2   1  -8   71.69    5.21
   2   1   8   75.83    5.20
  -2   1  -8   75.11    5.18
   3  -1   8   17.64    1.60
  -3  -1  -8   16.22    1.35
  -3  -1  -8   15.75    1.16
   3  -1   8   13.05    1.39
   3   1   8   13.88    1.50
   3   1   8   16.94    1.34
  -3   1  -8   15.60    1.22
   4  -1   8   48.29    3.57
  -4  -1  -8   47.55    3.40
  -4  -1  -8   46.74    3.24
   4  -1   8   41.91    3.44
  -4   1  -8   47.49    3.37
   4   1   8   42.52    3.54
  -4   1  -8   45.84    3.28
   5  -1   8   38.97    3.00
  -5  -1  -8   37.12    2.90
   5   1   8   35.11    3.02
  -5   1  -8   38.10    2.90
   5   1   8   39.20    2.97
   6  -1   8   60.39    4.49
   6  -1   8   54.36    4.19
  -6  -1  -8   52.79    4.18
   6   1   8   56.89    4.24
   6   1   8   55.18    4.23
  -6   1  -8   55.16    4.17
  -6   1  -8   53.19    3.96
   7  -1   8   13.03    1.63
   7  -1   8   15.69    2.24
  -7  -1  -8   12.66    1.84
   7   1   8   15.43    1.68
   7   1   8   14.34    1.92
  -7   1  -8   13.26    1.86
  -7   1  -8   15.03    1.21
   8  -1   8   24.93    2.40
  -8   1  -8   23.73    2.66
   8   1   8   25.42    2.41
   8   1   8   29.41    2.79
   9  -1   8    6.47    2.64
   9  -1   8    7.61    1.53
  -9  -1  -8    9.96    1.89
  -9   1  -8    9.67    1.92
   9   1   8    7.84    1.38
   9   1   8   12.88    3.06
  10  -1   8    4.62    2.44
 -10  -1  -8    5.47    2.08
  11  -1   8   -1.18    2.36
  11   1   8    0.54    2.13
  14  -2  -8    4.20    1.21
  14   2  -8   -0.52    2.02
 -13  -2   8   30.20    2.66
  13  -2  -8   32.37    4.02
  13  -2  -8   30.96    2.65
  13   2  -8   24.94    3.40
 -13   2   8   22.39    2.77
  12  -2  -8   18.31    2.91
 -12  -2   8   11.38    1.80
 -12   2   8   14.95    2.04
  12   2  -8   14.26    2.41
  11  -2  -8   91.94    7.60
 -11  -2   8   88.29    6.68
  11   2  -8   98.95    7.61
 -11   2   8   81.36    7.12
  11   2  -8   97.82    6.73
 -10  -2   8   14.90    1.63
 -10   2   8   15.78    1.69
 -10   2   8   16.16    1.46
  10   2  -8   14.86    1.77
  10   2  -8   14.01    2.52
   9  -2  -8  117.63    8.62
  -9  -2   8  110.52    8.21
   9   2  -8  117.64    8.26
   9   2  -8  116.97    8.58
  -9   2   8  110.97    8.18
  -9   2   8  118.11    8.24
   8  -2  -8   16.41    2.19
  -8  -2   8   12.78    1.26
  -8   2   8   13.36    1.21
   8   2  -8   12.93    2.02
   8   2  -8   14.59    1.50
  -8   2   8   15.02    1.32
   7  -2  -8   12.43    2.08
  -7  -2   8   11.72    1.12
   7   2  -8   10.15    1.74
  -7   2   8   14.36    1.18
  -7   2   8   12.03    1.08
  -6  -2   8   -0.27    0.33
   6  -2  -8    0.20    1.62
   6   2  -8    0.49    0.75
  -6   2   8   -0.27    0.37
   6   2  -8    0.32    0.72
  -6   2   8    0.06    0.37
  -5  -2   8    3.28    0.60
   5  -2  -8    4.47    0.94
  -5   2   8    3.71    0.68
   5   2  -8    4.41    0.82
   5   2  -8    4.95    0.80
  -5   2   8    3.95    0.55
  -4  -2   8    0.66    0.28
   4  -2  -8    1.15    0.59
  -4  -2   8    0.60    0.53
  -4   2   8    0.98    0.39
  -4   2   8    0.45    0.33
   4   2  -8    1.15    0.59
  -3  -2   8   71.87    5.07
   3  -2  -8   67.34    5.11
  -3  -2   8   74.05    5.21
  -3   2   8   72.53    5.09
   3   2  -8   72.34    5.11
   2  -2  -8   16.12    1.34
  -2  -2   8   17.55    1.58
  -2  -2   8   17.12    1.34
  -2   2   8   16.95    1.56
  -2   2   8   18.78    1.39
  -2   2   8   17.02    1.36
   2   2  -8   19.06    1.40
   1  -2  -8  129.09    8.67
  -1  -2   8  122.42    8.88
  -1  -2   8  124.36    8.69
  -1   2   8  114.63    8.83
   1   2  -8  122.16    8.69
  -1   2   8  125.87    8.68
  -1   2   8  127.58    8.72
   0  -2   8   29.11    2.51
   0  -2  -8   28.29    2.17
   0  -2   8   33.74    2.23
   0  -2  -8   29.25    2.24
   0   2   8   31.69    2.22
   0   2  -8   29.76    2.21
   0   2   8   28.93    2.45
  -1  -2  -8  198.00   13.71
  -1  -2  -8  196.43   13.63
  -1   2  -8  195.04   13.67
   1   2   8  196.03   13.68
  -1   2  -8  192.50   13.66
  -2  -2  -8   12.75    1.19
  -2   2  -8   13.81    1.14
   2   2   8   13.77    1.15
   2   2   8   12.56    1.40
  -2   2  -8   13.20    1.13
  -3  -2  -8   60.00    4.33
  -3   2  -8   62.24    4.29
   3   2   8   55.16    4.49
  -3   2  -8   61.16    4.26
  -4  -2  -8    1.98    0.65
   4  -2   8    0.89    0.81
   4  -2   8    0.64    0.82
   4   2   8    2.22    0.72
  -4   2  -8    2.15    0.64
  -4   2  -8    1.84    0.48
   4   2   8    1.61    0.76
   5  -2   8    5.40    1.48
  -5  -2  -8    6.15    1.04
   5  -2   8    5.86    1.18
  -5   2  -8    6.51    1.06
   5   2   8    5.73    1.10
  -5   2  -8    5.97    0.73
   5   2   8    7.33    1.12
   6  -2   8    2.36    0.86
   6  -2   8    1.12    1.97
  -6  -2  -8    2.94    1.01
  -6   2  -8    2.63    0.54
   6   2   8    2.68    0.92
  -6   2  -8    2.65    0.99
   6   2   8    3.54    0.99
  -7  -2  -8    4.82    1.25
   7  -2   8    2.18    0.97
   7  -2   8    3.54    1.48
  -7   2  -8    3.61    1.23
   7   2   8    3.22    1.23
   7   2   8    3.15    1.03
   8  -2   8    3.91    1.07
   8  -2   8    2.75    1.85
  -8  -2  -8    3.03    1.38
   8   2   8    2.05    1.06
  -8   2  -8    5.80    1.45
  -8   2  -8    3.92    0.68
   8   2   8    3.03    1.50
  -9  -2  -8   45.86    4.15
   9  -2   8   56.98    4.19
   9   2   8   40.44    4.24
 -10  -2  -8   19.51    3.20
  11  -2   8   35.81    3.79
  11   2   8   25.60    3.51
 -14   3   8    3.69    1.00
  13  -3  -8   45.52    4.91
 -13  -3   8   52.74    3.70
  13   3  -8   42.09    4.56
 -13   3   8   40.57    3.66
 -12  -3   8    4.73    1.22
  12  -3  -8    3.77    2.38
 -12   3   8    3.39    1.10
  12   3  -8    3.53    2.11
 -11  -3   8    2.41    0.95
  11  -3  -8    2.12    2.28
 -11   3   8    0.54    0.82
  11   3  -8    0.26    1.82
  11   3  -8   -2.32    1.10
  10  -3  -8    0.35    2.01
 -10  -3   8    1.07    0.78
 -10   3   8   -0.40    0.70
 -10   3   8    0.72    0.78
  10   3  -8    1.44    1.60
  -9  -3   8   16.00    1.61
   9  -3  -8   18.47    2.53
  -9   3   8   18.12    1.60
   9   3  -8   14.73    1.96
   9   3  -8   18.80    2.38
  -9   3   8   16.72    1.50
   8  -3  -8    2.89    1.48
  -8  -3   8    4.00    0.66
  -8   3   8    4.53    0.72
   8   3  -8    4.32    1.22
   8   3  -8    4.93    1.23
  -8   3   8    4.68    0.80
   7  -3  -8  115.56    8.35
  -7  -3   8  106.85    8.07
   7   3  -8  112.44    8.19
   7   3  -8  115.04    8.24
  -7   3   8  126.72    8.12
  -7   3   8  107.53    8.05
   6  -3  -8    3.23    1.00
  -6  -3   8    2.84    0.51
  -6   3   8    3.74    0.55
  -6   3   8    3.18    0.59
   5  -3  -8  103.73    7.86
  -5  -3   8  110.39    7.75
  -5  -3   8  119.13    7.87
  -5   3   8  112.79    7.78
   5   3  -8  108.25    7.78
  -5   3   8  104.60    7.74
   5   3  -8  109.54    7.82
   4  -3  -8    6.59    1.01
  -4  -3   8    5.03    0.62
  -4  -3   8    6.60    0.94
  -4   3   8    6.17    0.66
  -4   3   8    5.43    0.67
   4   3  -8    5.78    0.67
   4   3  -8    6.48    0.88
  -3  -3   8  118.45    8.26
  -3  -3   8  113.75    8.11
  -3   3   8  112.67    8.12
   3   3  -8  119.71    8.17
  -3   3   8  113.97    8.15
   3   3  -8  114.72    8.11
  -2  -3   8    0.92    0.73
  -2  -3   8    2.04    0.37
  -2   3   8    3.21    0.64
  -2   3   8    3.39    0.65
  -2   3   8    2.90    0.46
   2   3  -8    1.83    0.54
   1  -3  -8  107.30    7.45
  -1  -3   8  106.81    7.46
  -1  -3   8  107.74    7.70
  -1   3   8  107.80    7.62
   1   3  -8  101.11    7.48
   0  -3   8    0.35    0.58
   0  -3  -8    0.31    0.46
   0  -3  -8    0.82    0.34
   0   3   8    0.86    0.67
   0   3  -8    0.93    0.45
   1  -3   8   29.87    2.55
  -1  -3  -8   30.06    2.17
  -1  -3  -8   31.41    2.31
   1   3   8   33.21    2.39
   1   3   8   29.50    2.47
  -1   3  -8   29.42    2.22
  -1   3  -8   28.79    2.24
   2  -3   8    2.56    0.88
   2  -3   8    1.32    0.88
  -2  -3  -8    2.13    0.61
   2   3   8    2.95    0.77
  -2   3  -8    2.80    0.52
   2   3   8    2.83    0.58
  -2   3  -8    2.44    0.51
   3  -3   8   38.78    3.71
  -3  -3  -8   49.08    3.45
   3   3   8   48.36    3.61
   3   3   8   48.14    3.46
  -3   3  -8   45.79    3.36
  -3   3  -8   47.86    3.37
   4  -3   8    1.34    1.06
   4  -3   8    0.90    1.14
  -4  -3  -8    3.43    0.76
   4   3   8    3.26    0.86
  -4   3  -8    3.53    0.59
   4   3   8    3.47    0.74
  -5  -3  -8  108.78    7.75
   5   3   8  108.18    7.87
  -5   3  -8  105.55    7.62
   5   3   8  109.35    7.75
   6  -3   8    0.92    1.05
  -6  -3  -8    1.66    1.11
   6  -3   8    2.58    1.64
  -6   3  -8    2.56    0.57
   6   3   8    2.64    0.94
   6   3   8    2.89    0.98
  -7  -3  -8   39.03    3.49
   7  -3   8   37.06    3.75
   7  -3   8   42.49    3.39
  -7   3  -8   41.23    3.36
   7   3   8   35.87    3.34
   7   3   8   43.55    3.35
  -7   3  -8   42.08    3.01
   8  -3   8    2.18    1.94
   8  -3   8    1.65    1.09
  -8  -3  -8    1.90    1.53
  -8   3  -8    4.01    1.35
  -8   3  -8    1.63    0.72
   8   3   8    1.51    1.51
  -9  -3  -8   19.22    2.75
   9  -3   8   24.14    3.46
   9   3   8   17.49    2.73
  -9   3  -8   21.27    1.91
   9   3   8   18.88    2.23
  10  -3   8    5.19    2.57
  10   3   8   -0.60    1.07
  10   3   8   -1.45    1.88
  11  -3   8   -0.05    2.64
  11   3   8   -0.81    1.67
  13  -4  -8   20.10    3.81
 -13   4   8   13.79    1.64
  13   4  -8   13.80    2.66
  12  -4  -8   41.26    4.82
 -12  -4   8   42.45    3.17
  12   4  -8   41.85    4.19
 -12   4   8   31.58    3.00
 -12   4   8   34.55    3.07
 -11  -4   8   47.63    3.44
  11  -4  -8   48.23    5.09
  11   4  -8   43.31    4.26
 -11   4   8   40.33    3.33
 -11   4   8   36.69    3.69
 -10  -4   8   42.85    3.26
  10  -4  -8   40.74    4.72
 -10   4   8   38.05    3.13
 -10   4   8   41.91    3.26
  10   4  -8   41.47    3.88
  -9  -4   8   47.66    3.69
  -9   4   8   46.17    3.62
   9   4  -8   49.35    4.13
  -9   4   8   52.69    3.74
   8  -4  -8   32.99    3.41
  -8  -4   8   33.01    2.64
  -8   4   8   37.73    2.68
  -8   4   8   31.79    2.58
   8   4  -8   34.63    2.94
  -7  -4   8    7.16    0.85
   7  -4  -8    9.38    1.87
   7   4  -8    5.37    1.10
  -7   4   8    5.80    0.78
   7   4  -8    6.06    1.26
  -7   4   8    7.01    0.94
  -6  -4   8    0.92    0.87
  -6  -4   8    0.45    0.40
   6  -4  -8    0.32    0.77
  -6   4   8   -0.10    0.43
   6   4  -8   -0.52    0.85
  -6   4   8    0.48    0.38
   6   4  -8    0.05    0.56
   5  -4  -8    1.20    0.72
  -5  -4   8    1.86    0.82
  -5  -4   8    1.20    0.41
  -5   4   8    1.40    0.47
   5   4  -8    0.19    0.51
  -5   4   8    0.85    0.40
  -4  -4   8    4.54    0.58
  -4  -4   8    4.94    0.92
   4  -4  -8    5.97    1.02
  -4   4   8    3.68    0.59
   4   4  -8    5.91    0.89
  -4   4   8    4.61    0.76
   4   4  -8    4.08    0.63
  -3  -4   8   27.57    2.42
  -3  -4   8   28.55    2.15
   3   4  -8   31.73    2.20
  -3   4   8   29.58    2.18
  -3   4   8   28.98    2.21
   3   4  -8   29.38    2.26
  -2  -4   8   40.10    3.26
  -2  -4   8   39.98    3.00
  -2   4   8   43.80    3.22
  -2   4   8   45.85    3.04
  -2   4   8   38.95    3.05
   2   4  -8   40.82    3.08
   2   4  -8   43.32    3.05
   1  -4  -8   43.90    3.83
  -1  -4   8   50.49    3.98
  -1  -4   8   53.15    3.74
  -1   4   8   54.08    3.94
   1   4  -8   52.88    3.80
  -1   4   8   58.25    3.75
   1   4  -8   53.40    3.77
   0  -4   8   86.25    6.41
   0  -4  -8   90.41    6.23
   0  -4  -8   88.92    6.16
   0   4  -8   83.16    6.21
   0   4   8   88.28    6.38
   0   4   8   88.58    6.34
   1  -4   8   81.44    6.11
  -1  -4  -8   84.76    5.80
  -1  -4  -8   80.71    5.90
   1  -4   8   88.41    5.93
  -1   4  -8   81.97    5.83
  -1   4  -8   78.19    5.87
   1   4   8   82.42    6.07
   1   4   8   83.68    5.94
   2  -4   8   34.33    2.99
  -2  -4  -8   36.61    2.72
  -2   4  -8   35.03    2.59
  -2   4  -8   34.57    2.64
   2   4   8   36.57    2.89
   2   4   8   36.33    2.72
  -3  -4  -8   26.75    2.10
   3  -4   8   25.24    2.42
   3  -4   8   24.95    2.85
  -3   4  -8   24.97    1.95
   3   4   8   25.93    2.09
   3   4   8   24.88    2.22
  -3   4  -8   25.55    1.95
   4  -4   8    3.73    1.19
   4  -4   8    5.43    1.51
  -4  -4  -8    5.39    0.96
   4   4   8    5.25    1.03
  -4   4  -8    4.77    0.87
   4   4   8    5.71    0.91
  -4   4  -8    6.20    0.78
  -5  -4  -8    2.16    1.02
   5  -4   8    0.75    1.14
   5   4   8    1.31    0.76
   5   4   8    2.51    0.96
  -5   4  -8    1.74    0.84
  -5   4  -8    2.78    0.60
   6  -4   8    6.92    1.56
  -6  -4  -8    6.14    1.46
   6  -4   8    5.48    1.79
   6   4   8    6.66    1.26
  -6   4  -8    7.33    0.93
  -6   4  -8    8.24    1.09
   7  -4   8    2.20    1.99
  -7  -4  -8    2.21    1.42
   7  -4   8    2.29    1.31
  -7   4  -8    2.58    0.70
   7   4   8    0.94    1.21
   8  -4   8    5.55    2.54
   8  -4   8    7.21    1.49
  -8  -4  -8    6.33    1.84
   8   4   8    6.66    1.36
  -8   4  -8    7.64    1.10
   8   4   8    8.07    1.72
  -9  -4  -8   33.78    3.39
   9  -4   8   25.93    3.70
   9   4   8   26.16    3.17
  -9   4  -8   27.62    2.36
  10  -4   8   23.58    3.35
  10   4   8   18.98    2.88
  12  -5  -8   26.19    4.37
  12   5  -8   16.07    2.85
 -12   5   8   16.42    1.80
  11  -5  -8   -0.78    2.94
 -11  -5   8    3.11    1.08
  11   5  -8   -0.90    1.97
 -11   5   8    1.58    0.93
  10  -5  -8    3.65    2.90
 -10  -5   8    6.24    1.07
 -10   5   8    5.66    0.98
  10   5  -8    2.48    1.72
  -9  -5   8    2.37    0.78
   9  -5  -8    3.23    2.23
   9   5  -8    1.39    1.19
   9   5  -8    0.33    1.32
  -9   5   8    0.75    0.73
  -8  -5   8   61.65    4.61
   8  -5  -8   55.41    5.32
  -8   5   8   63.03    4.60
   8   5  -8   68.36    4.89
  -8   5   8   64.65    4.64
  -7  -5   8    3.34    0.62
   7  -5  -8    2.60    1.23
   7   5  -8    4.64    1.21
   7   5  -8    2.51    0.85
  -7   5   8    2.69    0.66
  -7   5   8    2.48    0.66
  -6  -5   8   61.58    4.41
  -6  -5   8   60.91    4.70
   6  -5  -8   55.05    4.66
  -6   5   8   62.30    4.43
   6   5  -8   63.50    4.53
  -6   5   8   61.03    4.45
   6   5  -8   63.87    4.55
  -5  -5   8    3.23    0.56
   5  -5  -8    4.24    0.98
  -5   5   8    3.59    0.60
   5   5  -8    5.80    0.90
  -5   5   8    2.56    0.61
   5   5  -8    3.88    0.72
  -4  -5   8  101.96    6.85
  -4  -5   8   93.95    7.04
   4  -5  -8   89.42    7.00
  -4   5   8  100.41    6.87
   4   5  -8  100.56    6.92
  -4   5   8   90.80    6.89
   4   5  -8  101.33    6.93
   3  -5  -8    3.29    0.98
  -3  -5   8    3.51    0.50
   3   5  -8    3.25    0.72
  -3   5   8    3.53    0.58
  -3   5   8    3.72    0.79
   3   5  -8    3.38    0.72
   2  -5  -8   41.99    3.47
  -2  -5   8   47.20    3.35
   2  -5  -8   45.89    3.76
  -2  -5   8   44.46    3.62
   2   5  -8   49.82    3.44
  -2   5   8   50.20    3.39
   2   5  -8   47.64    3.44
  -2   5   8   46.26    3.50
   1  -5  -8    1.69    0.59
  -1  -5   8    2.67    0.84
   1   5  -8    2.79    0.57
  -1   5   8    2.96    0.55
  -1   5   8    1.53    0.60
   1   5  -8    3.03    0.60
   0  -5  -8    9.58    1.02
   0  -5   8    7.81    1.31
   0   5  -8    8.36    0.92
  -1  -5  -8    1.04    0.67
   1  -5   8    0.51    0.70
  -1   5  -8    1.06    0.51
   1   5   8    0.51    0.69
   1   5   8    0.71    0.57
  -2  -5  -8   60.08    4.26
   2  -5   8   58.29    4.50
   2  -5   8   54.03    4.40
   2   5   8   58.79    4.43
  -2   5  -8   57.86    4.19
   3  -5   8    3.01    1.35
   3  -5   8    2.24    1.04
  -3  -5  -8    1.41    0.85
   3   5   8    2.44    0.87
   3   5   8    2.34    0.80
  -3   5  -8    1.85    0.64
   4  -5   8   41.49    3.94
  -4  -5  -8   48.23    3.64
   4   5   8   46.38    3.73
   4   5   8   48.29    3.62
  -4   5  -8   48.11    3.46
  -5  -5  -8    1.14    1.15
   5  -5   8    5.71    2.38
   5  -5   8    2.23    1.40
   5   5   8    2.81    1.02
   5   5   8    1.63    0.97
  -5   5  -8    3.68    0.74
   6   5   8   53.09    4.16
  -6   5  -8   48.24    3.96
   6   5   8   54.58    4.18
   7  -5   8    1.00    2.08
  -7  -5  -8    2.54    1.57
   7  -5   8    1.41    1.44
  -7   5  -8    2.07    0.77
   7   5   8    4.01    1.46
  -8  -5  -8   30.33    3.20
   8  -5   8   19.99    4.19
  -8   5  -8   27.73    2.31
   8   5   8   28.02    3.04
   9  -5   8    7.80    2.18
  -9   5  -8    4.08    1.04
 -10  -5  -8   -1.90    1.88
 -12  -6   8   49.67    4.09
  11   6  -8    8.25    2.26
 -11   6   8   13.03    1.46
 -10  -6   8   57.14    4.20
  10  -6  -8   52.21    5.86
 -10   6   8   54.16    4.14
  10   6  -8   52.92    4.79
  -9  -6   8   16.53    2.12
   9   6  -8   10.73    2.19
  -9   6   8   12.93    1.55
   8  -6  -8   46.75    4.34
  -8  -6   8   40.53    3.23
  -8  -6   8   47.53    3.85
   8   6  -8   41.51    3.36
  -8   6   8   43.65    3.31
   8   6  -8   40.27    3.59
  -7  -6   8    2.51    0.61
   7  -6  -8    1.45    1.42
   7   6  -8    1.57    0.96
   6  -6  -8    1.12    1.09
  -6  -6   8    0.90    0.48
  -6   6   8   -0.09    0.65
   6   6  -8    0.41    0.71
   6   6  -8   -0.11    0.97
  -5  -6   8    0.24    0.38
   5  -6  -8    1.56    1.08
  -5  -6   8    0.97    1.20
  -5   6   8    0.34    0.44
   5   6  -8    0.97    0.85
  -5   6   8    0.27    0.58
   5   6  -8   -0.21    0.61
   4  -6  -8    7.16    1.29
   4  -6  -8    5.62    1.11
  -4  -6   8    6.11    1.26
  -4  -6   8    5.27    0.71
   4   6  -8    6.76    0.96
  -4   6   8    5.12    0.78
   4   6  -8    4.79    0.89
   3  -6  -8    4.97    1.18
   3  -6  -8    5.42    0.83
   3   6  -8    6.09    0.97
   3   6  -8    6.22    0.86
  -3   6   8    7.34    0.78
  -3   6   8    4.72    1.00
  -2  -6   8   45.33    3.85
   2  -6  -8   47.92    3.97
   2  -6  -8   50.80    3.61
   2   6  -8   51.21    3.64
   2   6  -8   49.77    3.63
  -2   6   8   49.11    3.72
   1  -6  -8   10.76    1.81
  -1  -6   8   12.70    1.58
   1  -6  -8    9.57    1.17
   1   6  -8   11.30    1.13
  -1   6   8   10.50    1.24
  -1   6   8   12.05    1.06
   1   6  -8   10.03    1.13
   0  -6   8   93.83    7.37
   0  -6  -8   98.05    7.60
   0  -6  -8  102.88    7.17
   0   6  -8   98.72    7.16
   0   6   8  110.60    7.09
   0   6   8   98.32    7.25
  -1  -6  -8   13.34    2.37
   1  -6   8   17.46    1.95
  -1  -6  -8   12.81    1.51
  -1   6  -8   15.06    1.40
   1   6   8   17.82    1.61
  -2  -6  -8   43.49    4.22
  -2  -6  -8   45.09    3.49
   2  -6   8   46.06    3.85
   2   6   8   46.03    3.54
  -2   6  -8   46.01    3.39
   3  -6   8    4.99    1.41
  -3  -6  -8    3.51    1.13
   3   6   8    6.77    1.21
  -3   6  -8    6.57    0.90
  -4  -6  -8    5.09    1.42
   4  -6   8   10.45    2.13
   4  -6   8    9.09    1.84
   4   6   8    8.32    1.40
  -4   6  -8    9.39    1.64
   5  -6   8    0.16    1.68
  -5  -6  -8   -0.22    1.96
  -5  -6  -8   -0.26    1.40
   5  -6   8    2.77    2.10
   5   6   8    0.65    1.29
  -5   6  -8   -0.67    0.65
   6  -6   8    5.39    1.81
   6  -6   8   10.09    2.78
  -6  -6  -8    3.41    2.32
  -6  -6  -8    6.21    1.79
   6   6   8    8.45    1.60
  -6   6  -8    7.34    1.16
  -7  -6  -8    1.89    1.80
   7  -6   8    2.11    2.44
   7  -6   8    1.68    1.75
  -7  -6  -8    2.37    2.41
  -7   6  -8    1.36    0.80
   7   6   8    0.41    1.38
  -8  -6  -8    9.38    2.68
   8  -6   8   11.54    2.99
  -8   6  -8   14.46    1.45
   8   6   8    7.49    1.88
  -9  -6  -8    4.56    2.16
  -9   6  -8   15.07    1.99
  10  -7  -8    7.40    2.94
 -10   7   8    3.49    0.89
  10   7  -8    2.23    1.87
   9  -7  -8    7.49    2.59
  -9   7   8    9.80    1.55
   9   7  -8   11.74    2.08
  -8   7   8   12.52    1.57
   8   7  -8   10.44    2.05
   7  -7  -8   39.95    3.92
  -7   7   8   43.73    3.26
   7   7  -8   40.54    3.68
   7   7  -8   40.35    3.41
   6  -7  -8   21.34    2.48
   6   7  -8   13.29    1.78
  -6   7   8   16.65    1.67
   6   7  -8   15.72    1.79
  -5  -7   8   33.57    3.84
   5   7  -8   35.81    2.97
  -5   7   8   40.41    2.90
   5   7  -8   35.95    2.96
   4  -7  -8   24.50    2.59
   4  -7  -8   19.67    2.10
  -4   7   8   21.04    1.81
   4   7  -8   18.51    1.89
   4   7  -8   20.94    1.90
  -3  -7   8   34.74    3.23
   3  -7  -8   34.27    3.16
  -3   7   8   39.47    2.79
  -3   7   8   34.79    2.97
   3   7  -8   37.67    2.88
   2  -7  -8    8.49    1.60
  -2  -7   8   12.18    1.89
   2   7  -8   10.63    1.24
   2   7  -8    9.54    1.20
  -2   7   8   10.00    1.43
   1  -7  -8   19.78    2.61
  -1  -7   8   22.71    2.43
   1   7  -8   23.74    1.99
  -1   7   8   26.85    1.84
   1   7  -8   23.34    2.01
  -1   7   8   22.69    2.15
   0  -7   8    2.78    1.20
   0  -7  -8    0.49    1.44
   0  -7  -8    0.47    0.75
   0   7  -8    1.31    0.73
   0   7   8    1.88    0.85
   1  -7   8   10.71    1.86
  -1  -7  -8    9.41    2.04
   1  -7   8   11.98    2.14
  -1  -7  -8    9.82    1.27
   1   7   8    9.83    1.49
  -1   7  -8    8.78    1.23
  -2  -7  -8    9.28    1.65
   2  -7   8   16.72    3.24
  -2  -7  -8    9.84    2.19
  -2   7  -8   12.09    1.31
   2   7   8   10.75    1.62
  -3  -7  -8   13.89    2.98
   3  -7   8   22.71    2.74
   3  -7   8   18.17    2.75
  -3  -7  -8   16.95    2.17
  -3   7  -8   16.53    1.68
   3   7   8   18.39    2.03
  -4  -7  -8    6.89    2.38
   4  -7   8   14.82    2.67
  -4  -7  -8    9.75    1.79
  -4   7  -8   10.89    1.35
   4   7   8   11.00    1.82
  -5  -7  -8   41.94    3.73
  -5  -7  -8   32.79    4.41
   5  -7   8   38.02    4.31
   5   7   8   43.91    3.54
  -5   7  -8   39.72    3.16
  -6  -7  -8   10.59    2.78
   6  -7   8    9.56    2.38
  -6   7  -8   16.21    1.56
   6   7   8   14.00    2.24
  -7  -7  -8   16.51    3.51
  -7   7  -8   23.29    1.93
   7   7   8   17.75    2.52
  -8  -7  -8   62.50    5.73
  -9  -8   8   72.21    5.65
   7  -8  -8    8.22    2.02
   7   8  -8    9.05    1.69
  -7   8   8   10.15    1.63
   6  -8  -8    1.18    1.56
  -6   8   8    0.69    1.09
   6   8  -8    0.14    1.15
  -5  -8   8    5.40    1.79
   5  -8  -8    1.24    1.70
  -5   8   8    1.36    0.95
   5   8  -8    1.00    1.41
   5   8  -8   -0.61    1.02
   4  -8  -8    1.59    1.04
  -4  -8   8    1.97    1.61
   4  -8  -8    0.95    1.53
   4   8  -8    0.47    1.60
  -3  -8   8   27.94    2.96
   3   8  -8   26.26    2.67
  -3   8   8   30.16    2.32
   3   8  -8   26.31    2.43
   2  -8  -8    0.41    1.29
  -2  -8   8    3.61    1.47
  -2   8   8    0.41    1.05
   2   8  -8    0.63    1.00
  -2   8   8    1.72    0.64
   2   8  -8   -0.29    0.83
   1  -8  -8   42.49    4.17
  -1  -8   8   48.71    4.15
   1   8  -8   50.61    3.73
  -1   8   8   49.44    3.89
   1   8  -8   49.99    3.76
   0  -8  -8    0.72    1.48
   0   8   8    1.42    1.08
   0   8  -8    0.22    0.92
   1  -8   8   57.56    5.47
  -1  -8  -8   66.74    5.71
   1  -8   8   73.58    5.54
   1   8   8   70.13    5.19
  -1   8  -8   67.69    4.98
   2  -8   8    4.62    1.78
   2  -8   8    3.19    1.95
  -2  -8  -8    1.77    1.95
   2   8   8    0.57    1.17
  -2   8  -8    0.40    0.87
  -3  -8  -8   19.19    3.39
   3  -8   8   24.10    3.16
   3  -8   8   25.55    3.23
   3   8   8   26.85    2.61
  -3   8  -8   23.41    2.20
   4  -8   8    3.27    1.89
  -4  -8  -8    3.92    2.30
   4  -8   8    5.43    2.34
  -4   8  -8    1.53    0.99
   4   8   8    0.24    1.40
   5  -8   8    8.56    2.35
  -5  -8  -8   -1.18    2.18
  -5   8  -8    4.00    0.96
   5   8   8    2.17    1.52
   6  -8   8    3.02    2.21
   6   8   8    1.45    1.34
  -7   9   8   31.32    2.64
   6  -9  -8   10.53    2.10
   6   9  -8    9.61    1.75
  -6   9   8   14.58    1.83
   5  -9  -8   28.01    3.42
  -5  -9   8   35.12    3.16
  -5   9   8   28.93    2.64
   5   9  -8   23.10    2.74
   4  -9  -8   16.57    3.06
  -4  -9   8   24.89    2.79
   4  -9  -8   24.97    2.82
   4   9  -8   20.01    2.05
  -4   9   8   18.91    2.03
   3  -9  -8   21.96    2.63
  -3  -9   8   28.00    2.98
   3   9  -8   19.70    2.33
   3   9  -8   27.43    2.40
   2  -9  -8    4.61    1.55
  -2  -9   8    8.56    1.98
   2   9  -8    3.15    1.12
  -2   9   8    3.88    1.36
   2   9  -8    4.16    1.19
   1  -9  -8   13.23    2.55
   1   9  -8   11.74    1.70
  -1   9   8   11.98    1.94
   1   9  -8   14.12    1.72
   0  -9  -8    2.65    1.67
   0   9   8    0.70    1.24
   0   9  -8    2.16    1.21
  -1  -9  -8    5.44    1.92
   1  -9   8    7.71    1.90
   1   9   8    5.04    1.44
  -1   9  -8    8.06    1.33
   2  -9   8    9.84    2.35
  -2  -9  -8    7.17    2.17
  -2   9  -8   10.37    1.50
   2   9   8    7.89    1.72
  -3   9  -8   16.73    1.76
   3   9   8   16.24    2.21
   4   9   8    9.15    1.98
   2 -10  -8   29.89    3.17
   2  10  -8   21.62    2.29
   1 -10  -8    6.03    1.62
   0  10  -8   44.16    3.67
  13   0  -9   29.30    3.69
  13   0  -9   31.70    2.83
 -13   0   9   30.91    2.88
 -12   0   9    1.75    1.10
  12   0  -9    1.17    1.77
  12   0  -9   -0.77    1.18
  11   0  -9   87.26    6.35
 -11   0   9   74.84    5.90
  11   0  -9   78.91    5.86
 -10   0   9    0.48    0.67
  10   0  -9    0.24    1.36
  10   0  -9    0.19    0.80
   9   0  -9  197.28   12.94
  -9   0   9  173.79   12.73
   9   0  -9  170.33   12.70
   8   0  -9    0.03    0.59
  -8   0   9   -0.57    0.46
   8   0  -9    0.72    1.14
   7   0  -9   22.49    3.40
  -7   0   9   22.26    1.73
   7   0  -9   19.97    1.73
   6   0  -9   -0.54    0.51
   6   0  -9   -0.61    0.92
  -6   0   9   -0.30    0.36
   5   0  -9    2.00    0.56
  -5   0   9    0.54    0.36
   5   0  -9    0.94    0.87
   4   0  -9   -0.06    0.69
  -4   0   9    0.51    0.31
   4   0  -9    0.00    0.47
  -3   0   9  121.37    7.69
  -3   0   9   95.63    7.41
   3   0  -9   99.36    7.40
  -2   0   9   -0.33    0.64
   2   0  -9   -0.14    0.35
  -2   0   9    0.25    0.26
  -1   0   9  136.84    9.94
  -1   0   9  155.54   10.20
   1   0  -9  132.85    9.91
   0   0  -9    0.45    0.37
   0   0   9    0.00    0.64
  -1   0  -9  266.55   18.60
  -1   0  -9  267.28   18.65
  -2   0  -9    0.10    0.50
   2   0   9   -0.28    0.60
  -2   0  -9    0.74    0.35
   3   0   9  123.35    8.27
  -3   0  -9  113.95    8.05
   3   0   9  104.58    8.02
  -3   0  -9  114.08    7.97
   4   0   9   -0.29    0.56
   4   0   9    0.53    0.73
  -4   0  -9    0.32    0.61
  -4   0  -9   -0.10    0.34
   5   0   9    5.57    0.97
   5   0   9    6.69    1.13
  -5   0  -9    5.35    0.88
  -5   0  -9    5.04    0.61
  -6   0  -9   -0.52    0.90
  -6   0  -9    0.60    0.42
   6   0   9   -0.84    0.83
   7   0   9    2.74    1.08
   7   0   9    5.67    1.43
  -7   0  -9    1.90    1.26
   8   0   9   -0.11    1.13
  -8   0  -9    1.15    1.36
   8   0   9    0.50    1.65
  -9   0  -9   48.28    4.64
   9   0   9   63.25    4.99
  10   0   9    0.65    1.99
  11   0   9   39.61    3.87
  14  -1  -9    6.49    1.98
  14  -1  -9    7.05    1.44
  14   1  -9    4.76    2.18
  13  -1  -9   34.65    3.76
 -13  -1   9   32.82    2.93
  13   1  -9   27.37    3.84
  13   1  -9   27.53    2.66
 -13   1   9   31.00    2.92
  12  -1  -9    6.21    1.93
  12  -1  -9    7.87    1.43
 -12  -1   9    7.49    1.31
  12   1  -9    7.05    2.01
 -12   1   9    6.40    1.35
  12   1  -9    3.12    1.60
 -11  -1   9    0.37    0.85
  11  -1  -9    1.15    1.01
  11  -1  -9   -0.05    1.78
  11   1  -9    0.30    1.02
 -11   1   9    0.30    0.87
  11   1  -9   -0.41    1.59
  10  -1  -9    1.40    0.83
 -10  -1   9    0.08    0.75
  10  -1  -9    1.98    1.59
  10   1  -9   -0.67    1.38
 -10   1   9   -0.33    0.73
  10   1  -9    0.89    0.94
   9  -1  -9   11.09    1.23
  -9  -1   9   11.45    1.21
   9   1  -9   10.00    1.90
  -9   1   9   11.42    1.25
   9   1  -9   10.13    1.30
  -8  -1   9   38.43    3.15
   8  -1  -9   36.28    3.15
   8  -1  -9   50.05    3.66
  -8   1   9   42.34    3.19
   8   1  -9   45.00    3.22
   8   1  -9   45.42    3.57
   7  -1  -9   95.32    7.60
  -7  -1   9  105.76    7.63
   7  -1  -9  116.60    7.89
  -7   1   9  113.46    7.65
   7   1  -9  106.36    7.64
  -6  -1   9   36.31    2.70
   6  -1  -9   34.58    2.70
   6  -1  -9   32.19    3.02
   6   1  -9   37.27    2.75
   6   1  -9   37.49    2.93
  -6   1   9   38.67    2.71
   5  -1  -9  105.79    8.09
  -5  -1   9  118.64    8.12
  -5   1   9  119.61    8.13
   5   1  -9  112.94    8.17
   5   1  -9  117.41    8.13
   4  -1  -9   36.72    3.30
  -4  -1   9   47.07    3.15
   4   1  -9   45.33    3.24
  -3  -1   9   41.92    3.74
  -3  -1   9   49.75    3.52
   3  -1  -9   50.30    3.52
   3   1  -9   51.48    3.55
  -3   1   9   50.91    3.54
  -2  -1   9   23.29    1.75
   2  -1  -9   22.86    1.75
   2   1  -9   22.58    1.77
  -2   1   9   24.67    1.78
  -1  -1   9   94.12    6.62
   1  -1  -9   87.77    6.58
   1   1  -9   97.30    6.61
  -1   1   9   95.49    6.63
   0  -1  -9    3.25    0.47
   0  -1   9    2.28    0.91
   0   1   9    2.27    0.79
   0   1  -9    3.47    0.50
   1  -1   9   10.89    1.50
  -1  -1  -9   12.85    0.98
  -1  -1  -9   12.14    1.10
  -1   1  -9   12.05    1.10
  -1   1  -9   12.43    1.01
   2  -1   9    9.57    1.24
  -2  -1  -9    9.48    0.97
  -2  -1  -9    9.65    0.77
  -2   1  -9    9.74    1.38
  -2   1  -9    8.50    0.82
   2   1   9    9.85    0.88
   2   1   9    6.84    1.17
   3  -1   9   26.43    2.15
  -3  -1  -9   27.82    1.98
   3  -1   9   30.25    2.41
  -3  -1  -9   27.77    2.14
  -3   1  -9   27.76    2.11
   3   1   9   28.00    2.09
   3   1   9   23.05    2.33
  -3   1  -9   27.58    2.03
   4  -1   9   34.01    2.63
   4  -1   9   33.82    2.77
  -4  -1  -9   33.02    2.39
  -4  -1  -9   33.90    2.58
  -4   1  -9   32.68    2.50
   4   1   9   36.26    2.61
  -4   1  -9   33.01    2.55
   4   1   9   29.86    2.76
  -5  -1  -9   80.84    5.84
   5  -1   9   86.65    5.97
   5  -1   9   81.80    5.97
   5   1   9   75.04    5.98
  -5   1  -9   81.07    5.71
  -5   1  -9   78.73    5.82
   6  -1   9   15.57    1.74
  -6  -1  -9   15.14    1.76
   6   1   9   16.60    1.79
  -6   1  -9   15.33    1.74
  -6   1  -9   15.13    1.31
   6   1   9   18.75    1.79
   7  -1   9   35.12    3.36
  -7  -1  -9   26.55    2.79
   7  -1   9   29.54    2.71
  -7   1  -9   31.18    2.30
  -7   1  -9   29.62    2.81
   7   1   9   31.63    2.75
   7   1   9   32.91    2.89
   8  -1   9   10.58    1.99
   8  -1   9    7.96    1.44
  -8  -1  -9    7.57    1.79
   8   1   9   10.56    1.84
   8   1   9    8.16    1.63
  -9  -1  -9    8.91    1.93
   9  -1   9    9.76    2.38
   9   1   9   10.75    2.11
   9   1   9    9.25    1.60
  -9   1  -9   13.75    2.28
 -10  -1  -9   17.56    3.04
  11   1   9    3.90    1.99
  14  -2  -9   10.68    1.71
 -14   2   9   12.34    1.63
  14   2  -9   12.56    2.32
 -13  -2   9   13.59    1.78
  13  -2  -9    8.89    1.71
  13  -2  -9    9.63    2.56
  12  -2  -9   56.00    5.19
  12  -2  -9   55.58    4.00
 -12  -2   9   49.84    4.00
 -12   2   9   46.43    4.00
  12   2  -9   47.29    4.55
 -11  -2   9   13.00    1.60
  11  -2  -9   16.62    3.38
 -11   2   9   10.39    1.56
  11   2  -9   14.86    2.23
  11   2  -9    9.78    1.65
 -10  -2   9   95.99    7.44
  10  -2  -9  112.68    7.99
  10   2  -9  105.71    7.51
  10   2  -9   99.70    7.80
 -10   2   9  104.53    7.46
  -9  -2   9   20.88    1.84
   9   2  -9   23.16    2.01
  -9   2   9   20.82    1.84
   9   2  -9   19.81    2.41
  -8  -2   9   78.78    5.84
   8  -2  -9   79.37    6.21
  -8   2   9   90.73    5.89
   8   2  -9   76.53    6.08
  -7  -2   9    3.25    0.60
   7  -2  -9    2.90    1.25
  -7   2   9    4.02    0.72
   7   2  -9    4.67    0.97
   7   2  -9    4.01    1.08
   6  -2  -9    1.31    1.70
  -6  -2   9    1.25    0.43
  -6   2   9    1.20    0.48
   6   2  -9    1.94    0.77
   6   2  -9    1.26    0.69
  -5  -2   9   -0.27    0.31
   5  -2  -9   -0.04    0.78
   5   2  -9   -0.22    0.63
  -5   2   9    0.13    0.39
   5   2  -9    0.72    0.49
  -4  -2   9   35.01    2.64
  -4  -2   9   35.23    2.79
   4  -2  -9   32.56    2.69
   4  -2  -9   34.48    2.61
   4   2  -9   37.80    2.68
  -4   2   9   37.73    2.64
  -3  -2   9   10.72    0.87
  -3  -2   9   10.50    1.19
   3  -2  -9   10.00    0.93
   3  -2  -9    9.01    1.04
  -3   2   9    9.54    0.91
   3   2  -9   10.80    0.99
  -2  -2   9   75.12    5.25
  -2  -2   9   72.53    5.47
   2  -2  -9   75.75    5.24
  -2   2   9   76.77    5.28
  -2   2   9   69.55    5.42
  -1  -2   9   12.80    1.60
   1  -2  -9   14.14    1.14
  -1  -2   9   15.44    1.16
  -1   2   9   13.11    1.53
  -1   2   9   14.98    1.16
  -1   2   9   13.96    1.18
   0  -2   9  178.51   13.80
   0  -2  -9  204.86   13.57
   0  -2  -9  198.64   13.50
   0   2   9  207.62   13.53
   0   2  -9  176.95   13.66
  -1  -2  -9   30.70    2.30
  -1  -2  -9   30.01    2.19
   1   2   9   32.61    2.26
  -1   2  -9   31.50    2.26
   1   2   9   25.41    2.54
  -1   2  -9   31.16    2.26
  -2  -2  -9  122.96    8.22
  -2  -2  -9  119.10    8.33
  -2   2  -9  118.36    8.28
   2   2   9  101.32    8.51
  -2   2  -9  122.32    8.30
   2   2   9  121.53    8.30
   3  -2   9    9.84    1.56
  -3  -2  -9   14.67    1.28
   3  -2   9   10.56    1.31
   3   2   9   14.06    1.21
  -3   2  -9   13.86    1.22
   3   2   9   12.25    1.52
  -3   2  -9   14.12    1.10
   4  -2   9   11.50    1.55
   4  -2   9   10.80    1.44
  -4  -2  -9   13.20    1.30
  -4   2  -9   13.50    1.24
  -4   2  -9   12.68    1.09
   4   2   9   12.52    1.49
  -5  -2  -9    0.12    0.76
   5  -2   9    0.71    0.81
   5  -2   9    0.92    1.02
   5   2   9    0.96    0.77
  -5   2  -9    0.61    0.76
  -5   2  -9    1.61    0.47
   5   2   9    0.84    0.89
   6  -2   9   10.62    1.68
   6  -2   9    8.82    1.46
  -6  -2  -9    8.70    1.47
  -6   2  -9   10.06    1.51
   6   2   9    8.66    1.41
   6   2   9    8.35    1.45
  -6   2  -9    8.67    0.93
   7  -2   9    1.17    1.03
  -7  -2  -9    0.84    1.73
   7   2   9    1.17    1.00
  -7   2  -9   -0.18    1.21
  -7   2  -9    1.49    0.54
   8  -2   9   20.25    2.20
  -8  -2  -9   15.51    2.46
   8  -2   9   22.63    3.04
  -8   2  -9   19.00    2.51
   8   2   9   20.86    2.57
  -8   2  -9   20.93    1.68
   9  -2   9    6.57    2.12
  -9  -2  -9    7.15    1.82
   9   2   9    8.64    2.07
   9   2   9    6.80    1.49
  10  -2   9   32.15    3.49
 -10  -2  -9   35.71    3.45
  10   2   9   23.68    3.57
  11   2   9    3.57    1.85
 -14   3   9   18.23    2.54
  13  -3  -9    3.07    2.48
 -13   3   9    2.68    0.98
  13   3  -9    1.78    2.11
  12  -3  -9   19.78    3.14
 -12  -3   9   15.13    1.95
  12   3  -9   17.40    3.14
  11  -3  -9    0.84    2.25
 -11  -3   9    2.04    0.92
  11   3  -9   -1.15    1.37
 -11   3   9    1.05    0.87
 -11   3   9    0.67    0.83
  11   3  -9    4.10    1.84
  10  -3  -9   -2.13    2.10
  10   3  -9    2.70    1.58
 -10   3   9    0.76    0.75
  10   3  -9   -0.29    1.36
 -10   3   9    3.13    1.11
  -9  -3   9    1.27    0.62
   9  -3  -9    0.74    1.84
   9   3  -9    0.58    1.21
   9   3  -9    0.96    1.29
  -9   3   9    2.22    0.67
  -9   3   9    1.44    0.62
  -8  -3   9  102.63    7.52
   8  -3  -9   99.62    7.96
   8   3  -9  110.66    7.74
   8   3  -9  106.82    7.66
  -8   3   9  108.34    7.52
   7  -3  -9    5.05    1.34
  -7  -3   9    4.64    0.71
  -7   3   9    4.25    0.68
   7   3  -9    5.57    0.99
  -6  -3   9  104.12    7.57
   6  -3  -9  113.03    7.78
  -6   3   9  101.55    7.56
   6   3  -9  108.61    7.66
   6   3  -9  107.36    7.63
   5  -3  -9    4.51    0.92
  -5  -3   9    4.17    0.62
  -5   3   9    5.02    0.64
   5   3  -9    5.36    0.68
   5   3  -9    5.19    0.88
  -4  -3   9  136.23    9.52
   4  -3  -9  126.74    9.41
   4   3  -9  127.01    9.32
   4   3  -9  139.59    9.41
  -4   3   9  135.05    9.34
  -3  -3   9    2.24    0.38
  -3  -3   9    1.89    0.74
   3  -3  -9    2.77    0.69
  -3   3   9    2.99    0.77
   3   3  -9    1.62    0.63
   2  -3  -9   63.34    4.43
  -2  -3   9   65.34    4.66
  -2  -3   9   61.43    4.43
  -2   3   9   65.63    4.62
  -2   3   9   54.57    4.52
   2   3  -9   63.05    4.48
  -1  -3   9    3.71    0.50
  -1  -3   9    3.19    0.80
   1  -3  -9    3.48    0.51
  -1   3   9    3.16    0.61
  -1   3   9    3.65    0.89
   1   3  -9    3.50    0.58
   0  -3  -9    7.64    0.87
   0  -3  -9    6.88    0.67
   0  -3   9    5.34    1.15
   0   3   9    7.52    0.80
   0   3   9    7.17    1.14
   0   3  -9    6.18    0.79
  -1  -3  -9    0.58    0.33
   1  -3   9    0.07    0.82
  -1  -3  -9    1.02    0.56
  -1   3  -9    0.51    0.45
  -1   3  -9    0.90    0.45
   1   3   9    0.39    0.72
   2  -3   9   24.77    2.54
  -2  -3  -9   29.42    2.22
  -2   3  -9   28.94    2.13
   2   3   9   27.67    2.44
  -2   3  -9   29.13    2.13
  -3  -3  -9    1.57    0.69
   3  -3   9    0.93    0.96
   3  -3   9    1.07    0.89
  -3   3  -9    1.40    0.50
   3   3   9    1.67    0.63
   3   3   9    2.02    0.79
  -4  -3  -9   92.59    6.66
  -4   3  -9   92.16    6.57
   4   3   9   95.63    6.67
   4   3   9   90.02    6.83
   5  -3   9    3.50    1.17
   5  -3   9    4.07    1.23
  -5  -3  -9    3.28    1.01
   5   3   9    4.93    0.94
   5   3   9    4.49    1.10
  -5   3  -9    5.08    0.74
  -6  -3  -9   48.50    3.82
   6  -3   9   41.72    4.08
   6  -3   9   49.48    3.92
   6   3   9   50.99    3.77
  -6   3  -9   46.67    3.49
   6   3   9   48.27    3.86
  -7  -3  -9    1.32    1.30
   7  -3   9    1.93    1.16
   7   3   9    0.71    1.19
   7   3   9    0.53    1.10
  -7   3  -9    2.29    0.66
  -7   3  -9    2.71    1.29
   8  -3   9   26.95    2.54
   8  -3   9   19.48    3.09
  -8  -3  -9   22.35    2.81
   8   3   9   27.80    2.78
   8   3   9   23.19    2.51
  -8   3  -9   31.43    2.82
  -8   3  -9   26.74    2.08
  -9  -3  -9    1.65    1.74
   9  -3   9    5.57    1.91
   9   3   9    2.05    1.70
  13  -4  -9   23.53    4.07
 -13   4   9   15.38    2.03
  13   4  -9   13.80    2.74
 -12  -4   9   25.96    2.27
 -12   4   9   20.21    2.07
  12   4  -9   20.59    3.20
 -12   4   9   20.03    2.17
 -11  -4   9   27.61    2.49
  11  -4  -9   33.62    4.43
 -11   4   9   26.54    2.35
 -11   4   9   27.45    2.51
  11   4  -9   26.94    3.27
 -10  -4   9   42.40    3.44
  10  -4  -9   47.99    4.96
  10   4  -9   47.17    3.98
 -10   4   9   44.50    3.49
 -10   4   9   41.77    3.37
  -9  -4   9   56.44    4.20
   9  -4  -9   51.23    5.27
  -9   4   9   61.72    4.24
   9   4  -9   58.12    4.51
  -9   4   9   50.25    4.42
  -8  -4   9   36.47    2.76
  -8   4   9   39.30    2.86
  -8   4   9   34.96    2.76
   8   4  -9   32.59    3.14
   8   4  -9   37.01    3.02
  -7  -4   9    5.82    0.82
   7  -4  -9    6.88    1.40
  -7   4   9    8.36    0.94
   7   4  -9    6.86    1.29
   7   4  -9    6.04    1.05
  -7   4   9    5.00    0.80
  -6  -4   9    0.91    0.90
   6  -4  -9    1.29    0.78
  -6  -4   9    0.52    0.42
   6   4  -9    0.57    0.54
   6   4  -9   -1.06    0.62
  -6   4   9    0.93    0.54
  -6   4   9    0.94    0.44
   5  -4  -9   -0.29    0.70
  -5  -4   9    0.24    0.35
  -5  -4   9   -0.01    0.72
  -5   4   9    0.56    0.42
   5   4  -9    0.67    0.76
   5   4  -9    0.53    0.48
  -5   4   9   -0.30    0.43
  -4  -4   9   12.47    1.51
   4  -4  -9   13.56    1.41
   4   4  -9   12.89    1.12
  -4   4   9   12.59    1.17
  -4   4   9   13.10    1.12
   4   4  -9   13.53    1.32
  -3  -4   9   26.37    2.42
  -3  -4   9   27.85    2.13
   3   4  -9   29.82    2.17
  -3   4   9   31.65    2.18
   3   4  -9   29.06    2.25
  -3   4   9   28.65    2.20
  -3   4   9   29.13    2.38
  -2  -4   9   31.41    2.68
  -2  -4   9   32.46    2.39
  -2   4   9   32.80    2.54
   2   4  -9   31.66    2.49
  -2   4   9   34.32    2.64
   2   4  -9   33.88    2.42
   1  -4  -9   45.76    3.42
  -1  -4   9   48.25    3.35
   1  -4  -9   48.16    3.35
  -1  -4   9   43.56    3.60
   1   4  -9   46.60    3.42
  -1   4   9   48.05    3.60
  -1   4   9   45.55    3.52
   0  -4  -9   83.51    5.81
   0  -4   9   81.18    5.90
   0  -4   9   80.32    6.11
   0  -4  -9   83.25    5.90
   0   4   9   83.76    6.08
   0   4  -9   79.70    5.87
   0   4  -9   83.48    5.82
   0   4   9   84.94    5.93
   1  -4   9   80.65    6.19
   1  -4   9   93.03    5.99
  -1  -4  -9   79.28    5.80
  -1  -4  -9   84.18    5.93
   1   4   9   83.07    5.95
   1   4   9   80.33    6.12
  -1   4  -9   82.41    5.85
  -1   4  -9   79.02    5.89
  -2  -4  -9   50.51    3.73
   2  -4   9   48.99    4.04
   2  -4   9   50.42    3.87
  -2   4  -9   49.45    3.65
  -2   4  -9   49.93    3.62
   2   4   9   49.52    3.93
   2   4   9   52.99    3.74
   3  -4   9   31.62    3.21
  -3  -4  -9   38.65    2.89
   3   4   9   37.30    3.11
   3   4   9   38.66    2.89
  -3   4  -9   37.94    2.77
  -3   4  -9   37.83    2.77
  -4  -4  -9    7.06    1.09
   4  -4   9    3.69    1.40
   4  -4   9    3.43    1.27
  -4   4  -9    6.84    0.87
   4   4   9    6.09    1.02
  -4   4  -9    5.26    0.90
   4   4   9    6.40    1.33
   5  -4   9    1.47    1.38
  -5  -4  -9    1.00    0.97
   5  -4   9    1.29    1.33
   5   4   9    1.69    0.91
  -5   4  -9    0.84    0.82
   5   4   9    1.46    1.03
  -5   4  -9    2.26    0.65
   6  -4   9    4.27    1.43
  -6   4  -9    3.95    0.88
  -6   4  -9    6.06    0.90
   6   4   9    3.78    1.21
   6   4   9    4.23    1.20
  -7  -4  -9    1.64    1.54
   7  -4   9    1.53    1.36
   7   4   9    0.81    1.05
  -7   4  -9    1.53    0.96
  -8  -4  -9    8.79    2.02
   8  -4   9   11.39    1.91
  -8   4  -9    9.73    1.23
   8   4   9    8.49    1.59
  -9  -4  -9   25.16    2.84
   9   4   9   15.85    2.32
  -9   4  -9   20.72    1.91
  10   4   9    7.36    1.73
  12  -5  -9   -1.54    3.19
 -12   5   9    1.76    0.90
  12   5  -9   -1.34    1.98
  11  -5  -9    1.09    3.02
 -11  -5   9    3.16    1.05
 -11   5   9    1.15    0.96
  11   5  -9    0.55    1.84
  10  -5  -9   -0.23    2.55
 -10  -5   9   -0.26    0.83
  10   5  -9   -1.21    1.52
 -10   5   9    0.70    0.86
   9  -5  -9   16.60    2.84
  -9  -5   9   11.26    1.41
  -9   5   9   15.25    1.44
   9   5  -9   13.66    2.06
  -8  -5   9    3.80    0.73
   8  -5  -9    4.60    1.72
   8   5  -9    2.27    1.51
   8   5  -9    3.99    1.07
  -7  -5   9   86.55    6.28
   7  -5  -9   77.16    6.34
  -7  -5   9   80.62    5.97
  -7   5   9   84.29    5.99
   7   5  -9   85.79    6.19
   7   5  -9   86.25    6.11
   6  -5  -9    2.92    0.99
  -6  -5   9    2.34    0.54
   6   5  -9    4.39    1.14
  -6   5   9    2.54    0.64
   6   5  -9    3.23    0.71
   5  -5  -9   84.19    6.61
  -5  -5   9   82.88    6.62
  -5  -5   9   97.10    6.43
  -5   5   9   90.85    6.43
   5   5  -9   96.74    6.50
   4  -5  -9    3.47    0.88
  -4  -5   9    3.23    0.62
   4  -5  -9    2.94    0.94
   4   5  -9    4.33    0.82
   4   5  -9    3.66    0.65
  -3  -5   9   38.64    3.35
   3  -5  -9   41.46    3.47
  -3  -5   9   43.61    3.07
  -3   5   9   42.30    3.23
  -3   5   9   45.42    3.12
   3   5  -9   43.26    3.21
  -2  -5   9    2.46    0.42
  -2  -5   9    1.81    0.82
   2  -5  -9    1.91    0.54
   2   5  -9    1.91    0.54
  -2   5   9    2.02    0.69
   2   5  -9    2.45    0.66
  -1  -5   9   52.98    4.38
   1  -5  -9   58.49    4.18
   1   5  -9   62.42    4.17
  -1   5   9   56.17    4.23
   1   5  -9   56.46    4.17
   0  -5  -9    0.13    0.39
   0  -5  -9   -0.01    0.61
   0  -5   9    0.64    0.70
   0   5   9    0.76    0.66
   0   5   9   -0.61    0.67
   0   5  -9    0.54    0.51
   1  -5   9    8.69    1.68
   1  -5   9   10.21    1.48
  -1  -5  -9   10.76    1.17
   1   5   9    9.70    1.18
   1   5   9    9.62    1.40
  -1   5  -9    9.45    1.00
  -2  -5  -9    0.85    0.76
   2  -5   9    0.68    1.00
  -2   5  -9    1.56    0.63
   2   5   9    1.38    0.70
   2   5   9    1.67    0.92
   3  -5   9   27.88    2.92
  -3  -5  -9   28.03    2.39
   3  -5   9   27.28    2.83
  -3   5  -9   29.04    2.23
   3   5   9   29.18    2.38
   3   5   9   28.15    2.60
   4  -5   9    1.55    1.30
   4  -5   9    1.75    1.52
  -4  -5  -9    3.15    1.07
  -4   5  -9    3.24    0.75
   4   5   9    2.14    1.07
   4   5   9    3.20    1.15
   5  -5   9   55.24    5.38
   5  -5   9   55.00    5.53
  -5  -5  -9   75.50    5.13
  -5   5  -9   74.92    4.91
   5   5   9   69.52    5.91
   6  -5   9    2.98    2.82
  -6  -5  -9    2.12    1.57
  -6   5  -9    3.98    0.83
   6   5   9    1.73    1.10
   6   5   9    1.16    1.87
   7  -5   9   24.58    3.94
   7  -5   9   25.91    2.98
  -7  -5  -9   30.94    3.05
  -7   5  -9   29.24    2.22
   7   5   9   22.05    2.71
  -8  -5  -9    2.13    1.76
   8   5   9    0.30    1.60
  -8   5  -9    2.62    0.89
  -9   5  -9   17.25    1.82
 -11  -6   9   38.75    2.92
  11  -6  -9   40.84    5.18
 -11   6   9   31.53    2.80
  11   6  -9   30.82    3.71
 -10  -6   9   16.65    1.68
 -10   6   9   13.01    1.66
  -9  -6   9   69.69    4.97
   9  -6  -9   64.14    6.06
   9   6  -9   66.76    5.32
  -9   6   9   68.53    5.02
  -8  -6   9    8.76    1.16
   8  -6  -9   10.52    2.09
  -8   6   9    7.15    1.21
   8   6  -9    6.62    1.36
  -7  -6   9   13.74    1.23
   7  -6  -9   15.03    2.80
  -7  -6   9   12.98    2.25
   7   6  -9   14.86    1.83
  -7   6   9    9.26    1.30
   7   6  -9    9.27    1.53
  -6  -6   9    0.29    0.50
   6  -6  -9    0.36    1.11
  -6   6   9    1.07    0.70
   6   6  -9   -0.09    0.69
  -6   6   9   -0.15    0.47
   6   6  -9    0.39    1.14
   5  -6  -9    0.07    1.09
  -5  -6   9    0.98    1.12
  -5  -6   9    0.90    0.42
  -5   6   9    0.84    0.52
  -5   6   9    1.48    0.65
   5   6  -9    1.98    1.00
   5   6  -9    0.70    0.62
   4  -6  -9    5.77    1.23
   4  -6  -9    3.59    1.12
  -4  -6   9    7.98    1.52
   4   6  -9    5.47    1.08
  -4   6   9    5.00    0.78
   4   6  -9    4.21    0.79
   3  -6  -9   27.76    2.74
  -3  -6   9   28.71    2.72
   3  -6  -9   29.35    2.33
  -3   6   9   32.66    2.32
   3   6  -9   31.17    2.44
  -3   6   9   29.69    2.49
   3   6  -9   32.54    2.39
   2  -6  -9    5.52    0.81
   2  -6  -9    6.36    1.38
  -2  -6   9    6.49    1.22
   2   6  -9    5.85    0.97
   2   6  -9    4.91    0.85
  -2   6   9    5.42    1.07
   1  -6  -9   52.41    4.52
  -1  -6   9   53.54    4.31
   1  -6  -9   52.36    3.99
  -1   6   9   53.50    4.10
   1   6  -9   52.90    4.01
   1   6  -9   55.84    4.01
  -1   6   9   59.85    3.94
   0  -6  -9   16.25    1.58
   0  -6  -9   14.41    2.45
   0  -6   9   18.98    2.02
   0   6   9   15.35    1.63
   0   6  -9   17.22    1.50
   1  -6   9   86.66    6.66
  -1  -6  -9   96.91    6.60
   1  -6   9   94.89    6.91
  -1   6  -9   96.35    6.56
   1   6   9   83.04    6.63
   2  -6   9    9.80    1.99
  -2  -6  -9    7.51    1.32
   2   6   9    7.64    1.34
  -2   6  -9    8.62    1.08
   3  -6   9   46.21    4.05
  -3  -6  -9   44.56    3.53
   3  -6   9   43.04    3.86
   3   6   9   45.03    3.54
  -3   6  -9   41.40    3.74
  -4  -6  -9    0.79    1.25
   4  -6   9    0.81    1.70
   4   6   9    1.98    1.11
  -4   6  -9    1.26    0.71
  -5  -6  -9    2.14    1.49
   5  -6   9    0.25    1.72
   5   6   9    1.90    1.21
  -5   6  -9    1.82    0.81
  -6  -6  -9   -0.64    1.67
   6  -6   9    0.94    1.80
   6   6   9    2.02    1.37
  -6   6  -9    2.01    0.85
   7  -6   9   -0.51    1.94
  -7  -6  -9    2.40    2.41
  -7  -6  -9    3.25    1.92
  -7   6  -9    4.46    0.96
   7   6   9    2.28    1.55
  10  -7  -9    2.67    2.66
 -10   7   9    3.43    0.94
  10   7  -9    2.50    1.83
   9  -7  -9    3.08    2.35
  -9   7   9    5.06    1.16
  -8  -7   9   45.19    3.98
   8  -7  -9   40.08    4.30
  -8   7   9   38.78    3.22
   8   7  -9   38.03    3.51
   7  -7  -9   25.34    2.92
  -7   7   9   18.50    1.93
   7   7  -9   17.63    2.10
   6  -7  -9   35.04    3.43
  -6  -7   9   37.81    3.44
   6   7  -9   33.47    2.93
   6   7  -9   34.46    3.07
  -6   7   9   38.76    2.88
   5  -7  -9   17.61    1.93
  -5  -7   9   26.13    2.81
   5  -7  -9   18.26    2.73
   5   7  -9   20.91    1.92
   5   7  -9   21.63    2.10
   4  -7  -9   40.71    3.49
   4  -7  -9   42.40    3.67
  -4   7   9   45.05    3.21
   4   7  -9   45.38    3.28
   4   7  -9   36.08    3.24
   3  -7  -9    8.89    1.78
   3   7  -9    8.16    1.19
  -3   7   9   10.07    1.18
  -3   7   9    7.53    1.41
   3   7  -9   11.01    1.34
   2  -7  -9   14.26    2.23
  -2  -7   9   15.95    2.90
   2   7  -9   14.48    1.62
   2   7  -9   16.73    1.59
  -2   7   9   16.00    1.79
  -2   7   9   18.99    1.49
   1  -7  -9   10.24    1.86
   1   7  -9   10.60    1.26
  -1   7   9    9.41    1.47
   1   7  -9   10.89    1.29
   0  -7   9    2.26    1.59
   0  -7  -9    2.93    1.63
   0   7  -9    2.32    1.39
   0   7   9    3.34    1.03
   1  -7   9    1.51    1.48
  -1  -7  -9    1.97    1.80
   1  -7   9    2.98    1.46
  -1  -7  -9    0.68    0.97
  -1   7  -9    2.94    0.93
   1   7   9    2.96    1.15
  -2  -7  -9   11.66    1.58
   2  -7   9   14.87    2.79
  -2  -7  -9    9.82    2.44
   2  -7   9   11.67    2.26
  -2   7  -9   11.01    1.39
  -3  -7  -9    4.64    2.29
  -3  -7  -9    5.93    1.55
   3  -7   9   12.86    2.64
   3   7   9    6.69    1.46
  -3   7  -9    8.09    1.20
  -4  -7  -9   28.83    4.18
  -4  -7  -9   31.74    3.30
   4  -7   9   39.67    4.09
   4   7   9   36.80    3.17
  -4   7  -9   33.65    2.79
  -5  -7  -9   10.37    2.89
  -5  -7  -9   18.03    2.60
   5  -7   9   17.94    3.16
   5   7   9   15.56    2.30
  -5   7  -9   16.00    1.76
  -6  -7  -9   15.38    3.15
  -6  -7  -9   25.46    3.06
   6  -7   9   15.95    3.28
  -6   7  -9   21.53    1.91
   6   7   9   19.86    2.50
  -7   7  -9   11.07    1.43
   7   7   9    9.86    1.98
   9   8  -9    1.06    1.63
   8  -8  -9   36.30    4.19
  -8   8   9   37.78    3.08
  -7  -8   9    6.06    2.06
   7  -8  -9    1.24    1.68
   7   8  -9   -0.06    1.24
  -7   8   9    2.29    1.09
   6  -8  -9    2.20    1.57
  -6  -8   9    5.90    1.93
   6   8  -9    0.43    1.12
   6   8  -9    1.85    1.00
  -6   8   9    0.55    1.11
   5  -8  -9    0.87    1.71
  -5  -8   9    3.97    1.70
   5   8  -9    3.13    1.22
   5   8  -9   -0.06    0.91
  -5   8   9    1.77    1.07
   4  -8  -9   16.80    2.26
  -4  -8   9   15.90    2.38
  -4   8   9   14.66    1.73
   4   8  -9   14.39    1.89
   4   8  -9   13.96    1.93
  -3  -8   9    3.22    1.55
   3  -8  -9    0.74    1.23
  -3   8   9    2.24    0.83
   3   8  -9    1.45    1.02
   3   8  -9    1.23    0.88
  -2  -8   9   31.35    3.05
   2  -8  -9   27.05    3.06
   2   8  -9   29.78    2.47
  -2   8   9   29.87    2.70
   2   8  -9   27.73    2.55
  -1  -8   9    3.53    1.50
   1  -8  -9    0.75    1.56
   1   8  -9    0.21    0.78
   1   8  -9    0.06    1.03
  -1   8   9    0.32    1.11
   0  -8   9   74.14    5.72
   0  -8  -9   63.61    5.79
   0   8  -9   70.42    5.22
   0   8   9   71.54    5.36
   1  -8   9    3.48    1.72
  -1  -8  -9    0.99    1.91
   1   8   9    1.02    1.11
  -1   8  -9    1.43    0.94
  -2  -8  -9   39.73    4.51
   2  -8   9   46.53    4.25
  -2   8  -9   45.87    3.52
   2   8   9   44.18    3.74
  -3  -8  -9    1.06    2.09
  -3   8  -9    0.42    1.02
   3   8   9    0.15    1.34
  -4  -8  -9    5.78    2.49
  -4   8  -9   10.62    1.44
   4   8   9    6.73    1.68
  -5  -8  -9   -0.83    1.85
   5  -8   9    2.62    2.27
  -5   8  -9    3.29    0.79
   5   8   9   -1.61    1.45
   6  -8   9    4.62    2.47
  -7   9   9   24.19    2.98
   6  -9  -9   25.70    2.96
  -6   9   9   16.88    2.14
   5  -9  -9   14.76    2.78
  -5   9   9   15.46    1.90
  -4  -9   9   36.50    3.16
   4  -9  -9   21.29    3.28
   4   9  -9   28.56    2.76
   3  -9  -9   10.09    2.04
   3   9  -9    8.25    1.60
   2  -9  -9    9.58    1.95
   2   9  -9   11.89    1.79
  -2   9   9    8.85    1.63
   1  -9  -9    4.83    1.76
   1   9  -9    7.78    1.30
  -1   9   9    6.26    1.44
   0  -9   9    5.58    1.84
   0  -9  -9    1.35    1.71
   0   9  -9    3.40    1.16
   0   9   9    1.43    1.37
  -1  -9  -9    1.56    1.89
  -1   9  -9    2.56    1.05
   1   9   9    2.33    1.35
  -2  -9  -9    8.78    2.29
   2   9   9    8.86    1.72
   3  -9   9   18.17    3.12
   3  10  -9   19.68    2.15
   2  10  -9   11.28    1.69
  14   0 -10    9.43    1.62
  14   0 -10   14.74    2.89
 -13   0  10    0.29    1.12
  13   0 -10   -0.95    1.32
  13   0 -10    0.50    1.95
  12   0 -10   48.11    4.28
 -12   0  10   41.76    3.64
  11   0 -10    2.60    1.59
  11   0 -10   -0.50    1.04
 -11   0  10    0.38    0.84
  10   0 -10  127.08    8.68
  10   0 -10  114.68    8.38
 -10   0  10  110.32    8.40
  -9   0  10    0.48    0.61
   9   0 -10   -1.05    0.74
   9   0 -10   -0.13    1.08
  -8   0  10   93.17    6.63
   8   0 -10   96.53    6.84
   8   0 -10   87.69    6.61
   7   0 -10   -0.34    0.56
  -7   0  10    0.00    0.38
   7   0 -10    0.14    2.17
   6   0 -10   13.80    1.61
   6   0 -10   11.70    1.17
  -6   0  10   12.63    1.13
   5   0 -10    0.24    0.83
   5   0 -10   -0.39    0.50
  -5   0  10    0.05    0.31
   4   0 -10   98.35    6.94
  -4   0  10   97.75    6.95
  -3   0  10    0.20    0.33
  -3   0  10    0.59    0.80
   3   0 -10   -0.56    0.78
  -1   0  10    0.27    0.75
   1   0 -10    0.34    0.39
   0   0 -10  247.32   19.12
   0   0  10  302.15   19.44
  -1   0 -10    0.54    0.37
  -1   0 -10    0.48    0.47
   1   0  10    0.27    0.66
  -2   0 -10  169.39   12.20
   2   0  10  187.89   12.52
  -2   0 -10  167.31   12.26
  -3   0 -10    0.59    0.59
   3   0  10    0.10    0.49
   3   0  10    0.21    0.69
  -3   0 -10    0.38    0.36
   4   0  10   20.68    1.82
  -4   0 -10   23.25    1.85
  -4   0 -10   22.49    1.66
   4   0  10   21.90    2.03
   5   0  10    0.04    0.86
  -5   0 -10    0.43    0.74
  -5   0 -10    0.24    0.43
   5   0  10    0.43    0.82
  -6   0 -10    4.11    1.10
   6   0  10    4.65    1.13
   6   0  10    3.39    1.13
  -7   0 -10    0.24    1.28
   7   0  10    0.75    1.13
   8   0  10   41.26    3.42
  -8   0 -10   31.00    3.36
  -9   0 -10    2.28    1.69
   9   0  10   -1.04    1.37
   9   0  10    3.78    1.56
 -10   0 -10   43.23    4.13
  14  -1 -10   17.21    2.02
  14  -1 -10   18.61    3.17
 -14   1  10   20.70    2.17
  14   1 -10   18.10    2.67
  13  -1 -10   10.51    1.62
 -13  -1  10   14.02    1.80
  13  -1 -10    9.91    2.32
 -13   1  10   10.70    1.74
  13   1 -10    9.69    1.67
  13   1 -10    7.84    2.28
  12  -1 -10    6.84    2.00
  12  -1 -10    7.06    1.39
 -12  -1  10    7.63    1.21
 -12   1  10    6.83    1.24
  12   1 -10    7.57    1.57
  12   1 -10    6.01    1.96
  11  -1 -10    0.19    0.93
 -11  -1  10    0.31    0.83
  11  -1 -10    3.03    1.85
  11   1 -10   -1.55    1.53
  11   1 -10    0.39    1.09
 -11   1  10    0.68    0.75
  10  -1 -10    1.33    0.83
  10  -1 -10    2.53    1.66
 -10  -1  10    1.01    0.70
  10   1 -10    1.35    1.37
  10   1 -10    0.91    0.99
 -10   1  10    0.91    0.71
  -9  -1  10    4.68    0.84
   9  -1 -10    5.65    0.90
   9  -1 -10    6.97    1.55
   9   1 -10    6.85    1.37
   9   1 -10    5.41    1.00
  -9   1  10    4.39    0.85
  -8  -1  10   74.95    5.65
   8  -1 -10   72.55    5.63
   8  -1 -10   80.67    5.92
  -8   1  10   81.44    5.67
   8   1 -10   76.90    5.67
   8   1 -10   84.71    5.90
   7  -1 -10   31.84    2.56
   7  -1 -10   32.13    3.00
  -7  -1  10   34.16    2.58
   7   1 -10   35.38    3.13
   7   1 -10   33.92    2.62
  -7   1  10   35.96    2.60
   6  -1 -10   81.85    6.56
  -6  -1  10   92.31    6.43
   6  -1 -10   87.78    6.41
  -6   1  10   96.00    6.45
   6   1 -10   91.87    6.51
   6   1 -10   90.85    6.45
  -5  -1  10   54.95    4.03
   5  -1 -10   52.04    4.02
  -5   1  10   57.84    4.05
   5   1 -10   56.84    4.06
   5   1 -10   57.24    4.07
   4  -1 -10  111.21    8.08
  -4  -1  10  114.19    8.09
   4   1 -10  116.54    8.11
  -4   1  10  116.61    8.11
   3   1 -10   13.51    1.13
  -3   1  10   13.07    1.07
  -3   1  10    9.81    1.51
   2  -1 -10   26.58    1.88
  -2  -1  10   26.35    1.88
  -2   1  10   27.52    1.91
  -2   1  10   19.32    2.19
   2   1 -10   22.75    1.95
  -1  -1  10   12.60    1.05
   1  -1 -10   12.05    1.03
   1   1 -10   11.60    1.32
  -1   1  10   14.01    1.08
  -1   1  10   10.43    1.49
   0  -1 -10   -0.11    0.48
   0  -1  10   -0.83    0.79
   0  -1 -10    0.02    0.35
   0   1  10   -0.41    0.84
   0   1 -10    0.68    0.47
  -1  -1 -10    3.42    0.47
   1  -1  10    2.65    0.88
  -1  -1 -10    2.59    0.56
   1   1  10    2.31    0.83
  -1   1 -10    2.47    0.62
  -1   1 -10    2.46    0.57
  -2  -1 -10    7.12    0.68
   2  -1  10    8.55    1.28
  -2  -1 -10    8.67    0.95
   2   1  10    7.47    0.81
  -2   1 -10    7.58    0.92
   2   1  10    5.49    1.23
  -2   1 -10    6.33    0.86
   3  -1  10   15.74    1.62
  -3  -1 -10   13.45    1.30
  -3  -1 -10   13.26    1.07
  -3   1 -10   12.89    1.14
  -3   1 -10   13.71    1.27
   3   1  10   13.99    1.23
   3   1  10   13.50    1.60
  -4  -1 -10  103.98    7.25
   4  -1  10  105.83    7.38
  -4  -1 -10  100.19    7.39
   4  -1  10  108.65    7.60
  -4   1 -10  101.46    7.29
   4   1  10   99.35    7.59
  -4   1 -10   99.34    7.37
   4   1  10  109.63    7.41
   5  -1  10   34.02    2.71
  -5  -1 -10   32.67    2.59
   5  -1  10   33.75    2.74
   5   1  10   29.51    2.77
  -5   1 -10   31.33    2.35
   5   1  10   33.51    2.63
  -5   1 -10   28.66    2.55
   6  -1  10   40.59    3.19
   6  -1  10   38.87    3.19
  -6  -1 -10   34.30    3.09
   6   1  10   38.53    3.23
  -6   1 -10   38.97    2.79
  -6   1 -10   35.83    3.09
   7  -1  10   20.68    3.26
   7  -1  10   16.61    2.01
  -7  -1 -10   15.03    2.21
  -7   1 -10   14.60    2.17
   7   1  10   18.90    2.19
   7   1  10   16.17    2.05
  -8  -1 -10   15.45    2.47
  -8   1 -10   18.92    2.51
   8   1  10   22.17    2.56
   8   1  10   18.05    2.22
  -9  -1 -10    3.64    1.87
   9  -1  10    5.28    1.84
   9  -1  10    2.64    1.38
   9   1  10    2.92    1.41
   9   1  10    2.92    1.75
  -9   1 -10    4.89    1.86
 -10  -1 -10   20.40    2.77
  14  -2 -10    0.83    1.19
  14   2 -10    1.02    2.03
 -13  -2  10   28.81    2.57
  13  -2 -10   29.64    2.68
  13  -2 -10   37.07    4.20
 -13   2  10   23.65    2.55
  13   2 -10   27.23    3.46
  12  -2 -10    8.00    1.38
 -12  -2  10    5.77    1.14
  12  -2 -10    9.39    2.48
  12   2 -10    5.79    1.50
 -12   2  10    5.95    1.20
  12   2 -10    5.59    1.91
  11  -2 -10   35.95    4.15
  11  -2 -10   35.22    2.85
 -11  -2  10   31.64    2.79
 -11   2  10   32.61    2.81
  11   2 -10   35.54    3.35
  11   2 -10   35.41    3.00
 -10  -2  10   14.55    1.66
  10  -2 -10   14.49    1.58
 -10   2  10   14.84    1.66
  10   2 -10   16.22    1.82
  10   2 -10   18.06    2.23
   9  -2 -10  116.94    8.38
   9  -2 -10  108.75    8.00
  -9  -2  10  107.15    8.00
   9   2 -10  110.45    8.21
  -9   2  10  117.18    8.04
   8  -2 -10   15.49    2.18
  -8  -2  10   12.16    1.20
   8  -2 -10   10.56    1.24
   8   2 -10   11.12    1.41
  -8   2  10   13.61    1.27
   8   2 -10   13.28    1.63
  -7  -2  10   28.79    2.25
   7  -2 -10   26.87    2.85
   7  -2 -10   27.87    2.26
  -7   2  10   33.24    2.33
   7   2 -10   29.10    2.40
   7   2 -10   30.42    2.61
   6  -2 -10    2.73    0.56
   6  -2 -10    1.81    1.83
  -6  -2  10    1.10    0.44
   6   2 -10    1.25    0.74
  -6   2  10    1.67    0.50
   6   2 -10    2.30    0.67
  -5  -2  10    7.72    0.81
   5  -2 -10    7.94    1.19
   5  -2 -10    8.16    0.90
   5   2 -10    8.16    0.88
  -5   2  10    7.99    0.88
   5   2 -10    9.55    1.07
   4  -2 -10    9.68    0.94
  -4  -2  10    9.02    1.44
  -4  -2  10    9.80    0.90
   4  -2 -10    9.35    1.17
  -4   2  10   10.99    0.97
   4   2 -10   10.90    1.07
   3  -2 -10   56.08    4.02
   3  -2 -10   47.96    4.03
  -3   2  10   58.82    4.24
  -3   2  10   59.96    4.06
   3   2 -10   57.30    4.05
  -2  -2  10   10.41    0.92
   2  -2 -10   11.03    0.95
  -2  -2  10    8.84    1.46
   2   2 -10   10.84    1.00
  -2   2  10   10.94    0.96
  -2   2  10    9.40    1.49
  -1  -2  10  101.54    8.48
  -1  -2  10  123.81    8.23
   1  -2 -10  120.16    8.19
   1   2 -10  116.70    8.23
  -1   2  10  120.64    8.26
   0  -2  10   22.13    2.42
   0  -2 -10   29.31    2.14
   0  -2 -10   27.70    2.03
   0   2 -10   27.77    2.08
   0   2  10   29.94    2.07
  -1  -2 -10  148.61   10.43
  -1  -2 -10  150.24   10.34
   1   2  10  149.04   10.39
  -1   2 -10  144.34   10.39
  -2  -2 -10   18.59    1.39
  -2  -2 -10   18.76    1.60
   2  -2  10   14.22    1.98
   2   2  10   15.40    1.91
  -2   2 -10   20.28    1.57
  -2   2 -10   19.50    1.49
   2   2  10   20.88    1.51
  -3  -2 -10   95.69    6.70
   3  -2  10   92.47    6.99
  -3   2 -10   92.57    6.62
   3   2  10   84.21    6.90
   3   2  10  100.73    6.68
  -3   2 -10   95.33    6.66
  -4  -2 -10    2.83    0.80
   4  -2  10    2.77    0.76
   4  -2  10    3.02    1.01
  -4   2 -10    2.76    0.74
   4   2  10    3.06    0.78
   4   2  10    2.54    0.99
  -4   2 -10    2.90    0.57
  -5  -2 -10   -0.56    0.84
   5  -2  10   -0.58    0.94
   5  -2  10    1.10    1.00
  -5   2 -10    0.89    0.50
  -5   2 -10   -0.35    0.76
   5   2  10    1.20    0.98
   6  -2  10    1.20    1.23
   6  -2  10    0.25    1.05
  -6  -2 -10    0.18    1.05
   6   2  10    0.34    0.99
  -6   2 -10    1.29    0.54
  -6   2 -10    0.69    1.04
   6   2  10   -0.18    1.02
  -7  -2 -10    6.05    1.46
   7  -2  10    7.03    1.58
   7  -2  10    4.85    1.39
  -7   2 -10    7.60    0.90
   7   2  10    6.36    1.44
   7   2  10    8.19    1.51
  -7   2 -10    6.51    1.54
   8  -2  10    2.43    1.69
  -8  -2 -10    4.49    1.63
   8   2  10    2.64    1.35
  -8   2 -10    4.16    1.74
   9  -2  10   29.60    3.21
  -9  -2 -10   23.91    3.09
   9   2  10   24.33    2.79
   9   2  10   30.35    3.07
 -10  -2 -10   18.53    2.61
 -13  -3  10   26.91    2.43
  13  -3 -10   28.56    4.31
  13  -3 -10   29.91    2.56
  13   3 -10   20.73    3.46
 -12  -3  10    1.89    0.96
  12  -3 -10    4.67    2.54
 -12   3  10    0.84    1.04
  12   3 -10    0.73    1.98
  11  -3 -10    0.32    2.31
 -11  -3  10    1.22    0.81
  11   3 -10   -0.88    1.43
  11   3 -10    2.31    1.85
 -11   3  10    1.70    0.97
  10  -3 -10   -3.03    2.08
 -10  -3  10    0.88    0.68
 -10   3  10    0.73    0.84
  10   3 -10    0.03    1.36
  10   3 -10   -0.11    1.44
  -9  -3  10   12.13    1.28
   9  -3 -10   14.40    2.31
   9   3 -10   11.46    1.88
  -9   3  10    9.92    1.22
  -9   3  10   10.55    1.38
   9   3 -10   11.61    1.75
   8  -3 -10    5.88    1.58
  -8  -3  10    2.13    0.62
  -8   3  10    2.87    0.74
  -8   3  10    4.19    0.74
   8   3 -10    4.20    1.02
   8   3 -10    0.30    0.85
   7  -3 -10   97.36    7.08
  -7  -3  10   91.78    6.77
   7   3 -10  100.72    6.90
  -7   3  10   92.84    6.81
  -7   3  10   89.71    6.75
   7   3 -10   97.95    6.86
   6  -3 -10    5.19    1.12
  -6  -3  10    3.68    0.66
   6   3 -10    4.90    0.98
  -6   3  10    4.82    0.80
   6   3 -10    4.07    0.73
  -6   3  10    5.11    0.67
   5  -3 -10  166.93   11.54
  -5  -3  10  156.44   11.45
  -5  -3  10  163.00   11.59
  -5   3  10  164.88   11.49
   5   3 -10  170.56   11.53
   5   3 -10  156.24   11.43
  -4  -3  10    3.97    0.90
  -4  -3  10    3.29    0.57
   4  -3 -10    3.22    0.76
  -4   3  10    3.58    0.64
   4   3 -10    4.89    0.83
  -3  -3  10   30.48    2.84
   3  -3 -10   31.30    2.72
  -3  -3  10   36.01    2.92
   3  -3 -10   38.30    2.65
  -3   3  10   40.85    2.90
  -3   3  10   36.09    2.68
   3   3 -10   37.87    2.72
  -2  -3  10    0.88    0.38
   2  -3 -10    0.83    0.47
  -2  -3  10    0.58    0.69
  -2   3  10    0.65    0.46
  -2   3  10    1.67    0.84
   2   3 -10    1.17    0.53
  -2   3  10    1.01    0.41
   1  -3 -10   37.98    2.64
  -1  -3  10   34.79    3.03
   1  -3 -10   34.52    2.71
  -1  -3  10   39.89    2.66
  -1   3  10   34.28    2.97
   1   3 -10   35.47    2.70
  -1   3  10   35.92    2.68
   0  -3  10    0.02    0.82
   0  -3 -10   -0.22    0.53
   0  -3 -10   -0.27    0.35
   0   3  10   -0.40    0.43
   0   3 -10   -0.12    0.49
   0   3  10    0.89    0.82
   1  -3  10    5.86    1.23
  -1  -3 -10    6.25    0.91
  -1  -3 -10    6.46    0.62
  -1   3 -10    5.76    0.76
   1   3  10    6.56    1.20
   1   3  10    5.74    0.79
   2  -3  10   -0.92    0.97
  -2  -3 -10    0.60    0.60
  -2   3 -10    0.33    0.49
   2   3  10    0.31    0.86
  -3  -3 -10   37.86    2.87
  -3   3 -10   38.28    2.76
   3   3  10   35.15    3.12
   4  -3  10    3.47    1.23
   4  -3  10    3.95    1.16
  -4  -3 -10    4.41    0.95
   4   3  10    5.09    1.04
   4   3  10    5.79    1.21
  -4   3 -10    4.74    0.73
  -5  -3 -10   90.41    6.34
   5  -3  10   74.35    6.33
   5  -3  10   86.88    6.58
   5   3  10   90.56    6.33
  -5   3 -10   90.77    6.19
   5   3  10   87.04    6.53
  -6  -3 -10   -1.36    2.00
   6  -3  10    2.55    1.21
   6  -3  10    2.32    1.13
  -6   3 -10    2.75    0.67
   6   3  10    1.55    1.07
   6   3  10    1.01    1.16
  -6   3 -10    1.88    1.18
  -7  -3 -10   41.77    3.79
   7  -3  10   48.82    3.79
   7  -3  10   41.98    3.72
   7   3  10   43.24    3.74
   7   3  10   45.57    3.70
  -7   3 -10   44.35    3.30
  -7   3 -10   43.14    3.75
  -8  -3 -10   -1.03    1.62
   8  -3  10    2.17    1.40
   8   3  10    1.73    1.52
   8   3  10   -0.12    1.25
  -8   3 -10    2.32    0.76
  -8   3 -10    3.31    1.59
  -9  -3 -10    6.26    1.89
   9   3  10    8.15    1.91
   9   3  10    4.18    1.49
  10   3  10   -1.68    1.84
  10   3  10    0.20    1.54
 -13   4  10   12.97    1.62
  13   4 -10   10.50    2.45
 -12  -4  10   20.60    1.93
  12  -4 -10   21.01    4.16
 -12   4  10   14.72    2.04
  12   4 -10   16.43    2.63
  11  -4 -10   21.80    4.14
 -11  -4  10   18.94    1.86
  11   4 -10   14.17    2.69
 -11   4  10   14.82    1.99
 -11   4  10   19.91    1.80
  10  -4 -10   31.77    4.54
 -10  -4  10   35.81    2.95
 -10   4  10   39.09    2.93
  10   4 -10   35.81    3.43
 -10   4  10   40.70    3.08
   9  -4 -10   53.07    4.89
  -9  -4  10   44.97    3.63
  -9   4  10   49.63    3.62
  -9   4  10   52.17    3.75
   9   4 -10   51.26    3.92
   9   4 -10   38.29    4.02
   8  -4 -10   27.47    3.45
  -8  -4  10   29.28    2.39
   8   4 -10   32.57    2.59
  -8   4  10   33.15    2.51
   8   4 -10   27.78    2.82
  -8   4  10   29.53    2.38
   7  -4 -10   17.83    2.24
  -7  -4  10   16.50    1.40
   7   4 -10   15.60    1.53
  -7   4  10   14.77    1.39
  -7   4  10   15.42    1.52
  -6  -4  10    5.33    1.07
   6  -4 -10    3.50    0.98
  -6  -4  10    3.75    0.59
   6   4 -10    4.75    1.18
  -6   4  10    4.67    0.76
   6   4 -10    3.73    0.72
  -6   4  10    4.54    0.69
   5  -4 -10    3.98    0.90
  -5  -4  10    4.36    0.95
  -5  -4  10    2.77    0.53
   5   4 -10    3.96    0.99
   5   4 -10    3.11    0.64
  -5   4  10    2.81    0.63
  -5   4  10    4.10    0.62
  -4  -4  10   27.39    2.14
   4  -4 -10   25.44    2.32
  -4  -4  10   28.88    2.49
   4   4 -10   31.37    2.32
  -4   4  10   28.14    2.21
  -4   4  10   28.14    2.16
   4   4 -10   30.32    2.15
  -3  -4  10   18.84    1.75
  -3  -4  10   21.68    2.02
  -3   4  10   21.57    1.94
   3   4 -10   22.71    1.67
   3   4 -10   23.93    1.80
  -3   4  10   20.60    1.72
  -2  -4  10   27.84    2.11
   2  -4 -10   29.21    2.13
  -2  -4  10   27.20    2.46
   2   4 -10   27.27    2.20
  -2   4  10   29.30    2.26
  -2   4  10   28.18    2.39
  -1  -4  10   49.76    3.47
  -1  -4  10   47.13    3.79
   1  -4 -10   49.19    3.47
   1  -4 -10   47.01    3.54
   1   4 -10   46.98    3.54
  -1   4  10   48.65    3.77
   0  -4 -10   76.28    5.22
   0  -4  10   73.82    5.61
   0  -4 -10   74.24    5.32
   0   4 -10   73.20    5.24
   0   4 -10   70.23    5.29
   0   4  10   75.84    5.57
  -1  -4 -10   61.58    4.43
  -1  -4 -10   58.69    4.28
   1  -4  10   59.72    4.74
  -1   4 -10   62.40    4.35
  -1   4 -10   60.28    4.38
   1   4  10   64.12    4.47
   1   4  10   57.86    4.67
  -2  -4 -10   52.16    3.73
   2  -4  10   46.20    4.11
   2  -4  10   45.27    3.85
   2   4  10   52.88    3.74
  -2   4 -10   51.42    3.66
  -2   4 -10   49.73    3.62
   2   4  10   51.32    4.02
  -3  -4 -10   40.69    3.03
   3  -4  10   33.60    3.46
  -3   4 -10   40.89    2.89
   3   4  10   39.66    2.98
  -3   4 -10   37.36    2.89
   3   4  10   37.88    3.27
   4  -4  10    5.12    1.16
  -4  -4 -10    8.24    1.20
   4  -4  10    4.01    1.47
   4   4  10    8.91    1.45
  -4   4 -10    7.73    0.96
  -4   4 -10    6.34    1.02
   4   4  10    6.50    1.19
   5  -4  10   -0.38    1.43
   5  -4  10    1.88    1.09
  -5  -4 -10   -0.89    1.00
  -5   4 -10   -1.62    0.76
  -5   4 -10    0.24    0.63
   5   4  10   -0.04    1.12
   5   4  10    0.70    0.94
  -6  -4 -10    1.18    1.27
   6  -4  10    2.22    1.41
   6  -4  10    2.16    1.49
   6   4  10    1.28    1.16
  -6   4 -10    1.48    0.74
   6   4  10    0.22    1.11
   7  -4  10    4.46    1.57
  -7  -4 -10    4.47    1.76
  -7   4 -10    5.05    0.91
   7   4  10    3.04    1.27
   7   4  10    5.71    1.48
   8  -4  10   14.39    2.25
  -8  -4 -10   15.51    2.56
   8   4  10   15.71    2.37
   8   4  10   11.62    2.11
  -8   4 -10   16.68    1.53
   9   4  10   16.69    2.45
   9   4  10   11.02    2.09
  12  -5 -10    7.80    3.09
  12   5 -10    7.38    2.15
 -12   5  10    7.00    1.23
  11  -5 -10   -4.59    2.84
 -11  -5  10    2.83    0.94
  11   5 -10   -1.99    1.68
 -11   5  10    0.17    0.92
 -10  -5  10    1.95    0.85
  10  -5 -10   -1.65    2.62
 -10   5  10    1.75    0.94
  10   5 -10    2.37    1.45
 -10   5  10    2.29    0.96
  -9  -5  10    2.40    1.14
   9  -5 -10    0.41    2.28
   9   5 -10   -1.23    1.80
   9   5 -10   -0.22    1.06
  -9   5  10    0.14    0.78
  -9   5  10   -0.79    0.93
  -8  -5  10   63.20    4.65
   8  -5 -10   60.92    5.39
  -8   5  10   70.94    4.83
   8   5 -10   57.92    5.08
   8   5 -10   62.68    4.80
  -8   5  10   64.24    4.66
   7  -5 -10    3.79    1.36
  -7  -5  10    4.72    1.29
  -7  -5  10    3.15    0.64
  -7   5  10    3.42    1.30
  -7   5  10    3.20    0.80
   7   5 -10    2.86    0.79
   7   5 -10    4.52    1.55
   6  -5 -10   68.38    5.72
  -6  -5  10   79.75    5.52
  -6  -5  10   79.08    5.82
  -6   5  10   80.49    5.54
   6   5 -10   78.28    5.58
  -6   5  10   74.81    5.90
  -5  -5  10    7.03    1.42
  -5  -5  10    4.27    0.68
   5  -5 -10    5.35    1.03
  -5   5  10    3.81    0.71
   5   5 -10    5.92    1.11
   5   5 -10    3.97    0.77
  -5   5  10    3.85    0.77
   4  -5 -10   90.36    6.65
  -4  -5  10   91.73    6.42
  -4  -5  10   88.80    6.67
   4  -5 -10   82.46    6.54
   4   5 -10   98.47    6.47
   4   5 -10   94.20    6.54
  -4   5  10   89.27    6.43
  -4   5  10   88.13    6.47
  -3  -5  10    1.44    0.45
  -3  -5  10    1.79    0.82
   3   5 -10    2.86    0.78
  -3   5  10    1.58    0.57
   3   5 -10    1.27    0.54
  -2  -5  10   23.40    1.73
  -2  -5  10   20.65    2.15
   2  -5 -10   22.45    1.83
   2   5 -10   22.50    1.90
  -2   5  10   21.54    1.92
   2   5 -10   24.47    1.79
   1  -5 -10    1.18    0.63
   1  -5 -10    1.36    0.62
  -1  -5  10    1.63    0.81
   1   5 -10    1.37    0.69
  -1   5  10    0.98    0.83
  -1   5  10    1.63    0.66
   0  -5  10    0.10    0.80
   0  -5  10   -0.76    0.64
   0  -5 -10   -0.33    0.38
   0  -5 -10    0.49    0.65
   0   5  10    0.61    0.92
   0   5  10   -0.12    0.63
   0   5 -10    0.57    0.63
  -1  -5 -10   -0.32    0.71
   1  -5  10   -0.41    0.99
   1  -5  10    0.40    0.88
   1   5  10    0.41    0.97
   1   5  10   -0.42    0.67
  -1   5 -10    0.34    0.58
  -2  -5 -10    8.73    1.29
   2  -5  10    9.68    1.89
   2  -5  10    9.02    1.73
   2   5  10    9.53    1.27
  -2   5 -10    9.66    1.08
   2   5  10    9.44    1.65
   3  -5  10    0.77    1.11
  -3  -5 -10    0.85    0.90
   3  -5  10    1.49    1.40
  -3   5 -10    1.78    0.70
   3   5  10    1.16    0.86
   3   5  10    1.11    1.18
   4  -5  10   70.41    6.63
  -4  -5 -10   87.67    6.28
  -4   5 -10   89.59    6.14
   4   5  10   91.21    6.28
  -5  -5 -10    3.20    1.33
   5   5  10    2.20    1.17
   5   5  10    2.04    1.21
  -6  -5 -10   38.56    3.58
   6   5  10   40.18    3.37
  -6   5 -10   39.38    3.04
   6   5  10   38.54    3.47
  -7  -5 -10    2.26    1.75
   7  -5  10   -0.49    1.71
  -7   5 -10    2.50    0.86
   7   5  10    1.55    1.37
  -8  -5 -10   24.37    2.89
   8   5  10   19.45    2.60
  -8   5 -10   20.78    1.95
  -9   5 -10    3.59    1.03
   9   5  10    1.31    1.39
 -11  -6  10   11.71    1.66
 -11   6  10    8.61    1.35
 -10  -6  10   50.05    3.83
  10  -6 -10   55.66    5.68
  10   6 -10   47.44    4.23
 -10   6  10   47.16    3.81
  -9  -6  10   14.40    1.46
   9  -6 -10   14.17    2.92
   9   6 -10    9.17    1.69
  -9   6  10   11.91    1.56
  -8  -6  10   44.35    3.72
   8  -6 -10   40.17    4.18
  -8  -6  10   38.81    3.07
  -8   6  10   40.15    3.14
   8   6 -10   39.97    3.30
   8   6 -10   36.22    3.56
  -7  -6  10    1.49    0.65
  -7  -6  10    5.09    1.47
  -7   6  10    3.27    0.85
   7   6 -10    1.76    1.48
   7   6 -10    2.45    0.89
   6  -6 -10    6.81    1.39
  -6  -6  10    5.68    0.78
  -6   6  10    4.67    0.77
   6   6 -10    4.09    1.44
   6   6 -10    4.68    0.93
  -6   6  10    5.57    0.89
  -5  -6  10    0.79    0.52
   5  -6 -10    1.44    1.10
  -5  -6  10    1.59    1.13
   5   6 -10    0.71    0.65
   5   6 -10    0.25    1.08
  -5   6  10    0.50    0.60
  -5   6  10    1.86    0.72
   4  -6 -10   26.09    2.61
  -4  -6  10   27.37    2.70
   4  -6 -10   29.87    2.63
  -4   6  10   28.28    2.23
   4   6 -10   28.62    2.27
   4   6 -10   29.46    2.45
   3  -6 -10    5.41    1.34
  -3  -6  10    6.33    1.29
   3  -6 -10    6.32    0.92
  -3   6  10    5.81    0.91
   3   6 -10    4.37    0.78
   3   6 -10    7.47    1.07
  -2  -6  10   31.17    2.99
   2  -6 -10   31.55    3.13
   2  -6 -10   32.98    2.59
  -2   6  10   31.74    2.69
   2   6 -10   32.65    2.64
  -2   6  10   36.84    2.54
   2   6 -10   34.71    2.55
   1  -6 -10    8.34    1.82
  -1  -6  10   11.38    1.84
   1  -6 -10   11.87    1.26
  -1   6  10    9.23    1.30
   1   6 -10    9.73    1.22
   0  -6 -10   85.91    6.02
   0  -6  10   77.52    6.05
   0  -6  10   83.53    6.38
   0   6  10   85.05    6.09
   0   6 -10   84.21    6.01
   1  -6  10   11.59    2.05
  -1  -6 -10   10.35    1.40
  -1   6 -10   10.91    1.20
   1   6  10    9.61    1.45
   2  -6  10   62.40    4.94
   2  -6  10   63.25    5.27
  -2  -6 -10   63.95    4.77
   2   6  10   64.66    4.82
  -3  -6 -10    9.24    1.48
   3  -6  10   10.49    2.26
  -3   6 -10    9.54    1.25
   3   6  10    9.73    1.60
   4  -6  10    9.07    2.06
  -4  -6 -10    9.70    1.80
  -4   6 -10    9.57    1.29
  -5  -6 -10   -1.80    1.54
   5  -6  10    0.69    1.88
  -5   6 -10    1.02    0.85
   5   6  10    0.95    1.22
   6  -6  10    2.06    2.03
  -6  -6 -10    3.61    1.86
   6   6  10    0.25    1.31
  -6   6 -10    3.05    0.92
  -7  -6 -10    2.01    1.89
   7  -6  10    3.37    1.93
  -7   6 -10    1.96    0.90
   7   6  10   -0.42    1.37
  10  -7 -10    1.79    2.84
   9  -7 -10    8.11    2.58
   9   7 -10    6.78    1.55
  -9   7  10   11.43    1.50
   8   7 -10   13.24    1.86
  -8   7  10   15.10    1.68
   7  -7 -10   32.41    3.70
  -7  -7  10   34.40    3.38
   7   7 -10   31.84    3.28
  -7   7  10   35.98    2.79
   6  -7 -10   13.31    2.42
  -6  -7  10   20.75    2.47
  -6   7  10   17.69    1.69
   6   7 -10   14.72    1.67
   5  -7 -10   48.57    4.38
  -5  -7  10   48.48    4.30
   5   7 -10   54.96    3.95
   5   7 -10   55.41    4.23
  -5   7  10   52.25    4.14
  -4  -7  10   21.49    2.48
   4  -7 -10   19.81    2.26
   4   7 -10   21.64    1.87
   4   7 -10   19.98    2.17
  -4   7  10   21.32    1.90
   3  -7 -10   13.80    2.15
  -3  -7  10   14.75    2.18
   3   7 -10   12.41    1.86
   3   7 -10   13.95    1.43
  -3   7  10   16.31    1.46
  -2  -7  10    7.84    1.54
   2  -7 -10    5.54    1.56
  -2   7  10    5.79    0.87
   2   7 -10    7.16    1.04
  -2   7  10    4.57    1.18
   1  -7 -10    7.27    1.27
   1  -7 -10   10.33    2.17
  -1  -7  10   11.87    2.00
   1   7 -10   11.96    1.35
  -1   7  10    9.78    1.55
   0  -7  10    1.12    1.29
   0  -7 -10   -1.44    1.61
   0  -7  10   -1.20    1.89
   0   7 -10   -0.69    0.86
   0   7  10    0.48    0.97
   1  -7  10    2.56    1.38
  -1  -7 -10    0.41    1.85
  -1  -7 -10    0.46    1.03
  -1   7 -10    3.23    1.01
  -2  -7 -10    0.60    2.18
   2  -7  10    3.84    1.79
  -2   7 -10    3.96    1.02
   2   7  10    2.92    1.24
  -3  -7 -10   12.88    2.61
   3  -7  10   20.61    3.10
  -3  -7 -10   15.83    2.97
  -3   7 -10   14.99    1.64
   3   7  10   13.64    2.11
  -4  -7 -10   15.67    3.22
   4  -7  10   19.94    3.27
  -4  -7 -10   17.78    2.52
  -4   7 -10   18.57    1.84
   4   7  10   16.62    2.31
  -5  -7 -10   25.08    4.39
  -5  -7 -10   33.55    3.55
  -5   7 -10   35.38    2.82
   5   7  10   37.19    3.26
  -6  -7 -10    5.59    2.31
   6  -7  10    7.30    2.30
  -6  -7 -10   12.06    2.19
   6   7  10    6.64    1.74
  -7  -7 -10   43.04    5.35
   8  -8 -10    2.55    1.88
  -8   8  10    1.66    1.06
   7  -8 -10   15.73    2.49
  -7  -8  10   22.91    2.73
  -7   8  10   17.03    1.97
   6  -8 -10    0.86    1.62
  -6  -8  10    5.59    1.75
   6   8 -10    3.55    1.27
  -6   8  10    0.24    1.06
  -5  -8  10    5.71    1.73
   5  -8 -10    3.76    1.74
   5   8 -10    2.01    1.40
  -5   8  10    3.98    1.17
  -4  -8  10    2.22    1.48
   4  -8 -10    1.05    1.58
   4  -8 -10    0.97    1.08
   4   8 -10    0.95    1.13
  -4   8  10    0.84    0.97
   3  -8 -10   18.47    2.50
  -3  -8  10   20.27    2.73
   3   8 -10   19.95    2.09
  -2  -8  10    3.21    1.59
   2  -8 -10   -0.46    1.48
  -2   8  10   -0.30    1.14
   2   8 -10    1.32    1.09
  -1  -8  10   45.11    4.05
   1  -8 -10   41.16    4.18
   1   8 -10   46.50    3.53
  -1   8  10   43.23    3.68
   0  -8 -10    0.44    1.90
   0  -8  10    3.90    1.71
   0   8  10    0.09    1.16
   0   8 -10    1.46    1.05
   1  -8  10   55.04    4.49
  -1  -8 -10   41.09    4.77
  -1   8 -10   49.31    3.81
   1   8  10   48.05    4.01
  -2  -8 -10   -1.05    2.10
   2  -8  10    3.34    1.87
   2   8  10   -0.13    1.35
  -2   8 -10    0.50    0.97
   3  -8  10   43.20    4.18
  -3  -8 -10   28.95    4.20
   3   8  10   33.57    3.29
  -3   8 -10   36.76    2.95
   4  -8  10    4.21    2.32
  -4  -8 -10    1.03    2.14
  -4   8 -10    3.84    0.90
   4   8  10    1.15    1.47
   5  -8  10    2.04    2.16
   5   8  10   -1.21    1.24
  -6   9  10   13.68    1.74
  -5  -9  10   40.23    3.46
   5  -9 -10   37.21    3.82
  -5   9  10   37.98    3.12
   5   9 -10   42.12    3.72
  -4  -9  10   20.92    2.41
   4  -9 -10   17.84    2.86
   4   9 -10   15.21    2.34
   3  -9 -10   12.50    2.24
   3   9 -10    9.48    1.78
   2  -9 -10    4.00    1.70
  -2   9  10    4.91    1.47
   2   9 -10    3.44    1.43
   1  -9 -10    5.93    1.89
  -1   9  10    6.08    1.54
   1   9 -10    9.94    1.50
   0  -9  10    5.80    1.81
   0  -9 -10    0.53    1.80
   0   9 -10    2.11    1.07
   0   9  10    0.02    1.23
  -1  -9 -10    1.97    1.95
  -1   9 -10    4.51    1.02
   2  -9  10    9.27    3.63
  14   0 -11   -1.54    1.11
  14   0 -11    2.42    2.00
  13   0 -11   43.67    4.19
 -13   0  11   40.46    3.41
  12   0 -11    0.66    1.77
  12   0 -11   -0.15    1.25
 -12   0  11    0.14    0.88
  11   0 -11   36.95    3.34
  11   0 -11   31.85    2.73
 -11   0  11   29.22    2.68
 -10   0  11   -0.18    0.64
  10   0 -11    0.87    0.94
  10   0 -11    0.90    1.30
   9   0 -11  109.28    7.66
  -9   0  11  102.17    7.46
   9   0 -11  100.16    7.44
   8   0 -11    0.19    0.62
   8   0 -11    1.14    1.03
  -8   0  11    0.27    0.50
   7   0 -11   65.64    5.03
  -7   0  11   71.50    5.04
   7   0 -11   71.65    5.26
   6   0 -11   -0.64    0.84
   6   0 -11    0.54    0.53
  -6   0  11    0.28    0.44
  -5   0  11   13.88    1.23
   5   0 -11   14.39    1.28
  -4   0  11   -0.22    0.35
   4   0 -11    0.15    0.52
   3   0 -11   40.65    3.00
  -3   0  11   41.02    3.00
   2   0 -11   -0.25    0.43
  -2   0  11    0.10    0.32
  -1   0  11  230.88   15.13
  -1   0  11  193.71   14.85
   0   0  11    0.46    0.79
   0   0 -11   -0.07    0.51
   0   0 -11   -0.50    0.44
  -1   0 -11   96.38    7.33
   1   0  11  114.77    7.64
  -1   0 -11  100.12    7.28
  -2   0 -11   -0.47    0.39
  -2   0 -11   -0.24    0.56
   2   0  11    0.58    0.77
   3   0  11  109.11    7.35
  -3   0 -11   95.60    7.02
  -3   0 -11   93.91    7.08
  -4   0 -11    0.02    0.65
   4   0  11   -0.38    0.85
   4   0  11    0.36    0.57
   5   0  11    4.27    1.19
   5   0  11    4.48    0.87
  -5   0 -11    5.93    0.67
  -5   0 -11    3.96    0.97
   6   0  11   -0.71    1.11
   6   0  11    0.84    0.89
  -6   0 -11   -0.52    0.98
   7   0  11   17.75    1.90
  -7   0 -11   14.80    2.16
   8   0  11   -0.72    1.36
  -8   0 -11    0.10    1.63
   9   0  11   24.52    2.91
  -9   0 -11   27.27    3.15
  14  -1 -11   16.75    2.95
  14  -1 -11   10.80    1.58
  14   1 -11   12.79    2.30
  13  -1 -11   13.37    1.98
  13  -1 -11   16.16    3.08
 -13  -1  11   16.73    1.78
  13   1 -11   14.48    2.00
  13   1 -11   16.25    2.60
 -13   1  11   14.43    1.86
  12  -1 -11    1.90    1.17
  12  -1 -11    2.27    1.82
 -12  -1  11    3.05    0.99
 -12   1  11    2.41    1.01
  12   1 -11    2.88    1.82
  12   1 -11    1.67    1.26
 -11  -1  11    2.70    0.89
  11  -1 -11    4.23    1.96
  11  -1 -11    2.55    1.03
  11   1 -11    1.66    2.03
  11   1 -11    3.60    1.59
 -11   1  11    1.91    0.85
  10  -1 -11    1.38    1.58
 -10  -1  11    0.73    1.08
  10  -1 -11    0.59    0.86
  10   1 -11   -0.44    0.98
  10   1 -11   -0.07    1.25
 -10   1  11    0.16    0.77
   9  -1 -11   10.35    1.23
   9  -1 -11   11.98    2.27
  -9  -1  11    9.42    1.14
  -9   1  11    9.74    1.20
   9   1 -11    9.11    1.31
   9   1 -11    9.12    1.74
   8  -1 -11   16.99    2.14
   8  -1 -11   18.15    1.55
  -8  -1  11   17.90    1.56
  -8   1  11   18.28    1.57
   8   1 -11   17.10    1.91
   8   1 -11   17.12    1.63
  -7  -1  11   48.01    3.40
   7  -1 -11   44.33    3.72
   7  -1 -11   42.18    3.38
   7   1 -11   49.17    3.58
  -7   1  11   47.58    3.43
   7   1 -11   43.71    3.42
   6  -1 -11   36.34    2.78
   6  -1 -11   33.58    3.00
  -6  -1  11   37.34    2.79
  -6   1  11   40.23    2.83
   6   1 -11   38.16    2.87
   6   1 -11   37.54    2.83
  -5  -1  11  134.90    9.76
   5  -1 -11  134.50    9.75
   5   1 -11  141.91    9.78
  -5   1  11  142.49    9.79
   4  -1 -11   48.02    3.56
  -4  -1  11   47.39    3.56
   4   1 -11   49.77    3.60
  -4   1  11   50.97    3.59
  -3  -1  11   30.03    2.31
   3  -1 -11   32.56    2.33
  -3   1  11   32.14    2.34
  -3   1  11   28.12    2.75
   3   1 -11   31.58    2.35
  -2  -1  11    4.55    0.62
  -2  -1  11    5.19    1.17
   2  -1 -11    5.49    0.78
   2   1 -11    4.77    0.68
  -2   1  11    5.56    0.63
   1  -1 -11    4.37    0.59
  -1  -1  11    2.49    1.03
  -1  -1  11    3.15    0.55
  -1   1  11    3.18    1.07
  -1   1  11    3.14    0.56
   1   1 -11    3.98    0.61
   0  -1 -11    1.75    0.43
   0  -1  11    1.25    0.90
   0  -1 -11    1.43    0.57
   0   1  11    1.27    0.99
   0   1 -11    1.43    0.48
  -1  -1 -11    3.30    0.50
  -1  -1 -11    2.59    0.66
   1  -1  11    3.75    1.02
  -1   1 -11    3.72    0.58
  -1   1 -11    3.00    0.62
   1   1  11    2.66    0.99
  -2  -1 -11    3.48    0.71
   2  -1  11    2.86    0.92
  -2  -1 -11    3.07    0.50
   2   1  11    3.30    1.03
  -2   1 -11    3.98    0.68
  -2   1 -11    3.37    0.57
  -3  -1 -11   36.12    2.86
  -3  -1 -11   37.25    2.70
   3  -1  11   42.71    3.18
  -3   1 -11   35.60    2.75
  -3   1 -11   38.20    2.86
   3   1  11   37.40    3.16
   3   1  11   37.14    2.80
   4  -1  11   43.82    3.01
  -4  -1 -11   40.94    2.88
  -4  -1 -11   40.01    3.10
   4  -1  11   43.06    3.34
   4   1  11   39.59    3.35
  -4   1 -11   37.22    3.06
  -4   1 -11   36.92    2.93
   5  -1  11   61.23    4.35
  -5  -1 -11   54.41    4.37
   5  -1  11   62.26    4.59
  -5   1 -11   57.33    4.35
   5   1  11   58.70    4.32
  -5   1 -11   54.48    4.18
   5   1  11   60.08    4.62
   6  -1  11   21.75    2.21
  -6  -1 -11   17.44    2.06
   6  -1  11   22.06    2.00
   6   1  11   19.99    2.25
  -6   1 -11   20.05    1.57
  -6   1 -11   17.46    2.06
   6   1  11   18.36    2.02
  -7  -1 -11   38.71    3.46
  -7   1 -11   38.14    3.53
   7   1  11   40.98    3.65
  -8  -1 -11    6.79    1.88
   8  -1  11    9.45    1.70
  -8   1 -11   10.28    2.06
   8   1  11    9.20    1.70
   9  -1  11    3.30    1.57
  -9  -1 -11    5.15    1.83
   9   1  11    3.03    1.51
  -9   1 -11    4.58    1.88
  14   2 -11   16.62    3.47
  13  -2 -11   11.98    2.64
  13  -2 -11    5.75    1.41
  13   2 -11    5.44    1.49
 -13   2  11    6.62    1.35
  13   2 -11   10.72    2.11
 -12  -2  11   28.83    2.66
  12  -2 -11   28.98    2.72
  12  -2 -11   31.81    4.10
  12   2 -11   28.55    2.87
  12   2 -11   34.37    3.34
 -12   2  11   29.33    2.69
 -11  -2  11    5.17    1.06
  11  -2 -11    7.60    2.36
  11  -2 -11    6.54    1.24
  11   2 -11    6.02    1.63
 -11   2  11    4.36    1.08
  10  -2 -11   75.62    5.80
  10  -2 -11   65.87    5.28
 -10  -2  11   65.10    5.17
  10   2 -11   72.96    5.44
 -10   2  11   70.44    5.19
  -9  -2  11   11.49    1.37
   9  -2 -11   13.21    1.45
   9   2 -11   13.52    1.68
   9   2 -11   16.08    1.84
  -9   2  11   14.53    1.49
   8  -2 -11   56.23    4.80
   8  -2 -11   53.88    4.41
  -8  -2  11   59.52    4.41
  -8   2  11   68.25    4.48
   8   2 -11   61.12    4.51
   8   2 -11   62.30    4.57
   7  -2 -11    7.79    1.00
   7  -2 -11    9.22    1.90
  -7  -2  11    8.06    0.93
   7   2 -11    8.43    1.17
  -7   2  11    9.44    1.00
  -6  -2  11   24.26    1.89
   6  -2 -11   23.03    1.91
   6   2 -11   25.18    2.03
   6   2 -11   23.28    1.92
  -6   2  11   25.31    1.95
   5  -2 -11    1.77    0.88
  -5  -2  11    1.61    0.44
   5  -2 -11    1.20    0.52
   5   2 -11    2.19    0.75
  -5   2  11    1.94    0.50
  -4  -2  11   51.31    4.39
  -4  -2  11   57.14    4.08
   4  -2 -11   54.13    4.16
   4  -2 -11   56.27    4.08
  -4   2  11   59.66    4.12
   4   2 -11   59.88    4.12
  -3  -2  11    3.75    0.58
   3  -2 -11    4.45    0.65
   3  -2 -11    3.06    0.67
   3   2 -11    4.97    0.78
  -3   2  11    3.95    0.65
  -3   2  11    4.85    1.27
  -2  -2  11   55.58    4.97
  -2  -2  11   68.14    4.69
   2  -2 -11   63.61    4.73
   2   2 -11   69.44    4.71
  -2   2  11   69.75    4.73
   1  -2 -11   21.21    1.68
  -1  -2  11   22.87    1.72
   1   2 -11   22.14    1.74
   0  -2 -11  131.40    9.08
   0  -2 -11  128.62    9.00
   0   2 -11  125.38    9.04
  -1  -2 -11   12.79    1.22
  -1  -2 -11   12.55    1.00
   1   2  11    8.46    1.70
  -1   2 -11   12.51    1.10
  -1   2 -11   13.17    1.16
   1   2  11   11.78    1.08
  -2  -2 -11   95.15    6.62
  -2  -2 -11   94.46    6.74
   2  -2  11   83.65    7.03
  -2   2 -11   97.81    6.72
   2   2  11   99.97    6.70
  -2   2 -11   94.04    6.68
  -3  -2 -11   12.46    1.26
   3  -2  11   10.51    1.61
  -3   2 -11   11.49    1.06
   3   2  11   11.98    1.20
  -3   2 -11   10.97    1.19
   3   2  11    8.24    1.57
   4  -2  11   14.15    1.44
  -4  -2 -11   15.84    1.61
   4  -2  11   18.95    1.94
   4   2  11   14.01    1.95
  -4   2 -11   15.80    1.51
  -4   2 -11   17.02    1.34
   4   2  11   14.56    1.54
   5  -2  11   -0.11    1.02
   5  -2  11    2.51    0.95
  -5  -2 -11    0.16    0.91
   5   2  11    1.82    1.13
   5   2  11    1.01    0.84
  -5   2 -11    0.82    0.57
  -5   2 -11   -0.89    0.86
   6  -2  11    0.18    1.24
  -6  -2 -11   -0.74    1.09
   6   2  11    0.68    1.20
  -6   2 -11    2.13    0.57
  -6   2 -11   -0.77    1.11
   7  -2  11    2.00    1.52
  -7  -2 -11    1.91    1.50
   7   2  11    2.93    1.37
   7   2  11    2.05    1.33
  -7   2 -11    2.45    2.29
  -7   2 -11    2.90    0.75
  -8  -2 -11   32.97    3.46
   8  -2  11   38.72    3.38
   8   2  11   37.26    3.11
  -8   2 -11   37.19    3.57
   8   2  11   32.16    3.32
  -9  -2 -11    4.66    1.70
   9   2  11    3.78    1.53
 -10   2 -11   81.73    6.36
  13  -3 -11    1.61    2.68
 -13  -3  11    3.22    0.91
  13  -3 -11    2.39    1.15
 -13   3  11    0.75    1.04
  13   3 -11    2.74    2.01
  12  -3 -11    5.34    2.70
  12   3 -11    3.33    1.37
 -12   3  11    5.72    1.25
  12   3 -11    3.84    1.85
  11  -3 -11    2.29    1.10
 -11  -3  11    1.12    0.84
  11  -3 -11    0.38    2.47
  11   3 -11   -0.59    2.01
 -11   3  11    0.46    0.97
  11   3 -11   -1.24    1.57
 -10  -3  11    1.33    0.71
  10  -3 -11    1.44    2.15
  10   3 -11    1.03    1.28
 -10   3  11    1.84    1.15
  10   3 -11    0.56    1.41
  -9  -3  11    0.65    0.66
   9  -3 -11    1.78    1.74
   9   3 -11   -1.17    1.04
   9   3 -11   -0.08    1.02
  -9   3  11    0.57    0.77
  -8  -3  11   50.97    3.83
   8  -3 -11   50.37    4.51
   8   3 -11   50.86    3.96
   8   3 -11   51.97    4.05
  -8   3  11   54.69    3.94
  -7  -3  11    1.59    0.51
   7  -3 -11    4.45    1.35
   7   3 -11    2.58    0.97
  -7   3  11    1.72    0.64
   7   3 -11    1.73    0.68
  -6  -3  11  101.49    7.38
   6  -3 -11   97.92    7.57
   6  -3 -11   99.60    7.39
   6   3 -11  109.36    7.48
  -6   3  11  112.50    7.45
   6   3 -11  103.31    7.37
   5  -3 -11    5.47    0.80
  -5  -3  11    7.15    1.35
   5  -3 -11    5.28    1.03
  -5  -3  11    6.51    0.76
   5   3 -11    7.29    1.03
  -5   3  11    6.82    0.85
  -4  -3  11  140.52   10.15
  -4  -3  11  140.00    9.94
   4  -3 -11  138.19    9.94
   4  -3 -11  126.57    9.98
   4   3 -11  151.20   10.01
  -4   3  11  143.83    9.99
  -4   3  11  148.55   10.07
   3  -3 -11    0.31    0.58
   3  -3 -11    1.31    0.48
  -3  -3  11    1.24    0.42
  -3  -3  11    0.73    0.87
   3   3 -11    0.93    0.62
  -3   3  11    1.62    0.47
  -3   3  11    1.23    0.96
  -2  -3  11   14.00    1.80
   2  -3 -11   17.50    1.34
  -2  -3  11   16.56    1.33
  -2   3  11   14.49    1.77
  -2   3  11   16.09    1.36
  -2   3  11   16.26    1.37
   2   3 -11   16.19    1.40
  -1  -3  11   -0.75    0.90
   1  -3 -11    0.07    0.55
   1  -3 -11    0.09    0.43
  -1  -3  11    0.02    0.41
  -1   3  11    0.46    0.94
  -1   3  11    0.08    0.44
   1   3 -11    0.09    0.48
   0  -3 -11    2.30    0.64
   0  -3  11    1.96    1.07
   0  -3 -11    3.01    0.49
   0   3  11    3.72    0.60
   0   3  11    2.14    1.11
   0   3 -11    3.48    0.68
   1  -3  11   -0.25    0.97
  -1  -3 -11    0.56    0.37
  -1  -3 -11    0.56    0.61
  -1   3 -11    1.10    0.50
   1   3  11    0.07    0.52
   1   3  11   -0.40    0.88
  -2  -3 -11    7.86    1.08
   2  -3  11    7.44    1.47
   2   3  11    7.60    1.19
  -2   3 -11    8.43    0.90
   2   3  11    7.15    1.46
  -3  -3 -11    1.69    0.81
   3  -3  11    0.29    1.25
   3   3  11    2.39    0.78
   3   3  11    0.57    1.06
  -3   3 -11    2.25    0.61
   4  -3  11  104.60    8.00
  -4  -3 -11  111.47    7.68
   4   3  11  101.22    7.92
  -4   3 -11  104.69    7.79
  -4   3 -11  110.30    7.56
   5  -3  11    2.63    1.32
  -5  -3 -11    1.74    1.07
   5   3  11    2.73    1.28
  -5   3 -11    3.80    0.74
  -5   3 -11    1.71    1.02
  -6  -3 -11   51.45    4.22
   6  -3  11   57.58    4.49
  -6   3 -11   48.86    4.19
  -6   3 -11   51.87    3.90
   6   3  11   55.07    4.16
   6   3  11   52.59    4.36
   7  -3  11    5.05    1.55
  -7  -3 -11    1.47    1.54
   7   3  11    0.34    1.35
  -7   3 -11    2.80    1.03
   7   3  11    2.31    1.34
  -7   3 -11    1.73    1.47
   8  -3  11   25.03    2.79
  -8  -3 -11   18.65    2.89
   8   3  11   22.33    2.66
  -8   3 -11   29.26    2.73
   8   3  11   25.87    2.51
  -9  -3 -11    4.67    1.52
   9   3  11   -1.79    1.38
  13   4 -11   18.13    2.90
 -13   4  11   14.54    1.78
 -12  -4  11   18.53    1.85
  12   4 -11   13.77    2.70
 -12   4  11   14.72    1.97
 -11  -4  11   12.75    1.60
  11   4 -11   13.83    2.27
  11   4 -11    7.99    1.82
 -11   4  11   12.86    1.81
 -10  -4  11   30.81    2.45
  10  -4 -11   29.42    4.20
 -10   4  11   28.79    3.07
  10   4 -11   21.60    2.98
  10   4 -11   29.32    2.80
 -10   4  11   30.32    2.41
  -9  -4  11   34.22    2.70
   9  -4 -11   31.55    4.04
  -9   4  11   33.78    2.68
  -9   4  11   37.52    2.87
   9   4 -11   34.33    2.90
   9   4 -11   29.90    3.21
  -8  -4  11   27.46    2.24
   8  -4 -11   29.86    3.37
   8   4 -11   25.22    2.62
   8   4 -11   26.83    2.35
  -8   4  11   29.58    2.40
  -8   4  11   27.23    2.23
  -7  -4  11   22.61    1.81
   7  -4 -11   21.80    2.54
   7   4 -11   21.27    2.23
  -7   4  11   21.74    1.94
   7   4 -11   20.94    1.85
  -7   4  11   22.39    1.81
  -6  -4  11   10.92    1.66
   6  -4 -11    9.70    1.56
  -6  -4  11   10.52    1.03
  -6   4  11   11.02    1.17
  -6   4  11   11.15    1.08
   6   4 -11    9.40    1.07
   6   4 -11    9.35    1.47
   5  -4 -11    5.74    1.12
  -5  -4  11    5.07    0.68
  -5  -4  11    4.97    1.10
  -5   4  11    5.01    0.77
   5   4 -11    3.70    0.65
   5   4 -11    4.77    1.04
   4  -4 -11   19.69    1.92
  -4  -4  11   20.90    1.71
  -4  -4  11   21.45    2.15
  -4   4  11   22.74    1.80
   4   4 -11   24.92    1.91
  -3  -4  11   13.66    1.66
   3  -4 -11   14.55    1.25
  -3  -4  11   14.36    1.24
   3   4 -11   15.59    1.39
  -3   4  11   14.41    1.65
  -2  -4  11   28.06    2.12
  -2  -4  11   28.56    2.50
   2  -4 -11   27.85    2.09
   2   4 -11   28.99    2.20
  -2   4  11   24.92    2.44
   1  -4 -11   59.25    4.38
   1  -4 -11   62.46    4.51
  -1  -4  11   60.13    4.70
  -1   4  11   61.51    4.59
  -1   4  11   59.73    4.66
   1   4 -11   58.25    4.38
   0  -4 -11   55.58    4.01
   0  -4 -11   54.59    3.87
   0  -4  11   56.77    4.38
   0   4  11   58.55    4.21
   0   4 -11   53.22    4.00
   0   4 -11   53.47    3.97
   0   4  11   49.15    4.28
  -1  -4 -11   33.60    2.43
   1  -4  11   27.90    2.89
  -1   4 -11   28.35    2.42
   1   4  11   31.06    2.82
  -1   4 -11   30.19    2.34
  -2  -4 -11   40.26    3.05
   2  -4  11   36.70    3.56
  -2   4 -11   39.95    2.91
  -2   4 -11   40.01    2.94
   2   4  11   37.56    3.41
  -3  -4 -11   32.06    2.66
   3   4  11   31.99    3.03
  -3   4 -11   30.16    2.49
   3   4  11   35.11    2.87
  -3   4 -11   33.39    2.51
  -4  -4 -11    7.21    1.29
  -4   4 -11    9.52    1.08
   4   4  11    7.21    1.38
   4   4  11    7.77    1.59
  -5  -4 -11   -1.15    1.09
   5  -4  11    1.02    1.97
  -5   4 -11    1.42    0.70
   5   4  11    0.45    0.99
   5   4  11    0.82    1.24
   6  -4  11    1.14    1.46
  -6  -4 -11   -0.68    1.40
  -6   4 -11    1.83    0.76
   6   4  11    0.53    1.14
   6   4  11   -1.58    1.25
   7  -4  11    6.91    1.78
  -7  -4 -11    6.09    1.73
   7   4  11    3.50    1.46
   7   4  11    4.72    1.48
  -7   4 -11    7.31    1.11
   8  -4  11   15.79    2.42
  -8  -4 -11   18.52    2.59
   8   4  11   14.23    2.29
   8   4  11   14.98    2.21
  -8   4 -11   18.01    1.63
   9   4  11    8.01    1.59
  12  -5 -11    4.48    3.13
 -12  -5  11   11.57    1.58
  11  -5 -11    7.10    3.00
 -11  -5  11    3.69    0.96
 -11   5  11    0.96    1.02
  11   5 -11    1.14    1.50
  10  -5 -11    0.72    2.81
 -10  -5  11    2.66    0.86
 -10   5  11    1.47    0.93
  10   5 -11   -0.18    1.75
  10   5 -11    0.59    1.15
 -10   5  11   -1.15    0.88
   9  -5 -11   13.99    2.84
  -9  -5  11   11.42    1.37
   9   5 -11    9.59    2.36
  -9   5  11   12.42    1.67
  -9   5  11    9.63    1.38
   9   5 -11    9.95    1.61
   8  -5 -11    0.43    1.70
  -8  -5  11    1.90    0.73
   8   5 -11    2.17    1.86
   8   5 -11    2.28    0.88
  -8   5  11    2.18    0.78
  -8   5  11    2.21    0.93
   7  -5 -11   40.71    3.74
  -7  -5  11   46.68    3.69
  -7  -5  11   42.36    3.16
   7   5 -11   35.04    3.50
  -7   5  11   43.41    3.17
  -7   5  11   41.73    3.28
   7   5 -11   41.43    3.20
   6  -5 -11    2.89    1.04
  -6  -5  11    2.70    0.61
  -6  -5  11    3.33    1.17
  -6   5  11    2.45    0.79
   6   5 -11    3.40    0.65
  -6   5  11    3.60    0.75
   6   5 -11    1.89    1.31
  -5  -5  11  119.48    8.45
   5  -5 -11  107.00    8.61
  -5  -5  11  118.55    8.71
  -5   5  11  119.11    8.52
  -5   5  11  122.08    8.47
   5   5 -11  123.11    8.61
   5   5 -11  127.30    8.48
  -4  -5  11    4.77    0.76
  -4  -5  11    5.41    1.18
   4  -5 -11    4.95    1.21
   4  -5 -11    6.97    1.27
  -4   5  11    6.20    0.88
   4   5 -11    6.86    1.12
  -4   5  11    5.70    0.90
  -3  -5  11   27.79    2.69
  -3  -5  11   28.67    2.24
   3   5 -11   31.55    2.27
   3   5 -11   30.03    2.44
   2  -5 -11    0.55    0.51
  -2  -5  11    0.35    0.72
   2  -5 -11    0.62    0.60
  -2  -5  11   -0.31    0.86
  -2   5  11    0.16    0.62
  -2   5  11   -0.01    0.83
   2   5 -11    1.00    0.81
  -1  -5  11    4.62    1.20
   1  -5 -11    5.31    0.87
   1  -5 -11    5.07    0.69
   1   5 -11    3.97    0.87
  -1   5  11    4.77    0.87
  -1   5  11    4.59    1.27
   0  -5 -11    0.48    0.71
   0  -5  11   -0.29    1.03
   0   5 -11   -0.26    0.40
   0   5  11   -0.68    0.65
   0   5  11    1.52    1.15
   0   5 -11   -0.26    0.66
  -1  -5 -11    1.95    0.85
   1  -5  11    2.08    1.29
   1   5  11    4.05    0.90
   1   5  11    3.32    1.34
  -1   5 -11    2.90    0.78
   2  -5  11   -0.94    1.42
  -2  -5 -11   -0.13    0.85
   2   5  11    0.68    0.84
  -2   5 -11    0.21    0.70
   2   5  11   -0.11    1.28
  -3  -5 -11   32.88    2.81
   3  -5  11   27.82    3.47
   3   5  11   36.43    2.82
  -3   5 -11   33.90    2.61
  -4  -5 -11    2.98    1.30
   4  -5  11    2.48    1.72
  -4   5 -11    4.65    0.91
   4   5  11    1.84    1.35
   4   5  11    3.65    1.16
  -5  -5 -11   52.55    4.17
   5   5  11   49.92    4.21
  -5   5 -11   51.92    3.83
   5   5  11   49.14    4.30
  -6  -5 -11    2.78    1.60
   6  -5  11   -0.68    1.76
   6   5  11    1.39    1.36
   6   5  11    1.11    1.37
  -6   5 -11    2.99    0.86
   7  -5  11   37.97    3.83
  -7  -5 -11   38.24    3.79
  -7   5 -11   40.62    3.10
   7   5  11   36.57    3.56
   7   5  11   42.62    3.54
  -8  -5 -11    1.24    2.05
   8   5  11   -0.27    1.30
 -11  -6  11   21.21    2.24
  11  -6 -11   30.65    4.76
 -10  -6  11    6.87    1.15
   9  -6 -11   42.50    4.86
  -9  -6  11   43.49    3.28
   9   6 -11   35.59    3.65
  -9   6  11   45.90    3.36
  -8  -6  11    8.76    2.60
   8  -6 -11    6.50    2.12
  -8  -6  11    4.71    0.87
  -8   6  11    6.88    1.12
   8   6 -11    5.42    2.83
   8   6 -11    5.27    1.23
   7  -6 -11   28.15    3.26
  -7  -6  11   29.15    2.35
  -7  -6  11   33.51    3.21
  -7   6  11   30.09    2.47
   7   6 -11   29.89    3.04
   7   6 -11   31.08    2.63
   6  -6 -11    2.11    1.21
  -6  -6  11    3.73    1.16
  -6  -6  11    2.45    0.59
  -6   6  11    1.60    0.93
   6   6 -11   -0.28    1.18
  -6   6  11    2.39    0.67
   6   6 -11    1.82    0.86
   5  -6 -11    6.36    1.32
  -5  -6  11    5.95    1.33
  -5   6  11    2.14    0.74
   5   6 -11    4.52    1.41
  -5   6  11    3.75    0.82
  -4  -6  11    5.25    1.32
   4  -6 -11    4.94    1.20
   4  -6 -11    5.77    0.99
   4  -6 -11    3.71    1.27
   4   6 -11    6.12    1.27
  -4   6  11    6.88    1.00
  -3  -6  11   15.79    2.06
   3  -6 -11   11.34    2.09
   3  -6 -11   13.84    1.42
   3   6 -11   16.18    1.63
   2  -6 -11    5.52    1.67
   2  -6 -11    5.91    0.96
  -2  -6  11    7.29    1.42
   2  -6 -11    6.57    0.88
   2   6 -11    7.97    1.19
  -2   6  11    6.18    1.10
   1  -6 -11   67.50    5.07
  -1  -6  11   70.50    5.44
   1   6 -11   69.54    5.09
  -1   6  11   69.59    5.15
   0  -6 -11    8.13    1.35
   0  -6  11    9.00    1.95
   0   6  11   10.53    1.40
   0   6 -11   11.30    1.22
  -1  -6 -11   39.66    3.11
  -1   6 -11   34.63    3.07
   1   6  11   41.20    3.16
  -2  -6 -11    7.75    1.37
   2  -6  11   10.87    2.01
  -2   6 -11    7.15    1.20
   2   6  11    9.39    1.54
   3  -6  11   35.33    4.06
  -3   6 -11   41.01    3.15
   3   6  11   42.89    3.40
  -4  -6 -11    2.09    1.40
   4  -6  11    2.01    1.93
   4   6  11    2.63    1.31
  -4   6 -11    1.63    0.87
   5  -6  11    1.49    1.96
  -5  -6 -11    0.56    1.65
   5   6  11    1.11    1.39
  -5   6 -11    2.97    0.93
   6  -6  11    0.57    2.10
  -6  -6 -11    1.77    1.86
   6   6  11    2.10    1.48
  -6   6 -11    1.94    0.92
  -7  -6 -11    8.66    1.88
   7  -6  11    5.22    2.14
   7   6  11    7.97    1.69
  10  -7 -11    3.18    3.97
   9  -7 -11    1.77    2.34
  -9   7  11    4.04    1.10
   8  -7 -11   20.35    3.56
  -8  -7  11   23.81    2.95
   8   7 -11   26.03    2.77
  -8   7  11   20.57    2.11
  -7  -7  11   15.48    2.51
   7  -7 -11    9.19    2.04
   7   7 -11   10.39    2.07
  -7   7  11   10.64    1.54
  -6  -7  11   39.61    3.71
   6  -7 -11   36.99    3.69
  -6   7  11   39.68    3.12
   6   7 -11   40.67    3.53
   5  -7 -11   28.33    2.90
  -5  -7  11   27.17    2.86
  -5   7  11   24.34    2.24
   5   7 -11   20.09    2.52
   4  -7 -11   39.50    3.73
  -4  -7  11   42.68    3.87
   4  -7 -11   39.01    4.09
  -4   7  11   48.78    3.35
   4   7 -11   46.14    3.58
  -3  -7  11   10.35    2.10
   3  -7 -11    5.80    1.63
   3   7 -11    9.56    1.50
   2  -7 -11    6.51    2.10
  -2  -7  11    8.89    1.68
   2   7 -11    9.10    1.43
   1  -7 -11   -0.33    1.69
   1  -7 -11   -0.14    0.89
  -1  -7  11    4.45    1.59
  -1   7  11    1.85    1.26
   1   7 -11    0.21    0.99
   0  -7  11    3.87    1.45
   0  -7 -11   -0.28    1.85
   0  -7 -11   -1.58    0.94
   0   7 -11    0.79    0.95
   1  -7  11    1.24    1.62
  -1  -7 -11   -0.86    2.10
  -1   7 -11    2.02    0.94
   1   7  11    1.40    1.13
  -2  -7 -11    2.32    2.42
   2  -7  11    6.93    2.00
   2   7  11    2.75    1.34
  -2   7 -11    4.62    1.09
  -3  -7 -11    5.53    2.59
   3  -7  11    9.45    2.34
  -3  -7 -11    5.54    1.64
  -3   7 -11    8.91    1.30
   3   7  11    7.13    1.61
   4  -7  11   31.67    4.04
  -4  -7 -11   25.80    4.38
  -4  -7 -11   33.94    3.36
   4   7  11   36.81    3.26
  -4   7 -11   36.96    2.84
  -5  -7 -11   11.20    2.79
   5  -7  11    8.72    2.56
  -5  -7 -11   11.61    2.22
   5   7  11   10.42    2.12
  -5   7 -11   13.29    1.53
   6  -7  11   11.72    2.46
   6   7  11    9.96    1.73
   8  -8 -11   35.42    3.86
  -8  -8  11   42.38    3.42
  -8   8  11   29.45    2.80
  -7  -8  11    2.44    1.59
   7  -8 -11    0.20    1.63
  -7   8  11   -0.50    1.14
   6  -8 -11   10.74    1.96
   6   8 -11   11.59    1.94
  -6   8  11   10.61    1.54
  -5  -8  11    1.86    1.47
   5  -8 -11    2.10    1.66
  -5   8  11    1.03    1.07
   5   8 -11    1.19    1.53
   4  -8 -11   17.68    2.20
   4  -8 -11   15.95    2.72
  -4  -8  11   18.23    2.71
  -4   8  11   20.81    1.70
   4   8 -11   16.63    2.21
   3  -8 -11    0.75    1.43
  -3  -8  11    1.34    1.67
   3   8 -11    3.06    1.41
  -2  -8  11   30.87    3.23
   2  -8 -11   23.77    3.25
   2   8 -11   30.61    2.57
  -2   8  11   26.27    2.71
  -1  -8  11    4.36    1.71
   1  -8 -11    0.44    1.82
  -1   8  11    0.78    1.23
   1   8 -11    0.77    1.13
   0  -8 -11   39.95    4.69
   0  -8  11   51.69    4.37
   0   8  11   48.28    3.98
   0   8 -11   50.45    3.82
   1  -8  11    2.84    1.78
  -1  -8 -11    2.27    2.23
  -1   8 -11    2.40    1.11
   1   8  11    0.19    1.32
  -2  -8 -11   32.53    4.57
   2  -8  11   47.28    4.25
   2   8  11   36.21    3.44
  -2   8 -11   39.87    3.17
   3  -8  11    2.51    2.07
  -3  -8 -11    3.24    2.34
  -3   8 -11    1.46    0.94
   3   8  11    0.07    1.40
   4  -8  11    8.03    2.15
   4   8  11    8.97    1.69
  -6   9  11   28.62    2.49
   5  -9 -11   24.06    3.12
   5   9 -11   19.13    2.27
   4  -9 -11   34.77    3.73
  -4  -9  11   38.57    3.55
   4   9 -11   39.02    3.35
   3  -9 -11    5.44    1.75
   3   9 -11    6.98    1.63
   2  -9 -11    6.11    1.81
  -2   9  11    3.65    1.35
   1  -9 -11    1.41    1.76
   1   9 -11    2.46    1.14
  -1   9  11   -0.01    1.28
   0  -9 -11    2.43    1.80
   0  -9  11    7.56    2.89
   0   9 -11    2.46    0.94
   0   9  11    0.35    1.32
   1   9  11    2.44    1.18
  14   0 -12    9.24    1.47
  13   0 -12    1.83    1.85
 -13   0  12    0.40    0.90
  13   0 -12    0.27    1.20
  12   0 -12   42.24    3.51
 -12   0  12   41.36    3.48
  12   0 -12   45.90    4.06
 -11   0  12    0.15    0.79
  11   0 -12   -0.51    1.51
  11   0 -12   -0.18    0.99
  10   0 -12   75.26    5.75
  10   0 -12   81.18    5.99
 -10   0  12   77.50    5.73
   9   0 -12    1.15    1.12
  -9   0  12    0.44    0.65
   9   0 -12   -1.00    0.75
  -8   0  12   69.50    4.94
   8   0 -12   67.72    5.08
   8   0 -12   65.51    4.93
  -7   0  12    0.01    0.48
   7   0 -12    0.86    0.59
   7   0 -12    0.31    0.92
   6   0 -12   37.95    2.98
  -6   0  12   41.53    2.99
   6   0 -12   39.71    3.11
   5   0 -12    0.24    0.54
  -5   0  12    0.11    0.43
   4   0 -12   23.90    1.92
  -4   0  12   24.99    1.92
  -3   0  12   -0.50    0.99
  -3   0  12    0.16    0.40
   3   0 -12   -0.41    0.48
   2   0 -12  101.44    7.15
  -2   0  12  100.82    7.19
   1   0 -12    0.48    0.45
  -1   0  12    0.74    0.92
  -1   0  12   -0.11    0.37
   0   0 -12  113.93    8.69
   0   0 -12  115.29    8.65
   0   0  12  141.30    9.04
  -1   0 -12    0.03    0.41
  -1   0 -12    0.87    0.61
   1   0  12    0.75    0.89
  -2   0 -12   87.36    6.55
  -2   0 -12   88.64    6.63
   2   0  12  103.34    6.95
   3   0  12   -0.77    0.91
  -3   0 -12    0.02    0.45
  -3   0 -12    0.22    0.66
  -4   0 -12   15.33    1.47
  -4   0 -12   12.00    1.10
   4   0  12   12.48    1.80
   5   0  12   -0.30    1.12
  -5   0 -12   -0.36    0.89
  -6   0 -12    0.84    1.28
  -7   0 -12    0.50    1.40
   7   0  12    0.94    1.40
   8   0  12   42.84    3.71
  -8   0 -12   36.62    3.76
  -9   0 -12    2.49    1.82
   9   0  12   -1.80    1.54
  14  -1 -12   32.48    3.91
  14   1 -12   30.12    3.28
  14   1 -12   26.28    2.65
  13  -1 -12    2.83    1.45
  13  -1 -12    5.86    2.10
 -13  -1  12    9.13    1.39
  13   1 -12    4.26    2.04
 -13   1  12    7.20    1.25
  13   1 -12    4.73    1.55
  12  -1 -12    4.45    1.89
  12  -1 -12    6.01    1.44
 -12  -1  12    6.10    1.12
 -12   1  12    6.23    1.16
  12   1 -12    3.22    1.87
  12   1 -12    4.32    1.37
  11  -1 -12    1.92    1.62
  11  -1 -12    0.05    1.05
 -11  -1  12    2.36    0.88
  11   1 -12    1.33    1.11
 -11   1  12    0.74    0.88
  11   1 -12    1.94    1.47
  10  -1 -12    2.36    1.48
  10  -1 -12    1.69    1.19
 -10  -1  12    2.32    0.72
  10   1 -12    2.76    1.25
 -10   1  12    0.90    0.87
  10   1 -12    1.29    1.04
   9  -1 -12    8.58    1.20
   9  -1 -12   10.20    1.70
  -9  -1  12    7.23    1.10
   9   1 -12    7.27    1.52
  -9   1  12    7.67    1.17
   9   1 -12    9.72    1.36
  -8  -1  12   18.33    1.68
   8  -1 -12   21.14    2.27
   8  -1 -12   18.50    1.72
   8   1 -12   21.31    1.94
  -8   1  12   19.53    1.76
   8   1 -12   21.06    1.80
  -7  -1  12   10.91    1.12
   7  -1 -12   11.09    1.15
   7  -1 -12   10.21    1.82
  -7   1  12   12.68    1.19
   7   1 -12   10.78    1.22
   7   1 -12   11.86    1.37
  -6  -1  12   84.41    5.93
   6  -1 -12   80.90    5.91
   6  -1 -12   74.65    6.01
  -6   1  12   87.36    5.95
   6   1 -12   85.77    5.95
   5  -1 -12   55.53    4.15
  -5  -1  12   56.81    4.16
  -5   1  12   57.16    4.18
   5   1 -12   59.62    4.19
  -4  -1  12  108.01    8.72
  -4  -1  12  120.72    8.46
   4  -1 -12  118.21    8.44
  -4   1  12  125.75    8.48
   4   1 -12  124.43    8.46
  -3  -1  12   21.10    1.67
   3  -1 -12   20.90    1.68
  -3  -1  12   21.22    2.25
  -3   1  12   20.65    1.68
  -3   1  12   21.94    2.36
   3   1 -12   21.17    1.70
  -2  -1  12   15.61    1.30
  -2  -1  12   16.72    1.95
   2  -1 -12   14.04    1.28
  -2   1  12   15.99    1.31
   2   1 -12   14.93    1.31
  -1  -1  12    0.51    0.94
  -1  -1  12    0.42    0.40
   1  -1 -12    0.51    0.46
  -1   1  12   -1.00    0.99
   1   1 -12    0.12    0.48
  -1   1  12   -0.01    0.39
   0  -1 -12    2.69    0.61
   0  -1  12    2.67    1.01
   0   1 -12    2.87    0.59
   0   1 -12    2.11    0.60
   0   1  12    2.53    1.11
   1  -1  12    1.01    0.89
  -1  -1 -12    0.93    0.58
  -1  -1 -12    1.05    0.45
  -1   1 -12    0.92    0.57
  -1   1 -12    0.62    0.46
   1   1  12    0.98    1.05
   2  -1  12   13.59    1.63
  -2  -1 -12   12.06    1.05
  -2  -1 -12   11.30    1.26
  -2   1 -12   12.18    1.10
   2   1  12   12.49    1.67
  -2   1 -12   12.06    1.25
  -3  -1 -12   16.28    1.26
   3  -1  12   16.95    1.85
  -3  -1 -12   15.97    1.55
  -3   1 -12   16.39    1.33
  -3   1 -12   14.49    1.48
   3   1  12   15.50    1.92
   4  -1  12   61.54    4.56
  -4  -1 -12   54.67    4.29
  -4   1 -12   54.45    4.26
  -4   1 -12   54.42    4.13
   4   1  12   60.53    4.54
   4   1  12   60.00    4.60
  -5  -1 -12   15.39    1.78
   5  -1  12   17.45    2.05
   5   1  12   18.30    2.17
   5   1  12   15.77    1.56
  -5   1 -12   16.53    1.38
  -5   1 -12   14.88    1.75
  -6  -1 -12   42.91    3.53
   6   1  12   42.85    4.09
  -6   1 -12   42.59    3.55
   7  -1  12   21.05    2.43
  -7  -1 -12   13.58    2.35
   7   1  12   18.33    2.35
  -7   1 -12   18.76    2.45
   8  -1  12   15.99    2.43
  -8  -1 -12   14.92    2.51
  -8   1 -12   14.56    2.38
   8   1  12   14.14    2.35
  -9  -1 -12    5.39    1.54
   9  -1  12   -0.36    1.57
  -9   1 -12    4.79    1.90
   9   1  12    0.74    1.58
  13  -2 -12   42.89    3.35
 -13  -2  12   38.83    3.17
  13  -2 -12   42.79    4.40
  13   2 -12   38.45    3.83
  13   2 -12   40.63    3.32
 -13   2  12   38.06    3.28
  12  -2 -12    7.74    2.34
  12  -2 -12    7.38    1.43
 -12  -2  12    5.97    1.10
 -12   2  12    6.20    1.25
  12   2 -12    6.67    1.79
  12   2 -12    6.47    1.73
 -11  -2  12   31.18    2.70
  11  -2 -12   32.54    2.79
  11  -2 -12   39.48    4.03
 -11   2  12   31.05    2.80
  11   2 -12   32.65    3.20
  10  -2 -12    9.64    1.35
 -10  -2  12   10.36    1.28
  10  -2 -12   13.40    2.73
  10   2 -12    9.98    1.64
  10   2 -12   13.39    1.75
 -10   2  12    7.89    1.41
   9  -2 -12   47.95    3.97
  -9  -2  12   51.18    3.97
   9  -2 -12   56.63    4.56
   9   2 -12   52.45    4.15
  -9   2  12   56.77    4.05
   9   2 -12   54.77    4.09
   8  -2 -12    9.44    1.60
   8  -2 -12    8.27    1.12
  -8  -2  12    8.75    1.06
  -8   2  12    9.42    1.21
   8   2 -12    9.09    1.34
   8   2 -12    9.28    1.31
   7  -2 -12   53.28    4.20
  -7  -2  12   56.60    4.21
  -7   2  12   62.04    4.28
   7   2 -12   59.28    4.29
   7   2 -12   56.74    4.25
   6  -2 -12    4.45    0.76
  -6  -2  12    4.31    0.69
   6  -2 -12    3.55    2.66
   6   2 -12    5.29    0.92
  -6   2  12    5.27    0.82
   5  -2 -12    4.84    1.08
   5  -2 -12    4.39    0.70
  -5  -2  12    4.47    0.69
  -5  -2  12    3.13    1.21
  -5   2  12    4.91    0.73
   5   2 -12    4.71    0.84
  -4  -2  12    2.78    0.53
  -4  -2  12    1.82    1.09
   4  -2 -12    3.88    0.67
   4   2 -12    3.16    0.66
  -4   2  12    2.97    0.59
   3  -2 -12   15.16    1.27
  -3  -2  12   13.56    1.24
  -3   2  12   13.04    2.04
  -3   2  12   15.31    1.32
   3   2 -12   16.24    1.36
   2  -2 -12   10.86    1.01
  -2  -2  12    7.66    1.63
  -2  -2  12   10.62    1.00
  -2   2  12   12.27    1.06
   2   2 -12   11.19    1.08
  -1  -2  12  158.78   10.70
   1  -2 -12  146.31   10.64
   1   2 -12  150.25   10.68
   0  -2 -12   13.68    1.14
   0  -2 -12   14.42    1.32
   0  -2  12   10.21    1.81
   0   2 -12   14.33    1.26
   0   2 -12   15.01    1.23
  -1  -2 -12   39.49    2.63
   1  -2  12   30.48    3.15
  -1  -2 -12   38.57    2.78
  -1   2 -12   37.71    2.71
   1   2  12   30.18    3.21
  -1   2 -12   38.32    2.74
  -2  -2 -12   10.55    1.23
   2  -2  12    9.81    1.65
  -2  -2 -12   10.94    0.90
  -2   2 -12   10.56    1.20
  -2   2 -12   11.95    1.05
   2   2  12   11.11    1.06
   2   2  12    8.22    1.73
   3  -2  12   48.97    3.78
  -3  -2 -12   44.55    3.39
   3   2  12   42.33    3.78
  -3   2 -12   42.65    3.33
  -3   2 -12   43.74    3.26
  -4  -2 -12    1.80    0.86
   4  -2  12    2.23    1.24
  -4   2 -12    1.99    0.84
  -4   2 -12    1.59    0.62
   4   2  12    1.13    1.25
   4   2  12    1.86    0.69
   5  -2  12    5.79    1.42
  -5   2 -12    7.58    0.92
   5   2  12    4.51    1.50
   5   2  12    5.66    0.98
  -5   2 -12    4.45    1.13
   6  -2  12   -0.02    1.34
  -6  -2 -12   -1.86    1.20
  -6   2 -12   -0.48    0.58
  -6   2 -12   -1.22    1.24
   6   2  12    0.16    1.34
   6   2  12   -0.09    0.92
  -7  -2 -12   14.22    2.31
   7  -2  12   18.21    2.31
   7   2  12   16.43    2.32
  -7   2 -12   15.35    2.20
   8  -2  12    6.37    1.80
  -8  -2 -12    1.30    1.80
   8   2  12    4.15    1.64
  -8   2 -12    6.13    1.99
  -9  -2 -12   24.63    3.97
  13  -3 -12   14.37    1.90
  13  -3 -12   23.49    4.12
 -13  -3  12   18.84    2.27
 -13   3  12   14.29    1.90
  12  -3 -12    3.89    2.68
 -12  -3  12    2.25    0.92
  12  -3 -12    0.70    1.25
  12   3 -12   -3.15    1.48
 -12   3  12    1.84    1.14
  12   3 -12    0.39    1.57
  11  -3 -12    8.72    2.61
 -11  -3  12    2.35    0.87
  11  -3 -12    2.69    1.26
 -11   3  12    2.21    1.15
  11   3 -12    3.78    1.65
  10  -3 -12   -0.75    2.19
  10  -3 -12    0.97    1.01
 -10  -3  12    1.55    0.76
 -10   3  12   -0.27    0.89
  10   3 -12   -0.46    1.13
   9  -3 -12   19.80    1.87
  -9  -3  12   19.27    1.82
   9  -3 -12   18.35    3.08
   9   3 -12   20.96    2.24
  -9   3  12   21.87    2.02
   9   3 -12   21.77    2.04
  -8  -3  12    0.58    0.59
   8  -3 -12    1.73    0.76
   8  -3 -12    0.15    1.51
   8   3 -12    2.01    1.12
  -8   3  12    0.70    0.79
   8   3 -12    0.89    0.67
   7  -3 -12   30.65    2.54
   7  -3 -12   29.02    3.10
  -7  -3  12   31.01    2.49
   7   3 -12   35.23    2.71
  -7   3  12   35.99    2.63
   7   3 -12   33.00    2.52
   6  -3 -12    4.44    1.18
   6  -3 -12    4.82    0.84
  -6  -3  12    4.23    0.72
   6   3 -12    4.36    1.06
   5  -3 -12  153.67   11.40
  -5  -3  12  157.58   11.54
  -5  -3  12  157.87   11.32
   5  -3 -12  154.42   11.31
   5   3 -12  174.18   11.40
  -5   3  12  167.22   11.38
   4  -3 -12    4.52    0.70
  -4  -3  12    3.79    0.69
  -4  -3  12    4.04    1.16
   4   3 -12    4.88    0.86
  -4   3  12    4.82    0.78
  -3  -3  12   58.58    4.74
   3  -3 -12   64.29    4.38
  -3  -3  12   59.60    4.37
   3  -3 -12   53.93    4.39
  -3   3  12   60.91    4.42
  -3   3  12   62.29    4.70
   3   3 -12   65.32    4.44
   2  -3 -12    1.64    0.50
  -2  -3  12    0.74    0.42
  -2  -3  12    0.55    0.98
   2   3 -12    0.73    0.60
  -2   3  12   -0.50    1.00
  -2   3  12    0.66    0.49
  -1  -3  12   -0.03    0.94
  -1  -3  12    0.98    0.45
   1  -3 -12    1.55    0.50
   1  -3 -12    1.09    0.56
  -1   3  12    0.96    1.23
  -1   3  12    0.88    0.49
   1   3 -12    0.95    0.57
   0  -3 -12   -0.08    0.58
   0  -3 -12   -0.35    0.43
   0  -3  12   -1.23    1.02
   0   3 -12    0.60    0.52
   0   3  12    0.81    0.50
   0   3  12    0.98    1.16
   0   3 -12    0.80    0.55
   1  -3  12    1.60    1.15
  -1  -3 -12    3.16    0.78
  -1  -3 -12    4.34    0.52
   1   3  12    3.58    0.75
  -1   3 -12    3.46    0.68
   1   3  12    2.11    1.28
  -1   3 -12    4.90    0.76
   2  -3  12   -0.64    1.22
  -2  -3 -12    0.63    0.73
   2   3  12    0.37    1.27
  -2   3 -12   -0.15    0.59
  -2   3 -12    0.40    0.65
   2   3  12   -0.02    0.63
  -3  -3 -12   42.87    3.29
   3  -3  12   36.86    3.76
   3   3  12   37.12    3.66
  -3   3 -12   43.26    3.20
  -3   3 -12   46.03    3.17
   3   3  12   44.91    3.22
  -4  -3 -12    2.07    1.02
   4  -3  12    1.58    1.41
  -4   3 -12    1.59    0.91
   4   3  12    2.42    0.84
   4   3  12    0.94    1.34
  -4   3 -12    2.56    0.75
  -5  -3 -12   45.48    3.66
   5   3  12   47.42    3.52
   5   3  12   45.08    3.97
  -5   3 -12   43.47    3.61
  -5   3 -12   46.06    3.42
  -6  -3 -12    4.11    1.37
   6  -3  12    2.37    1.50
   6   3  12    2.42    1.43
  -6   3 -12    2.28    1.41
  -6   3 -12    3.01    0.78
  -7  -3 -12   41.83    4.07
   7  -3  12   54.41    4.15
  -7   3 -12   47.41    3.50
   7   3  12   44.79    4.08
  -7   3 -12   46.30    3.92
  -8  -3 -12    3.80    1.71
   8  -3  12    0.74    1.62
   8   3  12   -1.38    1.39
   9   3  12   -0.36    1.42
 -13   4  12   22.69    2.18
  12  -4 -12   27.37    4.30
 -12  -4  12   18.97    2.00
  12  -4 -12   22.09    2.11
 -12   4  12   18.55    2.33
  11  -4 -12   17.77    3.31
 -11  -4  12   14.74    1.75
 -11   4  12   15.43    2.10
  11   4 -12   14.93    2.35
  10  -4 -12   25.05    4.11
 -10  -4  12   26.68    2.30
  10   4 -12   23.56    2.95
 -10   4  12   28.13    2.56
  -9  -4  12   23.88    2.25
   9  -4 -12   26.62    3.83
   9   4 -12   27.31    2.46
   9   4 -12   24.10    2.80
  -9   4  12   27.97    2.44
   8  -4 -12   23.59    3.16
  -8  -4  12   21.85    1.99
   8   4 -12   25.19    2.11
  -8   4  12   25.53    2.21
   8   4 -12   20.06    2.52
  -7  -4  12   23.42    2.08
   7  -4 -12   25.99    2.74
  -7   4  12   26.96    2.26
   7   4 -12   26.76    2.52
   7   4 -12   28.07    2.21
   6  -4 -12   13.32    1.75
  -6  -4  12   13.17    1.20
   6  -4 -12    9.79    1.29
  -6  -4  12   12.91    1.92
   6   4 -12   12.62    1.65
  -6   4  12   12.46    1.34
  -5  -4  12    1.41    1.05
   5  -4 -12    1.65    0.78
  -5  -4  12    0.95    0.47
   5  -4 -12    2.14    0.64
   5   4 -12    2.83    1.11
  -5   4  12    1.62    0.64
  -4  -4  12    7.99    0.90
   4  -4 -12   10.99    1.25
  -4  -4  12    7.83    1.61
   4  -4 -12    8.69    0.97
   4   4 -12    8.45    1.22
  -3  -4  12    6.57    1.29
   3  -4 -12    7.14    1.18
   3  -4 -12    6.61    0.82
  -3  -4  12    5.48    0.79
  -3   4  12    6.77    0.87
   3   4 -12    6.60    1.04
  -3   4  12    7.63    1.43
   2  -4 -12   39.19    2.68
  -2  -4  12   33.83    3.13
   2  -4 -12   36.10    2.74
  -2  -4  12   35.71    2.67
   2   4 -12   34.31    2.76
  -2   4  12   35.64    2.77
   1  -4 -12   64.50    4.71
   1  -4 -12   66.33    4.62
  -1  -4  12   64.05    5.12
   1   4 -12   67.06    4.71
  -1   4  12   60.79    5.04
  -1   4  12   64.62    4.70
   0  -4  12   32.74    3.38
   0  -4 -12   38.79    2.90
   0  -4 -12   38.47    2.70
   0   4  12   32.96    3.32
   0   4  12   39.77    2.86
   0   4 -12   38.18    2.83
   0   4 -12   36.82    2.78
  -1  -4 -12   17.88    1.68
   1  -4  12   13.71    2.35
   1   4  12   16.90    2.28
  -1   4 -12   18.16    1.55
   1   4  12   18.40    1.61
  -1   4 -12   17.09    1.53
  -2  -4 -12   28.75    2.42
   2  -4  12   25.39    3.02
  -2   4 -12   28.64    2.25
   2   4  12   30.78    2.37
   2   4  12   27.57    2.98
  -2   4 -12   29.87    2.29
   3  -4  12   13.66    2.54
  -3  -4 -12   18.13    1.90
   3   4  12   17.92    2.40
  -3   4 -12   21.10    1.68
  -3   4 -12   17.04    1.64
   3   4  12   22.98    2.42
  -4  -4 -12    4.19    1.22
  -4   4 -12    6.49    0.98
  -4   4 -12    3.14    0.88
   4   4  12    4.88    1.55
   5  -4  12    3.15    1.64
  -5  -4 -12    1.66    1.26
  -5   4 -12    4.25    0.87
   5   4  12    3.09    1.34
   5   4  12    2.13    1.44
  -6  -4 -12    0.20    1.52
   6  -4  12    2.46    1.68
   6   4  12   -0.98    1.45
  -6   4 -12    1.01    0.80
  -7  -4 -12    7.19    1.87
   7  -4  12    9.05    2.00
  -7   4 -12    8.83    1.25
   7   4  12    5.03    1.63
  -8  -4 -12   12.64    2.27
   8   4  12   10.11    1.84
  12  -5 -12    8.28    3.23
 -12  -5  12    5.01    1.06
  11  -5 -12    4.82    2.91
  10  -5 -12   -1.11    2.75
 -10  -5  12    2.41    0.89
 -10   5  12    3.70    1.12
  10   5 -12    1.73    2.13
   9  -5 -12    4.60    2.44
  -9  -5  12    0.46    0.77
  -9   5  12    1.89    0.94
   9   5 -12   -2.25    2.13
  -8  -5  12   20.20    1.86
   8  -5 -12   21.88    3.20
   8   5 -12   14.50    4.05
  -8   5  12   21.78    2.12
  -8   5  12   21.37    1.89
  -7  -5  12    0.33    0.62
   7  -5 -12    0.88    1.39
  -7  -5  12    2.70    1.42
  -7   5  12    0.43    0.88
  -7   5  12    2.13    1.40
   7   5 -12   -0.24    1.56
  -6  -5  12   77.87    5.98
   6  -5 -12   69.66    5.77
  -6  -5  12   73.89    5.53
  -6   5  12   80.43    5.66
   6   5 -12   83.48    5.82
  -5  -5  12    4.95    0.82
  -5  -5  12    6.17    1.40
   5  -5 -12    6.86    1.40
   5   5 -12    7.15    1.27
  -5   5  12    4.16    0.89
   4  -5 -12   98.93    7.15
  -4  -5  12  101.09    7.14
   4  -5 -12   91.62    7.26
  -4  -5  12  102.98    7.52
  -4   5  12  100.80    7.21
   4   5 -12  108.30    7.30
   3  -5 -12    2.00    0.70
   3  -5 -12    2.70    0.64
  -3  -5  12    2.25    1.11
  -3  -5  12    2.32    0.55
   3   5 -12    2.95    0.94
   2  -5 -12   18.82    1.65
  -2  -5  12   17.79    2.23
  -2  -5  12   17.00    1.46
   2  -5 -12   19.14    1.50
  -2   5  12   17.14    1.83
   2   5 -12   18.15    1.73
   1  -5 -12    0.28    0.45
   1  -5 -12    0.92    0.74
  -1  -5  12    0.77    1.21
   1   5 -12    0.71    0.78
  -1   5  12   -0.55    1.26
   1   5 -12    1.78    0.48
   0  -5  12    1.91    1.34
   0  -5 -12    2.49    0.89
   0   5  12    1.24    1.44
   0   5 -12    1.60    0.78
   1  -5  12   -0.43    1.42
  -1  -5 -12   -1.15    0.82
   1   5  12   -0.12    0.96
   1   5  12   -1.80    1.35
  -1   5 -12   -0.98    0.75
  -2  -5 -12   12.11    1.58
   2   5  12   11.71    1.56
  -2   5 -12   12.85    1.75
  -3  -5 -12   -0.94    1.86
   3  -5  12    1.46    1.71
   3   5  12   -0.72    1.45
   3   5  12    0.65    1.01
  -3   5 -12    1.13    0.78
  -4  -5 -12   50.26    4.04
   4   5  12   43.30    4.35
   4   5  12   54.73    3.99
  -4   5 -12   52.02    3.82
   5  -5  12    3.67    1.98
  -5  -5 -12    2.87    1.50
   5   5  12    1.45    1.34
  -5   5 -12    2.07    0.92
   5   5  12   -0.45    1.52
   6  -5  12   41.95    4.16
  -6  -5 -12   39.70    3.82
   6   5  12   44.58    3.50
  -6   5 -12   43.69    3.28
   6   5  12   39.01    3.86
   7  -5  12    2.03    1.92
  -7  -5 -12    2.30    1.78
  -7   5 -12    2.17    0.92
  -8   5 -12   16.47    1.76
 -11  -6  12    6.34    1.19
  11  -6 -12    7.28    3.49
  10  -6 -12   46.41    5.29
 -10  -6  12   34.07    2.89
 -10   6  12   34.15    2.90
   9  -6 -12    6.72    2.47
  -9  -6  12    3.52    0.82
  -9   6  12    4.86    1.14
   9   6 -12    2.55    2.03
   8  -6 -12   30.84    3.83
  -8  -6  12   34.24    3.11
   8   6 -12   21.09    3.27
  -8   6  12   28.31    2.49
  -7  -6  12    4.50    0.92
   7  -6 -12    5.81    1.59
  -7   6  12    5.58    1.06
   7   6 -12    5.98    1.80
   6  -6 -12   14.81    2.05
   6   6 -12   13.08    2.24
  -6   6  12   15.30    1.55
   5  -6 -12    2.00    1.08
  -5  -6  12   -0.25    1.29
   4  -6 -12   10.38    1.25
  -4  -6  12   12.03    1.96
   4  -6 -12   11.85    1.81
   4  -6 -12    8.97    1.75
   4   6 -12   13.58    2.12
   3  -6 -12    3.45    0.82
   3  -6 -12    3.44    0.74
  -3  -6  12    3.31    1.63
   3  -6 -12    1.14    1.36
   3   6 -12    4.10    1.46
   2  -6 -12   42.57    2.99
   2  -6 -12   37.94    3.15
  -2   6  12   40.40    3.25
   1  -6 -12   10.22    1.47
  -1  -6  12   12.06    2.19
  -1   6  12   13.38    1.58
   1   6 -12   11.56    1.62
   0  -6  12   51.36    4.34
   0  -6 -12   45.64    3.76
   0   6  12   49.79    3.81
   0   6 -12   48.35    3.70
  -1  -6 -12    3.45    1.18
   1  -6  12    4.42    1.74
   1   6  12    5.34    1.23
  -1   6 -12    5.83    1.01
   2  -6  12   38.23    3.94
  -2  -6 -12   32.09    3.94
   2   6  12   33.87    3.67
  -2   6 -12   38.37    2.97
   2   6  12   41.37    3.20
  -3  -6 -12    2.71    1.35
   3  -6  12    4.41    2.10
   3   6  12    4.33    1.87
  -3   6 -12    3.99    1.03
   4  -6  12    3.99    2.20
  -4  -6 -12    7.75    1.73
  -4   6 -12    9.27    1.25
   4   6  12    6.62    1.55
   5  -6  12    0.11    1.99
  -5  -6 -12   -2.47    1.64
   5   6  12   -1.00    1.35
  -5   6 -12    1.63    0.92
  -6  -6 -12   -0.22    1.78
   6  -6  12    1.48    2.03
  -6   6 -12    1.87    0.93
   6   6  12    0.53    1.19
   7  -6  12    2.50    2.21
   9  -7 -12   10.82    2.67
  -9   7  12   11.04    1.41
   8  -7 -12    4.69    2.11
  -8   7  12    4.55    1.18
   8   7 -12    5.11    1.78
  -7  -7  12   18.81    2.65
   7  -7 -12   16.28    2.92
  -7   7  12   15.18    1.83
   7   7 -12   17.61    2.62
   6  -7 -12   15.38    2.31
  -6   7  12   10.01    1.47
   6   7 -12    4.60    1.72
   5  -7 -12   56.70    4.79
  -5  -7  12   53.73    4.79
   5   7 -12   59.03    4.64
  -5   7  12   58.54    4.30
  -4  -7  12   24.64    2.80
   4  -7 -12   17.32    2.56
   4  -7 -12   24.35    2.58
   4   7 -12   25.47    2.46
  -3  -7  12   22.82    2.91
   3   7 -12   23.30    2.30
  -2  -7  12    5.04    1.57
   2  -7 -12    1.57    1.86
   2   7 -12    6.56    1.28
  -1  -7  12    2.17    1.45
   1  -7 -12    1.46    1.93
   1   7 -12    1.30    1.11
  -1   7  12    0.12    1.37
   0  -7 -12   -1.45    1.02
   0  -7 -12   -1.87    2.09
   0  -7  12    1.67    1.65
   0   7  12   -0.13    1.13
   0   7 -12    0.07    0.99
  -1  -7 -12    2.77    2.34
   1  -7  12    2.07    1.90
  -1   7 -12    2.10    1.06
   1   7  12    2.43    1.20
  -2  -7 -12   -1.17    2.44
   2  -7  12    2.40    1.96
  -2   7 -12    4.16    1.08
   2   7  12    2.73    1.41
  -3  -7 -12   15.34    2.14
  -3  -7 -12   11.55    3.14
   3  -7  12   16.76    2.83
   3   7  12   17.55    2.29
  -3   7 -12   18.97    1.83
   4  -7  12   16.02    3.12
  -4  -7 -12   11.03    2.13
  -4   7 -12   15.56    1.61
   4   7  12   11.04    1.98
  -5  -7 -12   16.95    2.58
   5   7  12   18.28    2.30
   7  -8 -12   24.71    3.43
  -7  -8  12   29.85    3.06
   7   8 -12   27.00    3.07
  -7   8  12   25.95    2.44
  -6  -8  12    5.09    1.67
   6  -8 -12    3.86    1.60
  -6   8  12    3.26    1.20
   6   8 -12    0.49    1.72
   5  -8 -12    5.71    1.82
  -5  -8  12    4.12    1.64
   5   8 -12    2.29    1.64
  -5   8  12    1.38    1.06
  -4  -8  12    2.31    1.64
   4  -8 -12    4.21    1.73
   3  -8 -12    8.44    2.02
  -3  -8  12   12.51    2.56
   3   8 -12   11.48    1.77
  -2  -8  12    2.48    1.79
   2  -8 -12   -0.23    1.76
   2   8 -12    1.47    1.20
  -2   8  12   -0.40    1.22
   1  -8 -12   48.99    5.02
  -1  -8  12   57.12    4.72
   1   8 -12   56.27    4.22
  -1   8  12   51.60    4.34
   0  -8  12    2.87    1.74
   0  -8 -12    0.84    2.17
   0   8  12    0.81    1.31
   0   8 -12    1.49    1.23
  -1  -8 -12   18.29    3.64
   1  -8  12   26.07    3.24
  -1   8 -12   22.22    2.16
   1   8  12   19.70    2.47
   2  -8  12    5.57    2.06
  -2  -8 -12    1.52    2.49
   2   8  12    0.85    1.29
  -2   8 -12    1.94    0.97
   3  -8  12   22.97    3.45
   3   8  12   19.10    2.46
   4   8  12   -0.85    1.56
   5   9 -12   38.25    3.32
   4  -9 -12   18.43    2.82
   4   9 -12   16.35    2.12
   3  -9 -12   14.40    2.40
   3  -9 -12   18.51    2.62
   3   9 -12   16.73    2.11
   2  -9 -12    2.05    1.82
   2   9 -12    4.61    1.25
   1  -9 -12    1.21    1.74
  -1   9  12    1.01    1.19
   0   9  12   -1.73    1.17
  13   0 -13   46.34    4.68
 -13   0  13   42.18    3.36
  13   0 -13   39.05    3.45
  12   0 -13    1.00    1.29
 -12   0  13    1.78    0.98
  12   0 -13    1.97    1.50
  11   0 -13   64.89    4.92
  11   0 -13   68.07    5.20
 -11   0  13   63.23    4.89
 -10   0  13   -0.04    0.76
  10   0 -13   -0.80    1.21
  10   0 -13    0.16    0.90
  -9   0  13   47.28    3.59
   9   0 -13   50.71    3.80
   9   0 -13   43.00    3.57
   8   0 -13    1.02    0.82
   8   0 -13    0.72    0.78
  -8   0  13   -0.66    0.57
  -7   0  13   52.44    3.80
   7   0 -13   52.94    3.87
   7   0 -13   47.23    3.77
   6   0 -13   -0.28    0.60
  -6   0  13    0.40    0.50
   5   0 -13    0.13    0.55
  -5   0  13    0.51    0.43
   4   0 -13   -0.12    0.53
  -4   0  13    0.11    1.12
  -4   0  13    0.10    0.41
  -3   0  13   16.77    1.91
   3   0 -13   14.83    1.31
  -3   0  13   14.19    1.29
  -2   0  13   -0.30    0.97
   2   0 -13    0.00    0.48
  -2   0  13    0.18    0.40
  -1   0  13  181.09   13.54
   1   0 -13  181.66   13.48
  -1   0  13  215.91   13.85
   0   0 -13   -0.15    0.46
   0   0  13   -0.22    0.92
   0   0 -13    0.42    0.55
  -1   0 -13   50.18    3.86
  -1   0 -13   50.89    3.95
   1   0  13   61.60    4.33
  -2   0 -13    0.81    0.48
   2   0  13   -0.64    0.91
  -2   0 -13    0.23    0.66
  -3   0 -13   29.37    2.25
  -3   0 -13   28.32    2.46
   3   0  13   33.11    2.84
  -4   0 -13   -0.79    0.84
   4   0  13   -0.50    1.17
  -4   0 -13   -0.14    0.43
  -5   0 -13    8.01    1.91
  -6   0 -13    0.45    1.29
   6   0  13   -1.99    1.32
  -7   0 -13   14.78    2.41
   7   0  13   17.10    2.47
  -8   0 -13   -0.42    1.66
   8   0  13   -0.41    1.63
   9   0  13   13.83    2.53
 -13  -1  13   15.59    1.66
  13  -1 -13   20.87    2.94
  13  -1 -13   11.45    1.88
 -13   1  13   14.58    1.71
  12  -1 -13    3.44    1.25
  12  -1 -13    4.37    1.81
 -12  -1  13    3.19    1.00
  12   1 -13    1.14    2.17
 -12   1  13    4.02    1.16
  12   1 -13    1.35    1.30
  11  -1 -13   -0.25    1.17
  11  -1 -13    2.88    1.67
 -11  -1  13    1.75    0.89
 -11   1  13    1.45    1.01
  11   1 -13    1.43    1.31
  11   1 -13    1.13    1.16
  10  -1 -13    2.80    1.01
  10  -1 -13    4.37    1.56
 -10  -1  13    3.06    0.82
 -10   1  13    2.70    0.94
  10   1 -13    3.33    1.12
  10   1 -13    1.93    1.14
   9  -1 -13   23.07    2.13
   9  -1 -13   26.83    2.74
  -9  -1  13   24.73    2.10
  -9   1  13   25.57    2.17
   9   1 -13   23.54    2.18
   9   1 -13   25.37    2.28
   8  -1 -13    8.66    1.43
  -8  -1  13    5.66    0.91
   8  -1 -13    6.94    1.05
   8   1 -13    7.71    1.10
   8   1 -13    5.53    1.17
  -8   1  13    5.97    1.00
   7  -1 -13   24.79    2.06
  -7  -1  13   25.46    2.05
   7   1 -13   24.10    2.12
   7   1 -13   27.71    2.15
  -7   1  13   24.37    2.11
  -6  -1  13   34.60    2.68
   6  -1 -13   34.40    2.69
   6  -1 -13   33.15    2.82
   6   1 -13   37.14    2.74
  -6   1  13   37.09    2.73
   5  -1 -13  107.98    7.88
  -5  -1  13  109.86    7.90
   5   1 -13  112.74    7.91
  -5   1  13  114.23    7.93
  -4  -1  13   46.38    3.71
   4  -1 -13   45.04    3.28
  -4  -1  13   42.00    3.28
  -4   1  13   45.09    3.31
   4   1 -13   44.59    3.31
   3  -1 -13   74.82    5.58
  -3  -1  13   77.00    5.61
  -3   1  13   76.15    5.63
  -3   1  13   87.39    6.02
   3   1 -13   76.88    5.59
  -2  -1  13   15.27    1.30
   2  -1 -13   14.56    1.28
  -2  -1  13   15.30    1.93
  -2   1  13   15.62    2.07
  -2   1  13   14.88    1.30
   2   1 -13   13.84    1.31
   1  -1 -13    0.74    0.47
  -1  -1  13    2.14    0.51
  -1  -1  13    0.85    1.03
   1   1 -13    0.88    0.54
  -1   1  13    1.35    1.20
   0  -1 -13    0.12    0.55
   0  -1 -13    0.72    0.47
   0  -1  13   -0.17    0.93
   0   1 -13    0.29    0.48
   0   1  13    0.46    1.10
   0   1 -13    0.10    0.56
   1  -1  13    2.68    1.09
  -1  -1 -13    2.89    0.69
  -1  -1 -13    2.79    0.53
   1   1  13    2.63    1.18
  -1   1 -13    2.53    0.71
  -1   1 -13    3.54    0.61
  -2  -1 -13    7.63    1.18
  -2  -1 -13    8.19    0.86
   2  -1  13    9.64    1.59
  -2   1 -13    8.99    0.92
   2   1  13   10.50    1.77
  -2   1 -13    8.03    1.14
   3  -1  13   38.58    3.06
  -3  -1 -13   33.01    2.68
  -3  -1 -13   31.47    2.49
  -3   1 -13   31.19    2.50
   3   1  13   37.90    3.15
  -3   1 -13   30.29    2.64
  -4  -1 -13   10.56    1.49
   4  -1  13   14.98    1.90
   4   1  13   12.56    1.97
  -4   1 -13   10.27    1.46
  -4   1 -13   11.98    1.15
  -5  -1 -13   25.34    2.43
  -5   1 -13   26.51    2.04
   5   1  13   31.16    3.09
  -5   1 -13   23.84    2.40
   6  -1  13   19.57    2.34
  -6  -1 -13   14.67    2.12
   6   1  13   18.25    2.36
  -6   1 -13   15.18    2.14
   7  -1  13   24.46    2.85
  -7  -1 -13   20.90    2.78
  -7   1 -13   24.98    2.82
   7   1  13   25.58    2.84
  -8  -1 -13    3.34    1.79
   8  -1  13    6.15    1.84
  -8   1 -13    4.62    1.94
   8   1  13    5.05    1.69
  -9   1 -13    8.06    1.77
   9   1  13    4.27    1.79
  13  -2 -13    9.24    2.25
  13  -2 -13    7.07    1.32
 -13  -2  13    9.90    1.44
 -13   2  13    8.85    1.49
 -12  -2  13   34.28    3.01
  12  -2 -13   37.88    3.11
 -12   2  13   36.76    3.11
  11  -2 -13   11.27    1.64
  11  -2 -13   14.14    2.46
 -11  -2  13    8.65    1.26
  11   2 -13   11.28    1.81
 -11   2  13    8.33    1.39
  10  -2 -13   62.50    5.13
 -10  -2  13   53.54    4.36
  10  -2 -13   57.28    4.42
  10   2 -13   59.41    4.50
 -10   2  13   60.83    4.47
   9  -2 -13    6.58    1.13
   9  -2 -13    9.40    1.75
  -9   2  13    8.01    1.20
   9   2 -13    6.83    1.31
   8  -2 -13   29.84    3.26
   8  -2 -13   35.44    2.83
  -8  -2  13   37.61    2.82
  -8   2  13   40.02    2.94
   8   2 -13   38.02    2.95
   7  -2 -13    5.44    1.30
   7  -2 -13    6.36    0.96
  -7  -2  13    6.45    0.91
   7   2 -13    7.46    1.11
  -7   2  13    5.99    1.07
   6  -2 -13   16.05    1.47
  -6  -2  13   11.96    2.10
  -6  -2  13   17.70    1.45
   6  -2 -13   16.84    2.50
   6   2 -13   16.75    1.60
  -6   2  13   17.52    1.54
   5  -2 -13    0.70    0.94
   5  -2 -13    0.07    0.55
  -5  -2  13   -0.80    1.15
  -5  -2  13    0.30    0.44
   5   2 -13    0.34    0.64
  -5   2  13   -0.22    0.50
  -4  -2  13    1.39    0.47
   4  -2 -13    2.18    0.64
  -4  -2  13    1.96    1.16
  -4   2  13    1.60    0.56
   4   2 -13    2.27    0.64
  -3  -2  13    2.48    0.52
   3  -2 -13    2.15    0.62
   3   2 -13    2.55    0.63
  -3   2  13    0.85    1.35
  -3   2  13    2.14    0.54
   2  -2 -13   86.56    6.19
  -2  -2  13   89.30    6.24
   2   2 -13   85.05    6.23
  -2   2  13   88.24    6.27
   1  -2 -13   19.81    1.78
   1  -2 -13   22.08    1.69
  -1  -2  13   22.56    1.76
   1   2 -13   21.97    1.74
   0  -2  13   63.10    5.39
   0  -2 -13   72.69    4.90
   0  -2 -13   74.63    5.00
   0   2 -13   70.20    4.95
   0   2 -13   68.74    4.95
   0   2  13   61.77    5.45
  -1  -2 -13    6.36    0.95
   1  -2  13    5.73    1.41
  -1  -2 -13    5.71    0.91
  -1   2 -13    6.27    0.96
  -1   2 -13    5.83    0.83
   1   2  13    5.91    1.60
  -2  -2 -13   58.81    4.16
   2  -2  13   66.83    4.80
  -2  -2 -13   58.09    4.35
   2   2  13   54.38    4.82
  -2   2 -13   57.61    4.31
  -2   2 -13   56.57    4.25
   3  -2  13    4.76    1.40
  -3  -2 -13    3.99    0.97
   3   2  13    4.79    1.48
  -3   2 -13    3.01    0.88
  -3   2 -13    4.51    0.79
  -4  -2 -13    7.63    1.29
   4  -2  13    7.22    1.62
  -4   2 -13    7.00    1.15
   4   2  13    6.29    1.64
  -4   2 -13    7.28    0.97
   5  -2  13    1.03    1.30
  -5  -2 -13    0.74    1.12
  -5   2 -13    1.37    0.69
  -5   2 -13   -0.83    1.06
   5   2  13    0.55    1.43
   6  -2  13    1.03    1.43
  -6  -2 -13    0.81    1.28
   6   2  13    1.01    1.51
  -6   2 -13    0.33    1.39
   7  -2  13    3.79    1.68
  -7  -2 -13    2.72    1.58
  -7   2 -13    1.35    1.76
   7   2  13    3.65    1.69
  -8  -2 -13   14.70    2.53
   8  -2  13   21.53    2.81
   8   2  13   19.55    2.65
  -8   2 -13   23.08    2.89
  13  -3 -13    5.42    2.71
 -13   3  13    0.39    0.94
  12  -3 -13    9.84    1.56
  12  -3 -13   10.30    2.69
 -12  -3  13    8.77    1.24
 -12   3  13    8.09    1.42
  12   3 -13    6.96    1.79
 -11  -3  13    0.69    0.85
  11  -3 -13    3.26    2.46
  11  -3 -13   -0.39    1.18
 -11   3  13   -0.55    1.10
  11   3 -13   -0.86    1.61
 -10  -3  13    7.62    1.15
  10  -3 -13    9.85    1.42
  10  -3 -13   11.42    2.50
 -10   3  13   10.02    1.47
  10   3 -13    8.19    1.73
   9  -3 -13    0.79    0.89
   9  -3 -13    4.73    1.83
  -9  -3  13    1.01    0.69
   8  -3 -13   18.03    1.70
  -8  -3  13   16.50    1.58
   8  -3 -13   15.62    2.68
  -8   3  13   19.12    1.83
   8   3 -13   16.63    1.94
   7  -3 -13    0.82    0.68
   7  -3 -13    1.27    1.33
  -7  -3  13    2.10    0.64
   7   3 -13    1.75    1.05
  -7   3  13    1.11    0.83
   6  -3 -13   89.46    7.24
  -6  -3  13  101.56    7.09
   6  -3 -13   93.56    7.08
  -6  -3  13   90.42    7.36
   6   3 -13  110.08    7.20
  -6   3  13  110.40    7.17
  -5  -3  13    5.09    0.78
   5  -3 -13    4.02    1.09
  -5  -3  13    4.72    1.25
   5  -3 -13    5.93    0.85
  -5   3  13    4.59    0.83
   5   3 -13    5.07    0.99
   4  -3 -13  113.03    8.98
  -4  -3  13  123.04    8.95
   4  -3 -13  133.86    8.96
   4   3 -13  136.69    9.03
  -4   3  13  127.13    9.01
  -3  -3  13    2.71    1.19
   3  -3 -13    3.78    0.73
  -3  -3  13    3.74    0.66
   3  -3 -13    4.34    0.69
   3   3 -13    4.36    0.79
  -3   3  13    5.07    1.45
  -3   3  13    3.09    0.66
  -2  -3  13   41.57    3.04
  -2  -3  13   38.12    3.53
   2  -3 -13   42.63    3.03
   2   3 -13   41.14    3.08
   1  -3 -13    0.05    0.46
   1  -3 -13    0.57    0.61
  -1  -3  13   -0.77    1.07
   1   3 -13   -0.33    0.60
  -1   3  13   -1.47    1.28
  -1   3  13    0.09    0.45
   0  -3 -13    0.25    0.48
   0  -3 -13    0.48    0.68
   0  -3  13   -0.64    1.19
   0   3 -13    0.32    0.57
   0   3 -13    0.93    0.63
   0   3  13    0.15    1.36
   0   3  13    0.46    0.44
  -1  -3 -13   -0.09    0.43
   1  -3  13   -0.21    1.24
  -1  -3 -13    0.41    0.78
  -1   3 -13   -0.78    0.62
   1   3  13    0.08    0.53
   1   3  13   -0.56    1.47
  -1   3 -13    0.52    0.61
   2  -3  13   19.21    2.67
  -2  -3 -13   21.74    2.00
   2   3  13   24.32    1.82
  -2   3 -13   22.24    1.91
  -2   3 -13   23.78    1.84
   2   3  13   16.30    2.63
   3  -3  13    1.88    1.50
  -3  -3 -13   -0.41    0.93
   3   3  13   -0.52    1.40
  -3   3 -13    1.59    0.75
  -3   3 -13    0.62    0.81
  -4  -3 -13   35.52    2.89
   4  -3  13   37.58    3.70
  -4   3 -13   35.44    2.69
   4   3  13   29.75    3.29
  -4   3 -13   32.67    2.80
  -5  -3 -13   -0.97    1.12
   5  -3  13    1.67    1.48
  -5   3 -13   -0.94    1.13
  -5   3 -13    1.79    0.80
   5   3  13    1.16    1.54
   6  -3  13   58.91    4.59
  -6  -3 -13   50.46    4.33
  -6   3 -13   53.12    3.95
   6   3  13   49.75    4.53
  -7  -3 -13   -0.35    1.55
   7  -3  13    0.53    1.74
   7   3  13   -0.39    1.52
   8  -3  13   13.23    2.53
   8   3  13    9.88    1.93
 -12  -4  13   17.57    1.89
  12  -4 -13   20.69    2.15
 -12   4  13   19.50    2.25
  11  -4 -13   27.53    2.48
  11  -4 -13   29.62    4.46
 -11  -4  13   21.79    2.29
  11   4 -13   26.71    3.00
 -11   4  13   26.52    2.69
 -10  -4  13   24.98    2.30
  10  -4 -13   26.50    2.44
  10  -4 -13   32.29    4.17
 -10   4  13   26.86    2.67
  10   4 -13   25.11    3.01
   9  -4 -13   19.44    3.45
  -9  -4  13   14.72    1.65
   9  -4 -13   17.96    1.78
  -9   4  13   18.86    2.01
   9   4 -13   14.57    2.37
   8  -4 -13   18.93    3.07
  -8  -4  13   17.70    1.64
   8  -4 -13   18.14    1.74
  -8   4  13   16.72    1.92
   8   4 -13   17.80    2.62
   7  -4 -13   16.24    1.62
   7  -4 -13   17.58    2.35
  -7  -4  13   17.22    1.56
   7   4 -13   15.56    2.06
   6  -4 -13    7.72    1.12
  -6  -4  13    8.17    1.04
   6  -4 -13   10.50    1.70
  -6  -4  13    9.15    1.64
   6   4 -13    9.24    1.50
   5  -4 -13    0.67    0.68
  -5  -4  13    0.97    0.54
   5  -4 -13    1.60    0.85
  -5  -4  13    1.23    1.20
   5   4 -13    0.41    0.98
  -5   4  13    0.56    0.67
   4  -4 -13    2.90    0.82
  -4  -4  13    1.59    1.24
  -4  -4  13    0.88    0.53
   4  -4 -13    2.18    0.66
  -4   4  13    1.94    0.69
   4   4 -13    1.27    0.95
  -3  -4  13    5.36    0.84
   3  -4 -13    7.23    0.92
  -3  -4  13    5.71    1.44
   3  -4 -13    9.23    1.11
  -3   4  13    7.28    1.44
   3   4 -13    7.62    1.08
  -2  -4  13   35.42    3.40
   2  -4 -13   35.81    2.81
  -2  -4  13   36.11    2.73
   2  -4 -13   37.16    2.72
   2   4 -13   38.61    2.86
  -2   4  13   36.08    2.81
  -1  -4  13   51.76    4.73
   1  -4 -13   57.93    4.08
   1  -4 -13   58.53    4.21
  -1   4  13   58.22    4.16
  -1   4  13   55.47    4.72
   1   4 -13   57.43    4.20
   0  -4  13   28.40    3.32
   0  -4 -13   31.22    2.55
   0  -4 -13   35.37    2.65
   0   4  13   33.99    2.52
   0   4  13   26.19    3.25
   0   4 -13   36.39    2.56
   0   4 -13   32.68    2.49
  -1  -4 -13   19.42    1.83
   1  -4  13   15.49    2.61
   1   4  13   19.17    1.70
   1   4  13   16.41    2.59
  -1   4 -13   21.27    1.71
  -1   4 -13   19.06    1.66
   2  -4  13   19.46    2.87
  -2  -4 -13   26.40    2.23
   2   4  13   28.73    2.06
  -2   4 -13   22.45    2.00
  -2   4 -13   25.77    2.06
   2   4  13   17.93    2.85
  -3  -4 -13    9.07    1.39
   3  -4  13    6.46    1.94
  -3   4 -13    5.89    1.10
  -3   4 -13    8.79    1.17
   3   4  13    9.51    1.95
  -4  -4 -13    1.75    1.20
   4  -4  13    3.64    1.80
   4   4  13    3.82    1.72
  -4   4 -13    4.83    0.96
   4   4  13    5.17    1.08
   5  -4  13    1.92    1.67
  -5  -4 -13    2.74    1.38
   5   4  13    1.61    1.62
  -6  -4 -13   -0.77    1.44
   6  -4  13    1.32    1.85
  -6   4 -13    1.55    0.89
   6   4  13   -1.13    1.53
   7  -4  13    8.87    2.06
  -7   4 -13    8.57    1.25
   8  -4  13   13.34    2.49
  11  -5 -13    4.35    3.06
  11  -5 -13    3.24    1.09
 -11  -5  13    4.00    1.02
  10  -5 -13    5.31    2.89
  10  -5 -13   -0.33    1.28
 -10  -5  13    1.13    0.94
  10   5 -13   -1.56    2.22
 -10   5  13    0.93    1.18
  -9  -5  13   19.98    1.89
   9  -5 -13   24.77    4.08
   9   5 -13   20.21    3.08
  -9   5  13   21.51    2.31
   8   5 -13    0.45    1.95
  -8   5  13    1.23    1.14
  -7  -5  13   29.77    3.12
  -7  -5  13   23.15    2.12
   7  -5 -13   27.35    3.00
   7  -5 -13   22.79    2.23
   7   5 -13   25.00    2.79
  -7   5  13   27.11    2.40
  -6  -5  13    2.52    0.70
   6  -5 -13    3.42    0.90
   6  -5 -13    2.88    1.19
  -6  -5  13    5.27    1.56
  -6   5  13    2.38    0.95
   6   5 -13    4.67    1.57
   5  -5 -13   86.06    6.96
  -5  -5  13   99.73    7.27
  -5  -5  13   95.48    6.82
   5  -5 -13   89.89    6.83
  -5   5  13   98.43    6.92
   5   5 -13  104.73    7.03
  -4  -5  13    2.89    0.69
   4  -5 -13    4.66    0.81
  -4  -5  13    4.94    1.52
   4  -5 -13    3.71    1.06
   4   5 -13    5.74    1.25
   3  -5 -13   57.87    5.03
   3  -5 -13   68.96    4.94
  -3  -5  13   69.40    5.46
   3  -5 -13   70.74    4.89
  -3  -5  13   63.18    4.85
  -3   5  13   69.61    5.28
   3   5 -13   74.68    5.05
  -2  -5  13    1.39    1.35
   2  -5 -13    0.64    0.62
  -2  -5  13    1.89    0.53
   2  -5 -13    2.67    0.82
  -2   5  13   -2.16    1.26
  -2   5  13    0.13    1.03
   2   5 -13    0.49    0.91
   1  -5 -13    1.89    0.87
  -1  -5  13    2.50    1.49
  -1   5  13    1.18    0.84
  -1   5  13    2.36    1.65
   1   5 -13    2.52    0.91
   0  -5  13   -1.17    1.49
   0  -5 -13   -0.93    0.87
   0   5  13   -2.07    1.61
   0   5 -13    0.23    0.88
   0   5  13   -0.65    0.81
   1  -5  13    2.55    1.75
  -1  -5 -13    2.43    1.09
  -1   5 -13    4.09    1.04
   1   5  13    3.73    1.22
   1   5  13    4.09    2.81
   2  -5  13    1.98    1.70
  -2  -5 -13    0.57    1.19
   2   5  13   -0.51    1.80
  -2   5 -13    1.39    0.82
   3  -5  13   22.19    3.35
  -3  -5 -13   28.81    2.61
  -3   5 -13   32.58    2.40
   3   5  13   25.69    3.30
  -4  -5 -13   -0.15    1.25
   4  -5  13    1.06    1.86
  -4   5 -13    0.11    0.88
   4   5  13   -2.13    1.70
   5  -5  13   25.09    3.38
  -5  -5 -13   26.80    2.79
   5   5  13   22.94    3.09
  -5   5 -13   28.25    2.29
   6  -5  13    1.09    1.83
  -6  -5 -13   -1.41    1.51
  -6   5 -13    3.73    0.94
   6   5  13   -0.67    1.59
   7  -5  13   29.73    3.35
  -7   5 -13   26.52    2.38
 -10  -6  13    6.78    1.22
  10  -6 -13   12.07    3.43
   9  -6 -13   30.15    4.45
   9   6 -13   20.53    3.11
   8  -6 -13    4.81    2.18
   8   6 -13    2.00    2.23
   7  -6 -13   22.24    2.86
  -7  -6  13   24.59    3.22
   7   6 -13   21.43    2.88
   6  -6 -13    2.40    1.94
  -6  -6  13    4.36    1.55
   6   6 -13    3.38    1.73
   5  -6 -13    2.16    1.16
  -5  -6  13    1.06    1.45
   5  -6 -13    0.95    0.90
   5   6 -13    0.80    1.42
   4  -6 -13    0.47    1.15
  -4  -6  13    1.81    1.42
   4  -6 -13    1.08    0.78
   4  -6 -13   -0.52    1.25
   4  -6 -13    2.21    0.81
   4   6 -13   -0.25    1.25
   3  -6 -13    7.26    1.96
   3  -6 -13    8.03    1.07
  -3  -6  13   10.51    1.88
   3  -6 -13    8.63    1.31
   3   6 -13   10.89    1.60
  -2  -6  13   11.34    2.02
   2  -6 -13    9.19    1.41
  -2   6  13    7.02    1.51
   2   6 -13    9.90    1.46
  -1  -6  13   73.90    5.79
   1  -6 -13   66.44    5.22
   1   6 -13   73.06    5.23
  -1   6  13   68.14    5.24
   0  -6 -13    4.76    1.24
   0  -6  13    8.13    1.96
   0   6 -13    8.75    1.27
   0   6  13    6.39    1.24
  -1  -6 -13   20.91    2.33
   1  -6  13   24.39    3.39
  -1   6 -13   26.62    2.15
   1   6  13   24.68    2.29
   1   6  13   21.99    3.09
  -2  -6 -13    3.42    1.35
   2  -6  13    5.88    2.20
  -2   6 -13    6.39    1.13
   2   6  13    5.74    2.11
   2   6  13    5.01    1.28
  -3  -6 -13   15.38    2.02
   3  -6  13    9.59    2.52
   3   6  13   15.22    1.82
   3   6  13   16.48    2.69
  -3   6 -13   17.09    1.73
  -4  -6 -13   -3.08    1.49
   4  -6  13    3.39    2.11
  -4   6 -13    2.77    0.96
   4   6  13    0.49    1.16
   4   6  13   -1.63    1.86
   5  -6  13    4.20    2.20
  -5  -6 -13    1.39    1.74
  -5   6 -13    4.28    1.01
   6  -6  13    1.63    2.10
   9  -7 -13    5.95    2.72
   8  -7 -13   22.87    3.62
  -8  -7  13   16.35    2.47
   8   7 -13    9.17    2.49
   7  -7 -13    7.37    1.96
   7   7 -13    5.75    2.29
   6  -7 -13   29.71    3.38
  -6  -7  13   35.65    3.68
   6   7 -13   34.55    3.45
   5  -7 -13   22.44    2.72
  -5  -7  13   26.46    3.10
   5   7 -13   23.58    2.80
   4  -7 -13   42.72    3.83
  -4  -7  13   43.61    4.07
   4  -7 -13   36.81    4.11
   4  -7 -13   44.08    3.62
   4   7 -13   47.53    3.72
  -3  -7  13   18.14    2.67
   3   7 -13   14.59    2.11
   2  -7 -13   12.13    1.92
   2  -7 -13   13.03    2.51
  -2  -7  13   14.53    2.68
  -2   7  13   13.76    1.94
   2   7 -13   15.39    1.84
  -1  -7  13    2.29    1.72
   1  -7 -13   -1.73    2.08
  -1   7  13   -0.49    1.16
   1   7 -13    0.92    1.11
   0  -7 -13   -0.37    2.25
   0  -7 -13   -0.88    1.11
   0  -7  13    0.33    1.85
   0   7 -13   -0.32    1.10
   0   7  13    0.59    1.18
  -1  -7 -13   -0.55    2.51
  -1  -7 -13   -2.01    1.25
   1  -7  13    2.08    2.02
  -1   7 -13    0.88    1.06
   1   7  13    2.06    1.23
   2  -7  13    8.77    2.39
  -2  -7 -13    1.38    2.87
  -2  -7 -13    5.43    1.65
   2   7  13    7.39    1.42
  -2   7 -13    9.96    1.47
  -3  -7 -13    3.41    1.65
   3  -7  13    8.91    2.33
  -3  -7 -13    0.53    2.70
   3   7  13    4.86    1.29
  -4  -7 -13   14.88    2.23
   4  -7  13   10.27    2.20
   7  -8 -13    3.32    1.90
   7   8 -13    3.11    1.75
   6  -8 -13    8.46    1.86
   6   8 -13    9.45    1.96
  -5  -8  13    4.11    1.64
   5   8 -13    5.05    1.76
   4  -8 -13    4.91    1.75
  -4  -8  13    4.39    1.77
   4   8 -13    3.82    1.60
  -3  -8  13    4.00    1.51
   3  -8 -13    1.48    1.78
   3   8 -13   -0.19    1.43
  -2  -8  13   37.88    3.65
   2  -8 -13   30.53    3.87
   2   8 -13   37.87    3.10
  -2   8  13   33.28    3.19
  -1  -8  13    2.70    1.72
   1  -8 -13    0.12    2.10
   1   8 -13   -0.82    1.12
  -1   8  13    0.60    1.30
   0  -8  13   38.59    3.77
   0   8  13   33.31    3.18
   0   8 -13   33.90    2.97
   1  -8  13    3.58    1.80
  -1  -8 -13    0.78    2.15
  -1   8 -13    1.95    0.94
   1   8  13    0.44    1.27
   2   8  13   23.61    2.42
  13   0 -14    1.60    1.26
 -13   0  14    2.97    0.97
 -12   0  14   44.31    3.42
  12   0 -14   38.99    3.42
  11   0 -14    0.40    1.10
 -11   0  14    0.42    0.88
  10   0 -14   73.66    5.45
 -10   0  14   73.37    5.45
  -9   0  14    0.08    0.71
   9   0 -14    0.70    1.11
  -8   0  14   34.53    2.73
   8   0 -14   33.21    2.70
  -7   0  14    0.33    0.60
   7   0 -14    0.31    0.73
   6   0 -14    5.36    0.94
  -6   0  14    5.82    0.88
  -5   0  14    0.11    0.46
  -5   0  14   -0.48    1.24
   5   0 -14    0.45    0.65
   4   0 -14    0.32    0.57
  -4   0  14   -0.26    1.20
  -4   0  14    1.01    0.51
   3   0 -14   -0.67    0.51
  -3   0  14    0.03    0.42
  -3   0  14    0.93    1.12
  -2   0  14  103.12    7.28
   2   0 -14  100.84    7.22
   1   0 -14    0.37    0.54
  -1   0  14    1.05    1.06
   0   0 -14   97.28    7.54
   0   0 -14   99.22    7.49
   0   0  14  123.03    7.94
  -1   0 -14   -0.71    0.65
  -1   0 -14    0.04    0.47
   1   0  14   -0.29    1.09
  -2   0 -14   70.81    5.60
   2   0  14   89.00    6.03
  -2   0 -14   72.83    5.48
   3   0  14   -0.46    1.27
  -3   0 -14    0.51    0.53
  -3   0 -14    0.34    0.85
  -4   0 -14   10.41    1.57
   4   0  14    9.55    2.09
  -5   0 -14   -1.27    1.07
   5   0  14    0.14    1.43
  -6   0 -14    1.32    1.40
   6   0  14   -1.16    1.53
  -7   0 -14    0.35    1.62
   7   0  14   -0.67    1.67
  -8   0 -14   11.68    2.03
   8   0  14   12.06    2.44
  13  -1 -14    8.98    1.45
 -13   1  14   12.02    1.56
  12  -1 -14   11.53    1.68
 -12  -1  14   10.34    1.52
  12   1 -14    8.63    1.67
 -12   1  14   10.24    1.68
  11  -1 -14    0.94    1.17
 -11  -1  14    1.95    0.89
 -11   1  14    0.58    0.95
  11   1 -14   -0.02    1.22
  10  -1 -14    8.95    1.32
 -10  -1  14    8.69    1.29
  10   1 -14    8.08    1.40
 -10   1  14    7.93    1.25
  -9  -1  14    9.43    1.28
   9  -1 -14    9.39    1.35
  -9   1  14   10.37    1.40
   9   1 -14   13.63    2.11
   8  -1 -14   16.38    1.61
  -8  -1  14   17.92    1.60
  -8   1  14   17.89    1.70
   8   1 -14   14.21    1.69
   7  -1 -14   15.69    1.56
  -7  -1  14   15.18    1.53
   7   1 -14   17.77    1.65
  -7   1  14   19.10    1.65
  -6  -1  14   72.49    5.29
   6  -1 -14   70.61    5.27
   6   1 -14   73.84    5.31
  -6   1  14   74.49    5.33
  -5  -1  14   31.72    2.43
   5  -1 -14   30.44    2.43
   5   1 -14   29.65    2.45
  -5   1  14   32.99    2.46
  -4  -1  14   81.26    5.93
   4  -1 -14   73.69    5.54
  -4  -1  14   71.39    5.56
   4   1 -14   76.78    5.56
  -4   1  14   74.36    5.58
  -4   1  14   88.05    6.01
  -3  -1  14   34.00    2.61
   3  -1 -14   36.32    2.60
  -3   1  14   32.88    2.62
   3   1 -14   34.33    2.60
   2  -1 -14   49.76    3.85
  -2  -1  14   49.53    3.88
  -2  -1  14   59.09    4.32
   2   1 -14   53.36    3.88
  -2   1  14   59.48    4.45
  -2   1  14   50.18    3.90
   1  -1 -14    2.19    0.57
  -1  -1  14    2.77    1.10
   1   1 -14    2.21    0.59
  -1   1  14    2.81    1.24
   0  -1 -14    0.56    0.65
   0  -1 -14    0.37    0.50
   0  -1  14    0.75    1.11
   0   1 -14    0.58    0.51
   0   1 -14    0.83    0.61
   0   1  14    0.93    1.23
  -1  -1 -14    1.58    0.48
  -1  -1 -14    1.87    0.76
   1  -1  14    0.73    1.20
  -1   1 -14    2.27    0.73
   1   1  14    2.84    1.41
  -1   1 -14    1.78    0.63
  -2  -1 -14   22.68    1.84
   2  -1  14   27.05    2.55
  -2  -1 -14   22.85    2.11
  -2   1 -14   23.82    2.09
  -2   1 -14   23.98    1.93
   2   1  14   27.30    2.72
   3  -1  14   15.73    2.06
  -3  -1 -14   13.29    1.61
   3   1  14   15.53    2.18
  -3   1 -14   13.39    1.59
  -3   1 -14   14.40    1.32
  -4  -1 -14   22.59    2.17
   4  -1  14   26.37    2.64
  -4   1 -14   21.44    1.83
  -4   1 -14   20.41    2.14
   4   1  14   23.99    2.68
  -5  -1 -14   10.97    1.74
   5  -1  14   13.17    2.11
  -5   1 -14    9.34    1.71
   5   1  14   12.14    2.22
   6  -1  14   42.22    3.60
  -6  -1 -14   32.83    3.31
  -6   1 -14   32.84    3.35
   6   1  14   40.57    3.60
  -7  -1 -14    5.01    1.78
   7  -1  14    4.88    1.89
  -7   1 -14    5.20    1.84
   7   1  14    6.33    1.82
   8  -1  14   12.17    2.48
  -8  -1 -14    8.39    1.93
  -8   1 -14    7.54    2.00
   8   1  14    8.06    1.96
  13   2 -14   17.45    1.99
 -12  -2  14    9.26    1.36
  12  -2 -14    7.54    1.41
  12   2 -14    6.52    1.59
 -12   2  14    6.76    1.35
  11  -2 -14   71.66    5.53
 -11  -2  14   66.94    5.44
  11   2 -14   78.16    5.59
 -11   2  14   78.79    5.58
 -10  -2  14    9.22    1.39
  10  -2 -14    9.44    1.53
 -10   2  14   10.65    1.63
  10   2 -14   11.21    1.66
  -9  -2  14   26.88    2.26
   9  -2 -14   24.66    2.32
   9  -2 -14   29.71    2.86
  -9   2  14   28.14    2.42
   9   2 -14   26.08    2.41
  -8  -2  14    5.00    0.89
   8  -2 -14    4.30    1.05
   8  -2 -14    6.36    1.32
   8   2 -14    5.60    1.14
  -8   2  14    5.64    1.06
   7  -2 -14   17.95    1.64
  -7  -2  14   17.10    1.61
   7  -2 -14   14.76    2.05
   7   2 -14   18.92    1.80
  -7   2  14   20.53    1.76
  -6  -2  14    1.01    0.59
   6  -2 -14    0.66    0.69
  -6   2  14    0.27    0.62
   6   2 -14    1.57    0.87
   5  -2 -14    1.13    0.63
  -5  -2  14    0.14    0.55
  -5  -2  14    1.20    1.19
  -5   2  14   -0.49    0.57
   5   2 -14    0.23    0.75
  -4  -2  14   -0.13    0.49
   4  -2 -14    0.21    0.57
  -4  -2  14   -1.20    1.13
   4   2 -14    0.22    0.68
  -4   2  14   -0.17    0.59
  -4   2  14   -0.77    1.40
   3  -2 -14   18.43    1.48
  -3  -2  14   15.97    1.46
  -3   2  14   18.26    1.52
  -3   2  14   15.68    2.41
   3   2 -14   17.26    1.53
  -2  -2  14    9.41    1.85
  -2  -2  14   13.62    1.13
   2  -2 -14   10.95    1.11
  -2   2  14   12.32    1.20
  -2   2  14   10.22    2.16
   2   2 -14   12.14    1.20
  -1  -2  14   88.62    7.26
   1  -2 -14   98.66    6.78
   1  -2 -14   98.31    6.86
   1   2 -14   97.82    6.83
  -1   2  14   95.10    7.39
   0  -2  14   14.35    2.12
   0  -2 -14   12.89    1.35
   0  -2 -14   11.93    1.12
   0   2  14   12.87    2.30
   0   2 -14   12.52    1.23
   1  -2  14   76.07    5.83
  -1  -2 -14   70.64    5.20
  -1  -2 -14   71.46    5.36
   1   2  14   76.27    5.98
  -1   2 -14   72.41    5.31
  -1   2 -14   74.40    5.28
  -2  -2 -14    9.27    1.34
   2  -2  14    8.83    1.71
  -2   2 -14    7.20    1.27
  -2   2 -14    9.06    1.08
   2   2  14   11.10    2.06
   3  -2  14   15.30    2.25
  -3  -2 -14   11.49    1.75
  -3   2 -14   12.26    1.30
  -3   2 -14   10.32    1.49
   3   2  14   13.38    2.64
  -4  -2 -14    0.71    1.10
   4  -2  14    0.32    1.34
  -4   2 -14    0.40    1.03
  -4   2 -14    1.74    0.74
   4   2  14   -0.24    1.55
   5  -2  14    8.66    1.80
  -5  -2 -14    7.24    1.52
  -5   2 -14   10.48    1.15
   5   2  14    6.61    1.99
  -6  -2 -14   -1.95    1.34
   6  -2  14    0.38    1.59
   6   2  14   -2.13    1.58
  -6   2 -14   -1.01    1.50
  -7  -2 -14    5.24    1.72
   7  -2  14    7.46    1.89
   7   2  14    6.74    1.79
  -7   2 -14    6.04    1.92
   8  -2  14   -0.42    1.84
   8   2  14   -0.22    1.66
  -8   2 -14    2.03    1.57
 -12  -3  14    0.47    0.88
  12  -3 -14    1.30    1.12
  12   3 -14    0.40    1.51
 -12   3  14    2.55    1.15
  11  -3 -14    2.68    1.18
  11  -3 -14    4.31    2.18
 -11  -3  14    2.09    0.89
  11   3 -14    0.22    1.52
 -11   3  14    1.46    1.21
 -10  -3  14    1.46    0.80
  10  -3 -14    1.11    1.02
  10  -3 -14    2.03    2.09
 -10   3  14    0.59    1.19
  10   3 -14    1.40    1.51
  -9  -3  14   28.40    2.32
   9  -3 -14   27.80    2.43
   9  -3 -14   22.47    3.29
  -9   3  14   32.78    2.62
   9   3 -14   26.76    2.62
   8  -3 -14    2.96    1.47
  -8  -3  14    1.80    0.73
   8  -3 -14    1.15    0.80
  -8   3  14   -0.29    0.97
   7  -3 -14   45.27    3.37
  -7  -3  14   37.38    3.80
  -7  -3  14   42.43    3.36
   7  -3 -14   40.96    3.77
   7   3 -14   49.23    3.53
  -7   3  14   50.28    3.52
  -6  -3  14    2.71    1.47
   6  -3 -14    3.97    0.88
   6  -3 -14    4.77    1.20
  -6  -3  14    2.75    0.71
  -6   3  14    3.39    0.87
   6   3 -14    3.47    1.08
  -5  -3  14   72.40    6.62
  -5  -3  14   87.59    6.25
   5  -3 -14   89.64    6.26
   5  -3 -14   80.00    6.35
  -5   3  14   93.89    6.33
   5   3 -14   98.52    6.35
  -4  -3  14    3.98    0.69
   4  -3 -14    4.61    1.23
   4  -3 -14    4.09    0.77
  -4   3  14    2.76    0.76
  -4   3  14    4.10    1.43
   4   3 -14    5.40    1.02
   3  -3 -14  106.17    7.44
  -3  -3  14   99.87    7.45
  -3   3  14  101.57    7.87
   3   3 -14  111.02    7.51
  -3   3  14  105.18    7.51
  -2  -3  14    2.53    1.42
   2  -3 -14    2.12    0.61
  -2  -3  14    2.72    0.62
  -2   3  14    1.01    1.58
   2   3 -14    1.84    0.72
   1  -3 -14    6.51    0.98
   1  -3 -14    6.11    0.77
  -1  -3  14    4.84    1.65
   1   3 -14    6.19    0.99
  -1   3  14    3.44    1.91
   0  -3  14    0.04    1.43
   0  -3 -14    0.45    0.73
   0  -3 -14   -0.16    0.42
   0   3 -14    0.12    0.65
   0   3 -14    0.34    0.69
   0   3  14   -2.01    1.64
   1  -3  14    3.46    1.67
  -1  -3 -14    6.76    1.08
  -1   3 -14    6.58    0.92
  -1   3 -14    4.66    0.93
  -2  -3 -14    0.44    0.96
   2  -3  14    1.01    1.53
   2   3  14    0.80    1.72
  -2   3 -14    1.53    0.78
  -2   3 -14    0.54    0.82
  -3  -3 -14   37.61    3.14
   3  -3  14   41.61    3.70
  -3   3 -14   36.92    3.05
   3   3  14   35.63    3.74
  -3   3 -14   40.05    3.00
  -4  -3 -14    0.44    1.18
   4  -3  14    1.83    1.68
  -4   3 -14    1.63    0.99
   4   3  14    0.89    1.65
  -4   3 -14   -1.06    1.03
   5  -3  14   40.76    3.60
  -5  -3 -14   33.64    3.21
   5   3  14   30.71    3.64
  -5   3 -14   39.67    2.89
  -6  -3 -14    0.09    1.44
  -6   3 -14    0.76    1.31
   6   3  14    0.18    1.62
   7  -3  14   19.32    2.63
  -7  -3 -14   11.96    2.20
   7   3  14   14.69    2.46
 -12  -4  14   18.52    1.84
 -12   4  14   13.96    2.13
  12   4 -14   16.66    2.26
 -11  -4  14   28.75    2.75
  11  -4 -14   40.71    4.40
  11  -4 -14   34.49    2.89
  11   4 -14   33.80    3.34
  10  -4 -14   25.38    2.35
 -10  -4  14   24.52    2.14
  10  -4 -14   29.00    3.82
  10   4 -14   17.62    2.73
   9  -4 -14   18.86    3.48
  -9  -4  14   13.78    1.56
   9  -4 -14   12.75    1.71
   9   4 -14   15.46    2.18
   8  -4 -14   16.43    2.93
   8  -4 -14   12.83    1.53
  -8  -4  14   11.55    1.65
   8   4 -14   14.02    2.14
  -7  -4  14    8.93    1.87
   7  -4 -14   13.58    2.21
  -7  -4  14    9.69    1.21
   7  -4 -14    8.20    1.32
  -7   4  14    9.02    1.50
   7   4 -14    8.61    1.85
  -6  -4  14    1.07    0.66
  -6  -4  14    1.57    1.54
   6  -4 -14    1.94    0.80
   6   4 -14    2.13    1.26
  -6   4  14    1.92    0.91
  -5  -4  14    0.82    1.46
   5  -4 -14   -0.88    0.70
  -5  -4  14    0.86    0.57
   5  -4 -14   -0.14    0.84
   5   4 -14    0.00    0.98
  -5   4  14    0.23    0.76
  -4  -4  14   -1.03    1.40
  -4  -4  14    0.54    0.58
   4  -4 -14    2.43    0.78
   4  -4 -14    1.20    0.70
  -4   4  14   -0.02    0.69
   4   4 -14    0.46    0.88
  -4   4  14   -0.93    1.20
   3  -4 -14    7.11    1.10
   3  -4 -14    7.72    1.01
  -3  -4  14    8.03    0.96
  -3  -4  14    7.50    1.75
  -3   4  14    9.34    1.96
   3   4 -14    9.04    1.22
  -2  -4  14   32.74    3.62
  -2  -4  14   37.11    2.80
   2  -4 -14   36.90    2.89
   2  -4 -14   38.38    2.78
   2   4 -14   38.77    2.93
   1  -4 -14   42.56    3.09
  -1  -4  14   36.41    3.98
   1  -4 -14   44.35    3.29
   1   4 -14   46.80    3.28
  -1   4  14   39.10    4.02
  -1   4  14   42.83    3.25
   0  -4  14   26.54    3.44
   0  -4 -14   35.75    2.69
   0   4 -14   32.67    2.58
   0   4 -14   32.35    2.54
  -1  -4 -14   30.67    2.50
   1   4  14   21.85    4.02
  -1   4 -14   27.74    2.34
  -1   4 -14   31.40    2.38
   2  -4  14   16.30    2.96
  -2  -4 -14   23.86    2.14
  -2   4 -14   24.88    2.52
  -2   4 -14   22.49    1.84
   2   4  14   15.61    2.92
   3  -4  14    4.04    1.91
  -3  -4 -14    6.09    1.28
   3   4  14    3.39    1.91
   4  -4  14    0.40    1.83
  -4  -4 -14    1.37    1.30
   4   4  14    0.79    1.80
   5  -4  14    3.33    1.89
  -5  -4 -14    0.52    1.37
   5   4  14    1.72    1.84
  -5   4 -14    5.28    1.00
   6  -4  14   -0.81    1.81
  -6  -4 -14   -1.77    1.50
   6   4  14   -1.17    1.57
   7  -4  14    0.58    1.83
 -11  -5  14    1.90    0.94
  11  -5 -14    4.99    3.02
  11   5 -14    2.27    2.11
  10  -5 -14    9.98    2.97
 -10  -5  14    5.86    1.06
 -10   5  14    7.43    1.48
  10   5 -14    8.55    2.43
   9  -5 -14    4.43    2.55
   9  -5 -14    2.39    1.10
  -9  -5  14    1.14    0.88
   9   5 -14   -2.75    2.02
  -9   5  14    1.20    1.31
   8  -5 -14   17.05    1.84
   8  -5 -14   12.71    3.74
  -8  -5  14   16.99    1.73
  -8   5  14   19.03    2.19
   8   5 -14   16.87    2.60
  -7  -5  14    0.60    0.74
   7  -5 -14    1.21    0.88
  -7  -5  14    3.52    1.72
   7   5 -14    1.62    1.63
  -7   5  14    1.37    1.69
   6  -5 -14   60.37    4.89
   6  -5 -14   59.91    5.02
  -6  -5  14   67.37    5.48
  -6  -5  14   64.59    4.76
  -6   5  14   67.91    4.92
   6   5 -14   70.17    5.05
  -5  -5  14    4.47    1.66
   5  -5 -14    4.16    1.06
   5  -5 -14    1.80    0.84
  -5  -5  14    3.51    0.75
   5   5 -14    3.90    1.29
  -5   5  14    2.55    0.95
   4  -5 -14   66.85    5.24
   4  -5 -14   70.15    5.13
  -4  -5  14   68.86    5.09
  -4  -5  14   70.98    5.78
   4   5 -14   76.19    5.31
  -3  -5  14    3.07    0.62
   3  -5 -14    3.21    0.88
   3  -5 -14    2.26    0.76
  -3  -5  14    5.65    1.76
   3  -5 -14    3.89    0.93
  -3   5  14    0.78    1.60
   3   5 -14    4.23    1.32
   2  -5 -14   41.81    3.35
   2  -5 -14   44.25    3.19
   2   5 -14   43.30    3.40
   1  -5 -14   -1.17    0.92
  -1  -5  14   -0.39    1.72
   1   5 -14   -0.10    0.88
  -1   5  14    0.12    1.80
  -1   5  14   -0.52    0.65
   0  -5  14    0.48    1.80
   0  -5 -14    0.39    1.05
   0   5  14   -1.29    1.94
   0   5 -14    1.61    0.93
   0   5  14    1.25    0.78
   1  -5  14   -1.24    1.83
  -1  -5 -14   -1.01    1.01
  -1   5 -14   -0.09    0.96
   1   5  14   -1.31    1.98
   2  -5  14   13.90    2.98
  -2  -5 -14   18.06    2.04
  -2   5 -14   20.83    1.81
   2   5  14   15.97    3.09
   3  -5  14    1.79    2.05
  -3  -5 -14    0.34    1.26
  -3   5 -14    2.94    1.04
   3   5  14    1.07    2.10
   4  -5  14   19.50    3.10
  -4  -5 -14   19.98    2.35
   4   5  14   13.85    2.99
  -4   5 -14   22.10    1.99
   5  -5  14    1.19    1.99
  -5  -5 -14   -0.78    1.47
   5   5  14   -0.40    1.80
  -5   5 -14    2.09    0.93
   6  -5  14   35.30    3.54
  -6   5 -14   31.10    2.69
  10   6 -14   25.37    3.87
   9  -6 -14    5.19    1.21
   9  -6 -14    7.05    2.83
   9   6 -14    0.63    2.17
   8  -6 -14   17.52    2.72
   8  -6 -14   17.55    1.89
   8   6 -14   17.81    2.77
   7  -6 -14    3.13    1.08
  -7  -6  14    4.73    1.92
   7  -6 -14    2.33    1.68
   7   6 -14    4.37    2.07
  -7   6  14    2.40    0.97
  -6  -6  14    5.83    1.73
   6  -6 -14    3.55    1.03
   6  -6 -14    2.61    1.84
   6   6 -14   -0.03    1.64
   5  -6 -14    0.78    0.88
   5  -6 -14    2.21    1.17
  -5  -6  14    0.79    1.72
   5   6 -14    1.00    1.59
  -4  -6  14   -0.44    1.58
   4  -6 -14   -1.18    1.48
   4  -6 -14    2.42    1.17
   4  -6 -14    0.23    0.81
   4  -6 -14    3.68    0.92
   4   6 -14    1.86    1.38
   3  -6 -14    3.25    1.19
   3  -6 -14    3.93    0.82
   3  -6 -14    2.03    0.99
  -3  -6  14    2.75    1.68
   3   6 -14    2.21    1.35
  -2  -6  14   43.26    4.25
   2  -6 -14   39.36    3.44
   2   6 -14   45.66    3.50
   1  -6 -14    7.91    1.55
  -1  -6  14    9.48    2.20
   1   6 -14   10.17    1.43
   0  -6 -14   38.62    3.32
   0  -6  14   37.86    4.24
   0   6 -14   43.52    3.25
   0   6  14   39.32    4.16
  -1  -6 -14    6.20    1.46
   1  -6  14    8.13    2.25
  -1   6 -14    8.87    1.36
   1   6  14    5.24    2.51
  -2  -6 -14   24.74    2.70
   2  -6  14   28.24    3.73
   2   6  14   23.35    3.56
  -2   6 -14   30.82    2.43
  -3  -6 -14   -0.61    1.42
   3  -6  14    4.05    2.19
  -3   6 -14    2.50    1.05
   3   6  14   -2.21    2.10
  -4  -6 -14    1.70    1.56
   4  -6  14    4.58    2.27
  -5  -6 -14   -3.65    1.72
   5  -6  14    0.56    2.69
  -5   6 -14    2.86    1.09
   9  -7 -14   16.39    2.95
   8   7 -14    3.86    2.20
   7  -7 -14   24.11    3.25
  -7  -7  14   27.41    3.17
   7   7 -14   20.26    3.02
   6  -7 -14   15.67    2.34
   6  -7 -14   15.36    1.80
  -6  -7  14   19.89    2.98
   6   7 -14   15.91    2.55
   5  -7 -14   33.57    3.20
  -5  -7  14   34.78    3.67
   5  -7 -14   31.88    2.72
   5   7 -14   33.58    3.35
   4  -7 -14   12.25    2.32
   4  -7 -14   17.76    2.46
  -4  -7  14   18.06    2.90
   4   7 -14   17.34    2.30
   3  -7 -14   37.15    3.26
  -3  -7  14   32.52    3.82
   3  -7 -14   32.14    3.73
   3   7 -14   34.56    3.20
   2  -7 -14    7.51    1.38
   2  -7 -14    5.17    2.26
  -2  -7  14    9.54    2.19
   2   7 -14   12.57    1.74
  -1  -7  14    2.91    1.97
   1  -7 -14   -0.28    1.12
   1  -7 -14    1.57    2.37
  -1   7  14    0.87    0.99
   1   7 -14    4.02    1.30
   0  -7 -14   -0.09    2.45
   0  -7  14   -1.15    1.96
   0  -7 -14   -1.12    1.29
   0   7  14   -0.43    1.23
   0   7 -14    0.46    1.13
   1  -7  14    3.49    2.18
  -1   7 -14    1.23    1.16
   2  -7  14    6.54    2.38
  -2   7 -14    6.09    1.18
   3  -7  14   17.65    3.48
  -4  -7 -14    0.46    2.59
   7   8 -14    9.69    2.68
   6  -8 -14    2.62    1.64
   6   8 -14   -1.39    1.56
   5  -8 -14    2.17    1.49
   5   8 -14    1.78    1.72
   4  -8 -14    2.49    1.63
   4   8 -14    1.78    1.51
   3  -8 -14   13.59    2.45
  -3  -8  14   14.89    2.45
   3   8 -14   12.94    1.91
  -2  -8  14    4.56    1.50
   2  -8 -14    1.85    2.07
   2   8 -14    3.07    1.19
  -1  -8  14   45.41    4.23
   1   8 -14   41.03    3.43
  -1   8  14   43.59    3.76
   0  -8 -14    2.73    2.20
  13   0 -15    7.78    1.64
 -12   0  15    0.88    0.95
  12   0 -15   -0.48    1.18
  11   0 -15   99.20    7.36
 -11   0  15  102.48    7.38
  10   0 -15    0.66    1.14
 -10   0  15    0.61    0.85
   9   0 -15   32.91    2.85
  -9   0  15   36.61    2.86
   7   0 -15   14.29    1.45
  -7   0  15   12.15    1.42
  -6   0  15    0.05    0.61
   6   0 -15   -0.67    0.75
   5   0 -15    0.92    0.72
  -5   0  15    2.01    0.61
  -4   0  15   -0.32    1.13
   4   0 -15    0.22    0.67
  -4   0  15    0.25    0.52
  -3   0  15   35.34    2.98
  -3   0  15   29.30    2.48
   3   0 -15   32.50    2.46
  -2   0  15   -1.12    1.14
  -2   0  15    0.18    0.54
   2   0 -15   -0.51    0.55
   1   0 -15   77.04    5.64
   1   0 -15   79.29    5.59
   0   0  15   -0.84    1.24
   0   0 -15   -0.16    0.73
   0   0 -15    0.54    0.53
  -1   0 -15  133.22    9.88
  -1   0 -15  127.70    9.79
   1   0  15  158.29   10.31
   2   0  15    0.15    1.35
  -2   0 -15    0.42    0.57
  -2   0 -15    0.98    0.91
  -3   0 -15   13.61    1.19
   3   0  15   12.26    2.13
  -4   0 -15   -0.99    1.02
   4   0  15   -1.20    1.46
  -5   0 -15    6.31    1.50
   5   0  15    9.80    2.01
  -6   0 -15   -3.02    1.36
   7   0  15    4.98    1.88
  -7   0 -15    5.52    1.78
  13   1 -15   18.59    2.04
 -12  -1  15    5.46    1.05
  12  -1 -15    4.90    1.22
  12   1 -15    4.99    1.40
 -12   1  15    4.53    1.11
  11  -1 -15    2.01    1.12
 -11  -1  15    1.44    0.88
 -11   1  15    2.31    1.12
  11   1 -15    1.77    1.37
 -10  -1  15    0.40    0.85
  10  -1 -15    1.33    1.00
  10   1 -15   -0.06    1.12
 -10   1  15    1.38    0.98
  -9  -1  15   12.94    1.49
   9  -1 -15   12.13    1.55
  -9   1  15   15.06    1.64
   9   1 -15   12.47    1.63
   8  -1 -15    9.55    1.52
   8   1 -15   13.23    2.28
   7  -1 -15   53.14    4.04
  -7  -1  15   52.74    4.04
  -7   1  15   55.87    4.10
   7   1 -15   54.26    4.07
   6  -1 -15   22.58    1.93
  -6  -1  15   21.81    1.92
   6   1 -15   22.37    1.96
  -6   1  15   23.62    1.99
   5  -1 -15   43.63    3.31
  -5  -1  15   42.42    3.31
  -5  -1  15   45.18    3.72
  -5   1  15   44.47    3.36
   5   1 -15   44.63    3.34
   4  -1 -15   22.33    1.85
  -4  -1  15   22.69    2.42
  -4  -1  15   21.77    1.83
  -4   1  15   23.62    2.54
   4   1 -15   20.76    1.82
  -4   1  15   21.25    1.86
   3  -1 -15   65.48    4.72
  -3  -1  15   65.77    4.76
  -3   1  15   64.17    4.77
   3   1 -15   65.84    4.75
  -2  -1  15   17.71    1.57
   2  -1 -15   16.69    1.51
  -2  -1  15   20.37    2.22
  -2   1  15   22.59    2.41
  -2   1  15   16.15    1.57
   2   1 -15   17.62    1.56
   1  -1 -15    8.20    0.94
   1  -1 -15    8.09    1.11
  -1  -1  15    7.48    1.53
   1   1 -15    6.57    0.97
  -1   1  15   11.60    1.84
   0  -1 -15    0.69    0.73
   0  -1  15    1.04    1.25
   0  -1 -15    1.27    0.56
   0   1  15    0.52    1.44
   0   1 -15    0.88    0.74
   0   1 -15    0.95    0.60
   1  -1  15    5.32    1.50
  -1  -1 -15    4.14    0.69
  -1  -1 -15    4.92    1.01
  -1   1 -15    4.66    0.81
  -1   1 -15    5.08    0.99
   1   1  15    4.89    1.64
  -2  -1 -15    9.55    1.40
   2  -1  15   10.75    1.93
  -2  -1 -15    9.03    0.92
   2   1  15   12.29    2.15
  -2   1 -15   10.34    1.12
  -2   1 -15    8.54    1.37
  -3  -1 -15   32.29    2.92
   3  -1  15   40.62    3.41
  -3   1 -15   32.62    2.90
   3   1  15   40.93    3.51
  -3   1 -15   32.99    2.69
   4  -1  15   15.37    2.28
  -4  -1 -15   10.19    1.75
  -4   1 -15    9.56    1.73
  -4   1 -15   14.34    1.38
   4   1  15   18.08    2.51
  -5  -1 -15   30.39    3.11
   5  -1  15   41.26    3.53
   5   1  15   38.46    3.64
  -5   1 -15   32.55    3.12
   6  -1  15   12.79    2.44
  -6  -1 -15    8.62    1.80
   6   1  15   13.36    2.38
  -6   1 -15   10.24    1.85
   7  -1  15    9.83    2.02
  -7   1 -15    7.92    1.96
   7   1  15   10.29    2.10
  13   2 -15    1.27    1.82
 -12  -2  15   29.15    2.47
  12  -2 -15   28.72    2.57
  12   2 -15   29.18    2.69
 -12   2  15   27.80    2.66
 -11  -2  15   14.54    1.69
  11  -2 -15   14.70    1.87
  11   2 -15   13.45    1.92
 -11   2  15   15.37    1.98
  10  -2 -15   59.25    4.52
 -10  -2  15   57.07    4.46
  10   2 -15   59.47    4.56
 -10   2  15   61.60    4.63
   9  -2 -15    4.85    1.07
  -9  -2  15    4.23    0.93
   9   2 -15    4.93    1.27
  -9   2  15    5.04    1.14
   8  -2 -15   24.38    2.13
  -8  -2  15   22.01    2.21
  -8   2  15   27.30    2.28
   8   2 -15   24.73    2.27
   7  -2 -15    2.37    0.90
  -7  -2  15    1.68    0.74
   7   2 -15    3.13    1.08
  -7   2  15    1.74    0.86
  -6  -2  15   -0.02    0.62
   6  -2 -15    1.42    0.78
  -6   2  15    0.67    0.72
   6   2 -15    0.46    0.86
  -5  -2  15   -1.26    1.33
  -5  -2  15    0.02    0.55
   5  -2 -15    0.50    0.70
  -5   2  15    0.69    0.72
   5   2 -15    1.56    0.78
  -4  -2  15   -0.38    1.38
  -4  -2  15    0.89    0.58
   4  -2 -15    0.73    0.68
  -4   2  15    1.32    0.63
   4   2 -15    0.78    0.79
  -4   2  15   -1.69    1.48
   3  -2 -15    3.65    0.77
  -3  -2  15    2.56    1.50
  -3  -2  15    4.43    0.78
  -3   2  15    4.75    1.83
   3   2 -15    6.08    0.96
  -3   2  15    3.13    0.73
  -2  -2  15   59.95    4.33
   2  -2 -15   60.88    4.28
  -2  -2  15   52.78    4.88
  -2   2  15   62.49    5.09
   2   2 -15   59.06    4.33
  -1  -2  15    9.33    1.84
   1  -2 -15   11.10    1.26
   1  -2 -15    9.56    1.04
  -1   2  15   12.21    2.24
   1   2 -15   11.10    1.14
   0  -2 -15   77.69    5.72
   0  -2  15   82.33    6.36
   0  -2 -15   80.03    5.85
   0   2 -15   77.85    5.78
   0   2  15   86.09    6.54
  -1  -2 -15   15.95    1.65
  -1  -2 -15   13.88    1.22
   1  -2  15   17.69    2.35
  -1   2 -15   18.58    1.47
  -1   2 -15   10.87    1.74
   1   2  15   14.32    2.67
  -2   2 -15   50.71    3.83
  -2   2 -15   49.59    3.72
   3  -2  15    0.76    1.53
  -3  -2 -15    1.78    1.03
   3   2  15   -0.16    1.74
  -3   2 -15    1.98    0.84
  -3   2 -15    0.35    0.97
   4  -2  15    8.88    1.91
  -4  -2 -15    8.11    1.45
  -4   2 -15    8.37    1.43
  -4   2 -15   10.70    1.20
   4   2  15    8.15    2.06
  -5  -2 -15    0.09    1.30
   5  -2  15    1.41    1.65
  -5   2 -15   -0.55    1.32
   5   2  15   -0.51    1.83
   6  -2  15    0.51    1.65
  -6  -2 -15   -0.49    1.42
   6   2  15   -1.71    1.74
  -7  -2 -15    2.03    2.32
   7  -2  15    2.60    1.82
   7   2  15    0.14    1.50
  -7   2 -15    0.84    1.75
 -12  -3  15   15.83    1.63
 -12   3  15   14.29    1.91
 -11  -3  15    1.19    0.87
  11  -3 -15   -0.31    1.07
 -11   3  15    0.37    1.22
  11   3 -15   -2.61    1.49
  10  -3 -15    1.14    1.08
 -10  -3  15    3.35    0.88
 -10   3  15    4.99    1.31
  10   3 -15    0.98    1.43
   9  -3 -15    0.49    0.97
  -9  -3  15    1.03    0.82
   9   3 -15   -1.33    1.27
  -9   3  15   -0.34    1.10
   8  -3 -15   31.80    2.66
  -8  -3  15   30.67    2.60
  -8   3  15   34.38    2.84
   8   3 -15   31.98    2.81
   7  -3 -15    2.00    1.54
  -7  -3  15    2.34    0.80
  -7  -3  15    2.04    1.48
   7   3 -15    2.77    1.22
  -7   3  15    3.76    1.20
  -6  -3  15   63.04    4.99
   6  -3 -15   66.18    5.00
   6   3 -15   71.25    5.12
  -6   3  15   73.50    5.12
  -5  -3  15    1.71    0.67
   5  -3 -15    2.68    0.80
  -5  -3  15    0.33    1.51
  -5   3  15    1.58    0.76
   5   3 -15    2.43    1.06
  -4  -3  15   59.44    4.60
   4  -3 -15   63.41    4.60
   4   3 -15   64.37    4.68
  -4   3  15   63.82    4.67
  -4   3  15   64.67    5.13
  -3  -3  15    3.14    0.65
   3  -3 -15    2.75    0.75
  -3  -3  15   -0.02    1.59
  -3   3  15    3.17    0.75
  -3   3  15    4.15    1.85
   3   3 -15    3.11    0.85
   2  -3 -15   49.72    3.60
  -2  -3  15   50.93    3.65
   2  -3 -15   50.84    3.70
  -2   3  15   41.46    4.44
   2   3 -15   50.11    3.67
   1  -3 -15    0.96    0.81
  -1  -3  15   -1.86    1.55
   1  -3 -15   -0.31    0.54
  -1   3  15   -0.96    2.02
   1   3 -15    1.14    0.75
   1   3 -15    1.05    0.70
   0  -3 -15    2.63    0.61
   0  -3 -15    2.38    0.89
   0  -3  15    2.43    1.69
   0   3 -15    1.95    0.83
   0   3 -15    2.99    0.85
   0   3  15   -0.30    1.93
  -1  -3 -15    0.64    1.86
  -1   3 -15    1.27    0.80
   1   3  15   -2.41    2.60
  -1   3 -15   -0.91    0.84
   2  -3  15   26.66    3.05
  -2  -3 -15   26.25    2.36
  -2   3 -15   23.52    2.28
  -2   3 -15   26.12    2.15
   2   3  15   24.79    3.26
   3  -3  15    3.03    1.73
  -3  -3 -15    1.95    1.20
  -3   3 -15    2.84    1.09
  -3   3 -15   -0.10    0.98
   3   3  15   -0.59    1.93
  -4  -3 -15   31.99    3.12
   4  -3  15   42.55    3.73
  -4   3 -15   37.46    2.90
   4   3  15   33.35    3.80
  -5  -3 -15   -0.72    1.39
   5  -3  15    2.99    1.78
   5   3  15   -0.12    1.80
  -6  -3 -15   28.05    3.04
   6  -3  15   36.72    3.38
   6   3  15   29.54    3.41
   7  -3  15    1.83    2.10
  12   4 -15   12.21    1.86
 -11   4  15   18.18    2.35
 -10  -4  15   25.32    2.31
  10  -4 -15   26.82    2.43
 -10   4  15   26.25    2.78
  10   4 -15   25.13    2.92
  -9  -4  15   13.56    1.55
   9  -4 -15   11.34    1.67
   9   4 -15   13.86    2.10
  -9   4  15   13.29    2.05
  -8  -4  15   11.93    1.45
   8  -4 -15   10.61    1.55
   8   4 -15   12.38    2.03
  -8   4  15   13.08    1.85
  -7  -4  15    5.56    1.07
  -7  -4  15    3.49    1.89
   7  -4 -15    5.49    1.08
   7   4 -15    6.42    1.52
  -7   4  15    5.66    1.25
  -6  -4  15    0.30    0.69
  -6  -4  15    1.14    1.77
   6  -4 -15   -0.89    1.26
  -6   4  15    0.51    0.90
   6   4 -15   -0.45    1.31
   5  -4 -15    0.17    0.83
  -5  -4  15    1.02    0.71
  -5  -4  15    1.61    1.78
  -5   4  15   -0.25    0.79
   5   4 -15    1.36    1.13
  -4  -4  15    0.61    0.63
   4  -4 -15    0.67    0.77
  -4  -4  15    0.01    1.76
  -4   4  15    0.61    0.76
  -4   4  15   -0.76    1.50
   3  -4 -15   10.68    1.26
  -3  -4  15   12.35    1.25
  -3  -4  15   10.04    2.15
  -3   4  15   13.50    2.46
   3   4 -15   14.84    2.10
  -2  -4  15   21.42    3.15
   2  -4 -15   25.31    2.19
   2  -4 -15   24.49    2.02
   2   4 -15   30.47    2.78
   1  -4 -15   28.71    2.41
  -1   4  15   25.71    3.49
   0  -4  15   23.95    3.37
   0   4 -15   30.36    2.39
  -1  -4 -15   43.22    3.32
   1  -4  15   34.09    4.10
  -1   4 -15   44.35    3.21
  -1   4 -15   40.36    3.14
  -2  -4 -15   20.97    2.16
   2  -4  15   21.66    3.16
   2   4  15   14.68    2.93
  -2   4 -15   19.42    2.00
  -2   4 -15   22.80    1.95
   3  -4  15    4.33    2.15
  -3  -4 -15    3.15    1.36
  -3   4 -15    5.80    1.11
   3   4  15    3.52    2.25
   4  -4  15    4.56    2.01
  -4  -4 -15    1.30    1.40
   4   4  15    1.94    2.00
  -4   4 -15    5.76    1.11
   5  -4  15    2.04    1.89
   5   4  15   -0.20    1.83
  -5   4 -15    4.96    1.10
   6  -4  15    0.45    1.66
  -6   4 -15    3.10    0.96
 -11  -5  15    2.06    0.96
  11   5 -15    1.70    1.90
  10  -5 -15    1.89    1.11
 -10  -5  15    1.42    0.96
  10   5 -15    0.81    2.00
 -10   5  15    3.24    1.34
   9  -5 -15   12.35    1.73
  -9  -5  15   13.85    1.70
  -9   5  15   12.99    1.91
   9   5 -15   14.69    2.62
  -8  -5  15    0.53    0.84
   8  -5 -15    0.23    0.99
   8   5 -15    0.00    1.79
  -8   5  15    1.89    1.37
  -7  -5  15   49.91    3.82
   7  -5 -15   43.19    3.81
  -7  -5  15   47.77    4.92
  -7   5  15   53.16    4.04
   7   5 -15   56.10    4.21
   6  -5 -15    2.54    1.02
  -6  -5  15    3.42    0.85
  -6  -5  15    4.99    2.35
   6   5 -15    2.49    1.46
  -6   5  15    1.91    1.09
   5  -5 -15   44.01    3.71
  -5  -5  15   42.21    3.27
  -5  -5  15   42.00    4.37
   5   5 -15   43.80    3.58
  -4  -5  15    1.50    0.66
   4  -5 -15    2.03    0.86
  -4  -5  15    2.96    1.89
   4   5 -15    3.02    1.24
  -4   5  15    0.77    1.60
  -3  -5  15   53.44    5.20
   3  -5 -15   55.10    4.74
   3  -5 -15   59.15    4.27
  -3  -5  15   57.23    4.54
   3   5 -15   63.57    4.48
  -3   5  15   59.03    5.01
   2  -5 -15    1.91    1.84
  -2  -5  15    2.52    1.90
   2   5 -15    1.95    1.08
  -2   5  15   -0.52    2.65
   1  -5 -15    7.37    1.36
  -1  -5  15    7.92    2.29
  -1   5  15    9.44    2.58
   1   5 -15   10.84    1.39
   0  -5  15    0.39    1.89
   0  -5 -15   -0.64    1.03
   0   5  15   -0.12    2.34
   0   5 -15    0.98    1.00
  -1  -5 -15    4.87    1.27
   1  -5  15    4.57    2.20
  -1   5 -15    4.53    1.15
   1   5  15    2.69    2.52
   2  -5  15    0.74    2.09
  -2  -5 -15   -1.30    1.19
  -2   5 -15    0.24    1.00
   2   5  15    1.20    2.41
   3  -5  15   22.89    3.64
  -3  -5 -15   28.30    2.75
  -3   5 -15   30.60    2.50
   4  -5  15    0.75    2.04
  -4  -5 -15   -2.28    1.37
  -4   5 -15    3.32    1.12
   4   5  15   -3.02    1.91
  -5  -5 -15   27.97    3.15
   5  -5  15   34.12    3.51
  -5   5 -15   36.86    2.77
  10   6 -15   -0.47    1.83
   8  -6 -15    4.12    1.16
   8   6 -15    3.63    2.15
  -7  -6  15    9.87    2.32
   7  -6 -15   10.88    1.56
   7   6 -15   10.51    2.20
  -6  -6  15    3.43    1.95
   6  -6 -15   -0.36    0.96
   6   6 -15    0.12    1.70
  -5  -6  15    2.71    2.02
   5  -6 -15    3.83    1.05
   5  -6 -15    2.29    1.00
   5   6 -15   -0.34    1.54
  -4  -6  15    0.94    1.87
   4  -6 -15    1.05    0.97
   4   6 -15   -1.12    1.46
  -3  -6  15   15.03    3.14
   3  -6 -15   13.47    1.80
   3   6 -15   15.55    2.05
  -2  -6  15    5.53    2.25
   2  -6 -15    6.55    1.31
   2   6 -15    8.26    1.49
  -1  -6  15   34.01    4.16
   1  -6 -15   30.73    2.90
   1   6 -15   35.95    2.87
  -1   6  15   31.12    3.94
   0  -6 -15    5.06    1.39
   0  -6  15    8.90    2.52
   0   6  15    3.95    2.64
  -1  -6 -15   43.92    3.77
   1  -6  15   44.41    4.68
   1   6  15   36.31    4.80
  -1   6 -15   54.02    3.62
   2  -6  15    4.93    2.37
  -2   6 -15    6.64    1.26
   3  -6  15    4.95    2.16
  -3  -6 -15    1.35    1.52
  -4   6 -15    4.64    1.51
   8   7 -15    1.19    1.70
   7  -7 -15   10.06    1.59
   7   7 -15    9.91    2.29
  -6  -7  15   27.95    3.53
   6  -7 -15   24.23    2.31
   6   7 -15   24.17    3.02
  -5  -7  15   18.86    3.04
   5   7 -15   12.97    2.32
  -4  -7  15   29.41    3.62
   4   7 -15   29.47    3.00
   3  -7 -15    8.24    2.27
  -3  -7  15   10.24    2.32
   3   7 -15   12.81    2.04
  -2  -7  15   19.23    3.23
   2  -7 -15   11.47    2.75
   2  -7 -15   12.72    1.83
   2   7 -15   17.67    2.02
   1  -7 -15    2.99    2.46
  -1  -7  15    3.65    2.12
   1   7 -15    3.39    1.20
   0  -7 -15   -1.19    1.31
   0  -7  15    4.01    2.20
   0   7 -15    1.86    1.19
   1  -7  15    3.33    2.02
  -1   7 -15    2.68    1.00
  -2  -7 -15    2.60    1.68
  -3  -7 -15   -0.41    2.56
   3  -8 -15    0.51    1.82
   2  -8 -15   14.28    2.76
  12   0 -16   28.44    2.63
 -12   0  16   31.17    2.56
  11   0 -16    0.91    1.19
 -11   0  16    0.56    1.00
 -10   0  16   63.54    4.88
  10   0 -16   65.38    4.89
   9   0 -16    1.53    1.12
  -9   0  16   -0.22    0.80
   8   0 -16   39.39    3.20
  -8   0  16   41.16    3.23
   6   0 -16    1.18    0.85
  -6   0  16    0.35    0.70
  -5   0  16   -0.13    1.95
  -5   0  16   -1.16    0.63
   5   0 -16   -0.67    0.77
   4   0 -16    3.71    0.84
  -4   0  16    3.83    0.76
  -4   0  16    3.27    1.39
  -3   0  16    1.37    1.21
   3   0 -16    0.19    0.70
  -3   0  16    0.06    0.56
  -2   0  16   46.76    3.63
  -2   0  16   54.27    4.15
   2   0 -16   45.32    3.57
   1   0 -16    0.46    0.71
   1   0 -16    0.56    0.64
  -1   0  16   -0.83    1.36
   0   0 -16   83.99    5.94
   0   0 -16   79.22    5.82
   1   0  16    0.23    1.52
  -1   0 -16   -0.16    0.85
  -1   0 -16    0.57    0.66
   2   0  16   54.31    4.15
  -2   0 -16   41.98    3.59
  -2   0 -16   43.56    3.38
   3   0  16    0.42    1.58
  -3   0 -16   -0.77    1.09
  -4   0 -16   11.92    1.68
   4   0  16   12.83    2.47
  -5   0 -16    0.07    1.39
   5   0  16    1.46    1.78
  -6   0 -16   -1.70    1.41
   6   0  16   -1.78    1.69
  12  -1 -16   10.17    1.46
 -12  -1  16   11.41    1.39
  12   1 -16    9.86    1.64
 -12   1  16   13.19    1.60
 -11  -1  16    0.92    0.95
  11  -1 -16    0.25    1.12
 -11   1  16    2.85    1.13
  11   1 -16    1.37    1.31
  10  -1 -16    0.57    1.13
 -10  -1  16    1.65    0.91
 -10   1  16    0.84    1.07
  10   1 -16    1.36    1.15
   9  -1 -16    1.52    1.08
  -9  -1  16    1.66    0.86
  -9   1  16    3.18    1.08
   9   1 -16    1.87    1.12
   8  -1 -16   28.96    2.59
  -8  -1  16   30.69    2.59
   8   1 -16   29.74    2.64
  -8   1  16   36.23    2.72
   7  -1 -16   27.81    2.84
   7   1 -16   26.60    2.43
  -7   1  16   25.86    2.43
   6  -1 -16   36.31    2.94
  -6  -1  16   37.35    2.93
  -6   1  16   39.25    2.99
   6   1 -16   37.06    2.97
  -5  -1  16   12.88    2.13
   5  -1 -16   13.54    1.43
  -5  -1  16   13.16    1.40
   5   1 -16   14.51    1.45
  -5   1  16   13.37    1.43
  -4  -1  16   36.85    3.05
  -4  -1  16   37.17    3.53
   4  -1 -16   40.36    3.04
  -4   1  16   45.13    3.73
  -4   1  16   38.80    3.07
   4   1 -16   41.18    3.05
   3  -1 -16   15.91    1.50
  -3  -1  16   15.05    1.49
  -3  -1  16   16.62    2.21
   3   1 -16   17.03    1.52
  -3   1  16   19.60    2.47
  -3   1  16   15.63    1.54
   2  -1 -16   19.16    1.77
  -2  -1  16   23.22    2.53
  -2  -1  16   22.14    1.85
   2   1 -16   21.30    1.81
  -2   1  16   24.30    2.80
   1  -1 -16    4.53    0.90
   1  -1 -16    5.47    0.79
  -1   1  16    5.91    1.79
   1   1 -16    4.52    0.84
   1   1 -16    4.48    0.90
   0  -1 -16    3.75    0.91
   0  -1  16    4.72    1.63
   0  -1 -16    4.15    0.76
   0   1 -16    4.15    0.83
   0   1  16    3.14    1.77
   0   1 -16    4.56    0.95
  -1  -1 -16    1.59    0.60
  -1   1 -16    3.22    0.76
  -1   1 -16    1.66    0.95
   1   1  16    0.47    2.39
  -2  -1 -16   11.77    1.73
   2  -1  16   17.52    2.39
  -2   1 -16   14.85    1.47
   2   1  16   17.99    2.67
  -2   1 -16   17.65    2.43
  -3  -1 -16   10.01    1.71
  -3   1 -16   13.44    1.32
  -3   1 -16   10.21    1.71
   3   1  16   16.54    2.53
  -4  -1 -16   33.97    3.26
   4  -1  16   44.30    3.81
   4   1  16   46.64    3.98
  -4   1 -16   32.10    3.24
  -5  -1 -16   11.82    1.99
  -5   1 -16   11.05    2.01
   5   1  16   15.42    2.68
   6  -1  16   16.01    2.63
  -6  -1 -16   13.76    2.21
  -6   1 -16   15.50    2.19
  -7   1 -16   -3.13    1.85
 -12  -2  16    4.65    1.30
 -12   2  16    5.19    1.13
  12   2 -16    3.69    1.32
 -11  -2  16   64.28    5.26
  11  -2 -16   70.03    5.32
  11   2 -16   73.08    5.37
 -11   2  16   76.20    5.45
  10  -2 -16    7.85    1.40
 -10  -2  16    8.53    1.42
 -10   2  16   10.94    1.60
  10   2 -16    9.05    1.55
   9  -2 -16   34.39    2.87
  -9  -2  16   32.06    2.81
   9   2 -16   35.41    2.97
  -9   2  16   37.03    3.07
  -8  -2  16    5.73    1.00
   8  -2 -16    5.24    1.13
  -8   2  16    4.87    1.16
   8   2 -16    8.20    1.39
  -7  -2  16    9.44    1.72
   7  -2 -16   10.36    1.39
  -7   2  16   11.90    1.53
   7   2 -16   11.97    1.50
  -6  -2  16    0.93    0.67
   6  -2 -16   -0.11    0.79
  -6   2  16   -1.14    0.88
  -5  -2  16    1.80    0.70
  -5  -2  16    1.64    1.52
   5  -2 -16    2.73    0.84
   5   2 -16    3.16    0.98
  -5   2  16    1.16    0.79
  -4  -2  16   -0.05    1.54
  -4  -2  16    0.83    0.60
   4  -2 -16    0.78    0.75
  -4   2  16    0.04    1.84
   4   2 -16    0.21    0.78
  -4   2  16   -0.25    0.64
  -3  -2  16   26.25    3.10
  -3  -2  16   27.82    2.21
   3  -2 -16   27.26    2.20
  -3   2  16   31.34    3.27
  -3   2  16   26.71    2.26
   3   2 -16   25.86    2.24
  -2  -2  16    5.97    0.98
   2  -2 -16    5.53    0.91
  -2  -2  16    4.63    1.74
  -2   2  16    7.11    2.21
   2   2 -16    6.17    1.01
   1  -2 -16   35.20    2.66
  -1  -2  16   39.56    3.55
   1  -2 -16   35.08    2.83
   1   2 -16   33.67    2.75
   1   2 -16   33.94    2.72
   0  -2 -16   10.99    1.76
   0  -2  16   12.21    2.30
   0  -2 -16   10.50    1.06
   0   2  16   12.04    2.44
   0   2 -16    9.98    1.27
  -1  -2 -16   94.10    7.18
   1  -2  16  100.89    7.63
  -1   2 -16   89.37    7.07
   1   2  16  115.06    8.00
  -2  -2 -16    6.01    1.27
   2  -2  16    8.08    1.84
  -2   2 -16    4.58    1.19
   2   2  16    8.50    2.27
  -2   2 -16    7.20    1.15
  -3  -2 -16    9.94    1.54
   3  -2  16   11.30    2.08
  -3   2 -16   10.43    1.42
   3   2  16    9.41    2.32
  -3   2 -16    8.39    1.47
   4  -2  16    4.31    1.77
  -4  -2 -16   -0.43    1.21
   4   2  16    1.76    1.97
  -4   2 -16    0.99    1.24
   5  -2  16    4.71    1.80
  -5  -2 -16    1.08    1.47
  -5   2 -16   -1.25    1.40
   5   2  16    1.60    1.94
   6  -2  16   -1.97    1.73
  -7   2 -16    3.99    1.86
  12   3 -16   -0.85    1.29
 -11  -3  16    4.63    1.02
  11  -3 -16    4.47    1.15
  11   3 -16    1.04    1.38
 -11   3  16    6.66    1.41
  10  -3 -16    0.07    1.12
 -10  -3  16    0.82    0.88
  10   3 -16   -0.29    1.33
 -10   3  16   -0.93    1.31
  -9  -3  16    6.20    1.09
   9  -3 -16    6.08    1.29
  -9   3  16    8.25    1.50
   9   3 -16    7.36    1.54
  -8  -3  16    0.70    0.78
   8  -3 -16    1.90    1.00
   8   3 -16    1.68    1.45
  -8   3  16    1.84    1.14
   7  -3 -16   75.44    5.69
  -7  -3  16   70.55    5.67
   7   3 -16   82.63    5.81
  -7   3  16   83.14    5.83
  -6  -3  16    2.24    0.74
  -6  -3  16    2.98    1.75
  -6   3  16    1.70    0.98
   6   3 -16    1.88    1.08
   5  -3 -16   43.08    3.34
  -5  -3  16   41.57    3.33
  -5   3  16   42.99    3.62
   5   3 -16   46.69    3.42
  -4  -3  16    2.42    0.76
   4  -3 -16    1.73    0.86
  -4  -3  16    1.68    1.62
  -4   3  16    2.45    0.84
  -4   3  16    1.46    1.85
  -3  -3  16   42.82    3.44
   3  -3 -16   47.58    3.42
  -3   3  16   43.64    4.37
   3   3 -16   48.24    3.53
   2  -3 -16    0.79    0.84
   2  -3 -16    0.54    0.67
  -2  -3  16   -0.22    1.71
  -2   3  16   -0.58    2.10
   2   3 -16   -0.06    0.79
   1  -3 -16   15.04    2.42
   1  -3 -16   12.75    1.21
   1   3 -16   13.66    1.45
   1   3 -16   13.46    1.47
  -1   3  16   11.17    2.70
   0  -3  16    2.44    1.91
   0  -3 -16   -0.32    0.93
   0   3  16   -2.27    3.16
   0   3 -16    1.11    0.91
   1  -3  16    3.46    1.95
  -1  -3 -16    5.61    1.21
   1   3  16    6.26    2.45
  -1   3 -16    6.24    1.10
  -1   3 -16    2.89    1.08
   2  -3  16   -0.38    1.79
  -2  -3 -16    1.53    1.15
  -2   3 -16    2.10    0.93
   2   3  16    2.46    2.28
  -2   3 -16   -0.64    1.02
   3  -3  16   41.27    3.86
  -3  -3 -16   34.10    3.11
   3   3  16   34.68    4.02
  -3   3 -16   34.00    3.04
  -3   3 -16   37.93    2.93
  -4  -3 -16   -0.45    1.21
   4  -3  16    2.25    1.86
  -4   3 -16   -1.44    1.06
   4   3  16   -0.24    1.95
  -4   3 -16    2.79    1.01
  -5  -3 -16   42.05    3.78
   5  -3  16   51.32    4.24
   5   3  16   42.14    4.27
   6  -3  16   -0.34    2.11
 -11  -4  16   31.22    2.67
 -11   4  16   34.05    3.03
  11   4 -16   31.99    3.06
  10  -4 -16   24.50    2.23
 -10  -4  16   22.61    2.20
  10   4 -16   22.45    2.71
 -10   4  16   23.41    2.66
   9  -4 -16   14.72    1.85
  -9  -4  16   15.31    1.78
  -9   4  16   19.86    2.30
   9   4 -16   17.34    2.31
  -8  -4  16   12.84    1.68
   8  -4 -16   14.97    1.77
  -8   4  16   17.45    2.18
   8   4 -16   14.86    2.16
  -7  -4  16    7.08    1.96
  -7  -4  16    6.78    1.10
   7  -4 -16    8.57    1.35
   7   4 -16    8.61    1.78
  -7   4  16    6.05    1.37
   6  -4 -16    0.59    0.88
  -6  -4  16    0.85    0.84
  -6  -4  16    0.03    2.08
   6   4 -16    0.80    1.28
  -6   4  16    0.39    0.99
  -5  -4  16    0.14    1.92
   5  -4 -16    1.05    0.98
  -5  -4  16    0.52    0.78
  -5   4  16   -1.54    1.14
   5   4 -16    1.68    1.14
  -5   4  16    1.73    0.96
   4  -4 -16    2.60    0.94
  -4  -4  16    1.55    0.73
  -4  -4  16   -1.13    2.51
   4   4 -16    1.47    1.01
  -4   4  16    1.56    1.75
   3  -4 -16   13.91    1.54
  -3  -4  16   10.57    2.75
   3  -4 -16   13.50    1.40
  -3  -4  16   14.74    1.41
   3   4 -16   12.63    1.60
  -3   4  16   13.21    2.84
   2  -4 -16   17.48    1.48
   2  -4 -16   18.85    1.79
  -2  -4  16   13.40    2.52
  -2   4  16   13.91    2.94
   2   4 -16   17.31    1.76
  -1  -4  16   11.67    2.58
   1  -4 -16   18.29    1.85
   1   4 -16   18.62    1.77
  -1   4  16   14.44    2.99
   0  -4 -16   28.22    2.47
   0  -4  16   19.22    3.51
   0   4 -16   30.46    2.37
   1  -4  16   33.66    4.23
  -1  -4 -16   38.41    3.26
  -1   4 -16   44.25    3.16
  -2  -4 -16   14.96    2.02
   2  -4  16   15.67    3.07
   2   4  16   15.93    3.03
  -2   4 -16   17.59    1.81
  -3  -4 -16    1.88    1.40
   3  -4  16    4.24    2.11
   3   4  16    1.99    2.30
   4  -4  16    8.01    2.21
  -4   4 -16   12.00    1.57
   5  -4  16    1.51    1.77
  -5   4 -16    4.54    1.13
 -10  -5  16    1.69    1.05
  10   5 -16   -2.18    1.75
 -10   5  16    2.09    1.35
  -9  -5  16    0.44    0.97
   9  -5 -16    4.02    1.09
  -9   5  16    2.54    1.46
   8  -5 -16   31.41    2.57
  -8  -5  16   26.21    2.52
  -8   5  16   30.77    2.92
   8   5 -16   27.48    3.03
  -7  -5  16    4.49    2.07
   7  -5 -16    3.04    1.16
  -7  -5  16    3.97    0.96
   7   5 -16    1.67    1.61
  -7   5  16    1.77    1.34
  -6  -5  16   33.00    3.06
  -6  -5  16   37.80    4.28
   6  -5 -16   37.76    2.94
  -6   5  16   29.66    3.06
   6   5 -16   40.62    3.23
  -5  -5  16    1.15    2.12
  -5  -5  16    2.25    0.75
   5  -5 -16    1.05    0.95
   5   5 -16    0.71    1.45
  -4  -5  16   33.14    4.40
   4  -5 -16   40.29    3.15
   4  -5 -16   39.29    3.06
  -4   5  16   37.40    3.75
   4   5 -16   42.65    3.32
   3  -5 -16    2.06    0.80
   3  -5 -16    1.73    0.97
  -3  -5  16    0.95    2.14
  -3   5  16    1.46    3.08
   3   5 -16    0.83    1.19
   2  -5 -16   22.35    2.13
  -2  -5  16   19.18    3.14
  -2   5  16   16.90    3.23
   2   5 -16   20.42    2.09
  -1  -5  16   -0.11    2.16
   1  -5 -16   -1.67    1.12
  -1   5  16   -3.54    2.41
   1   5 -16   -0.99    1.04
   0  -5 -16    3.60    1.26
   0  -5  16    3.65    2.26
   0   5  16    0.54    2.62
   0   5 -16    3.61    1.19
  -1  -5 -16   -0.24    1.21
   1  -5  16   -1.03    2.25
   1   5  16   -2.35    2.61
  -1   5 -16    0.93    1.06
   2  -5  16   14.13    2.72
  -2  -5 -16   12.64    1.80
   2   5  16   10.92    3.04
  -2   5 -16   14.72    1.70
  -3  -5 -16   -2.25    1.32
   3  -5  16    2.31    2.21
   3   5  16   -0.78    2.22
  -3   5 -16    1.16    1.01
  -4  -5 -16   25.65    2.93
   4  -5  16   33.23    3.70
  -4   5 -16   37.78    2.80
   9   6 -16   -0.55    1.75
   8  -6 -16   15.56    1.98
   8   6 -16   23.03    2.66
  -7  -6  16    3.62    2.13
   7  -6 -16    3.04    1.11
  -7   6  16    1.25    1.07
   7   6 -16   -1.94    1.76
  -6  -6  16    0.04    2.04
   6  -6 -16    1.20    1.14
   6   6 -16    0.09    1.67
  -5  -6  16    1.15    2.18
   5  -6 -16   -0.01    1.06
   5  -6 -16    3.65    1.06
   5   6 -16   -0.66    1.53
  -4  -6  16    2.23    2.15
   4  -6 -16    3.61    1.14
   4   6 -16    1.53    1.54
   3  -6 -16    3.74    1.26
  -3  -6  16    1.19    2.26
   3   6 -16    4.17    1.43
  -2  -6  16   24.57    3.78
   2  -6 -16   18.96    2.30
   2   6 -16   23.48    2.32
   1  -6 -16    1.50    1.26
  -1  -6  16    4.17    2.39
  -1   6  16    4.67    2.71
   1   6 -16    4.10    1.26
   0  -6 -16   32.98    2.95
   0  -6  16   29.13    4.10
   0   6  16   23.06    4.17
   0   6 -16   36.97    2.79
  -1  -6 -16    4.77    1.48
   1  -6  16    6.69    2.35
   1   6  16    1.94    2.76
   2  -6  16   14.99    3.04
  -2  -6 -16   13.92    2.10
   2   6  16    9.38    2.63
  -3  -6 -16   -2.32    1.42
  -7  -7  16   32.84    3.39
   7  -7 -16   24.81    2.56
  -6  -7  16    8.86    2.18
   6  -7 -16    8.05    1.41
   6   7 -16   13.76    2.12
  -5  -7  16   17.07    3.11
   5   7 -16   20.42    2.40
  -4  -7  16   17.74    2.92
   4   7 -16   12.34    2.10
  -3  -7  16   21.02    3.35
   3   7 -16   23.68    2.37
   2  -7 -16    2.86    2.38
   2  -7 -16    1.44    1.67
   2   7 -16    5.31    1.23
   1  -7 -16    1.67    2.63
  -1  -7  16   14.39    2.81
   1   7 -16    7.73    1.22
 -11   0  17   60.61    4.60
  11   0 -17   59.20    4.58
  10   0 -17   -1.38    1.12
 -10   0  17    0.55    0.95
  -9   0  17   60.52    4.58
   9   0 -17   59.10    4.57
   8   0 -17    1.38    1.01
  -8   0  17   -0.27    0.89
  -7   0  17   22.28    2.04
   7   0 -17   21.99    2.08
  -6   0  17    0.28    0.80
   6   0 -17   -0.73    0.90
  -5   0  17    1.48    0.99
  -5   0  17    0.47    1.42
   5   0 -17    2.10    0.93
   4   0 -17    0.45    0.78
  -4   0  17   -0.66    0.68
  -4   0  17    0.52    1.42
  -3   0  17   33.25    2.69
   3   0 -17   33.99    2.65
  -2   0  17    0.34    1.53
   2   0 -17   -0.46    0.72
  -1   0  17   41.43    3.54
   1   0 -17   34.63    2.79
   1   0 -17   34.31    2.92
   0   0  17    1.21    1.81
   0   0 -17   -0.50    0.99
   0   0 -17    0.70    0.65
  -1   0 -17   72.45    5.63
   1   0  17   90.93    6.35
  -1   0 -17   74.41    5.78
   2   0  17    2.05    1.79
  -2   0 -17   -0.06    1.04
  -3   0 -17   11.60    1.79
   4   0  17    1.99    1.87
   5   0  17   -1.89    1.83
  -5   0 -17   -0.58    1.35
  11  -1 -17    2.26    1.15
 -11  -1  17    3.73    1.00
 -11   1  17    2.72    1.15
  11   1 -17    2.38    1.29
 -10  -1  17    0.79    0.88
  10  -1 -17    0.42    1.15
 -10   1  17    1.95    1.11
  10   1 -17    0.57    1.24
   9  -1 -17   -0.57    1.01
  -9  -1  17    1.31    0.89
  -9   1  17    1.38    1.12
   9   1 -17    1.96    1.13
  -8  -1  17   11.08    1.55
   8  -1 -17   14.04    1.61
  -8   1  17   14.49    1.70
   8   1 -17   12.84    1.65
   7  -1 -17   53.14    4.21
  -7  -1  17   54.26    4.22
  -7   1  17   57.56    4.29
   7   1 -17   58.36    4.25
   6  -1 -17   10.84    1.58
  -6  -1  17   14.22    1.52
  -6   1  17   15.90    1.58
   6   1 -17   15.76    1.58
  -5  -1  17   38.76    3.53
  -5  -1  17   37.00    3.08
   5  -1 -17   41.68    3.05
  -5   1  17   37.06    3.33
  -4  -1  17   17.69    1.65
  -4  -1  17   17.87    2.41
   4  -1 -17   18.84    1.66
   4   1 -17   15.43    1.68
  -4   1  17   15.32    1.84
  -4   1  17   19.36    2.66
   3  -1 -17   20.30    1.87
  -3  -1  17   22.64    1.93
  -3  -1  17   22.45    2.65
  -3   1  17   21.24    1.93
  -3   1  17   23.90    2.92
   3   1 -17   21.33    1.92
   2  -1 -17    5.98    0.94
  -2  -1  17    5.56    1.76
   2   1 -17    4.60    0.95
  -2   1  17    3.48    1.91
   1  -1 -17   13.31    1.87
   1  -1 -17   11.96    1.26
  -1  -1  17   15.56    2.37
   1   1 -17   11.99    1.47
   1   1 -17   10.29    1.28
  -1   1  17   12.64    2.48
   0  -1  17    2.40    1.66
   0  -1 -17    0.67    0.92
   0  -1 -17    1.39    0.64
   0   1  17    2.28    1.89
   0   1 -17    1.59    0.81
   0   1 -17    1.54    1.44
   1  -1  17    3.35    1.73
  -1  -1 -17    3.48    1.14
  -1   1 -17    1.72    1.02
   1   1  17    2.39    1.94
  -1   1 -17    3.10    0.85
   2  -1  17    5.58    1.79
  -2  -1 -17    2.60    1.19
   2   1  17    1.89    2.00
  -2   1 -17    2.72    1.18
  -2   1 -17    4.08    0.90
  -3  -1 -17   16.02    2.09
   3  -1  17   21.56    2.78
   3   1  17   21.50    3.03
  -3   1 -17   13.52    2.04
  -4  -1 -17   11.07    1.72
   4  -1  17   14.66    2.50
   4   1  17   16.57    2.58
  -4   1 -17   10.26    1.88
  -5  -1 -17   23.25    2.56
  -5   1 -17   25.47    2.64
  -6   1 -17    1.32    1.42
 -11  -2  17    9.15    1.39
  11  -2 -17    6.82    1.22
  11   2 -17    6.87    1.50
 -11   2  17   11.89    1.72
  10  -2 -17   40.50    3.32
 -10  -2  17   38.98    3.25
 -10   2  17   42.46    3.51
  10   2 -17   41.11    3.39
   9  -2 -17    8.03    1.42
  -9  -2  17    8.38    1.37
  -9   2  17    7.05    1.45
   9   2 -17    7.98    1.53
  -8  -2  17   40.28    3.35
   8  -2 -17   41.68    3.36
  -8   2  17   44.97    3.51
   8   2 -17   42.50    3.42
  -7  -2  17    4.50    0.94
   7  -2 -17    3.12    1.04
   7   2 -17    3.12    1.13
  -7   2  17    2.98    1.03
  -6  -2  17    0.64    0.76
  -6  -2  17    2.41    1.58
   6  -2 -17   -0.56    0.89
   6   2 -17    1.35    1.03
  -6   2  17    0.56    0.89
   5  -2 -17    0.94    0.92
  -5  -2  17    0.27    1.59
  -5  -2  17    0.75    0.75
   5   2 -17    0.96    0.91
  -5   2  17   -0.78    0.81
  -4  -2  17    6.81    1.16
  -4  -2  17    9.85    1.95
   4  -2 -17    8.30    1.26
   4   2 -17    9.42    1.56
  -4   2  17    7.84    1.27
  -4   2  17   10.16    2.37
  -3  -2  17    3.88    1.76
   3  -2 -17    4.75    0.93
  -3  -2  17    5.77    0.94
  -3   2  17    4.63    2.26
  -2  -2  17   26.24    3.04
   2  -2 -17   24.21    2.04
   2  -2 -17   24.92    2.17
   2   2 -17   23.09    2.12
  -2   2  17   28.65    3.45
  -1  -2  17    6.24    1.80
   1  -2 -17    4.28    1.07
   1  -2 -17    4.33    0.80
   1   2 -17    4.90    1.01
   1   2 -17    5.07    1.00
   0  -2 -17   46.03    3.71
   0  -2 -17   46.62    3.75
   0  -2  17   49.70    4.38
   0   2 -17   44.69    3.94
   0   2  17   55.63    4.73
   1  -2  17    9.95    2.14
  -1  -2 -17    9.61    1.60
   1   2  17   14.41    2.91
  -1   2 -17   12.31    1.80
  -2  -2 -17   21.70    2.43
   2  -2  17   27.87    3.17
   2   2  17   28.01    3.49
  -2   2 -17   26.11    2.20
  -3  -2 -17    1.38    1.26
   3  -2  17    2.54    1.81
  -3   2 -17    3.78    0.99
  -3   2 -17    0.95    1.22
   3   2  17    1.30    2.11
   4  -2  17   10.72    2.22
  -4  -2 -17    7.33    1.62
   4   2  17   11.85    2.46
  -4   2 -17    7.89    1.64
   5  -2  17    1.41    1.70
   5   2  17   -1.28    1.74
  -6   2 -17   -1.62    1.44
 -11  -3  17    0.60    0.83
 -11   3  17   -0.43    1.10
  11   3 -17   -0.43    1.09
 -10  -3  17    3.60    0.98
  10  -3 -17    5.43    1.18
 -10   3  17    3.10    1.42
  10   3 -17    3.91    1.47
  -9  -3  17    0.58    0.88
   9  -3 -17    0.94    1.12
   9   3 -17   -2.74    1.36
  -9   3  17    1.25    1.25
   8  -3 -17   35.88    2.95
  -8  -3  17   33.10    2.91
   8   3 -17   34.36    3.13
  -8   3  17   39.01    3.16
   7  -3 -17    1.14    1.05
  -7  -3  17    2.75    0.90
  -7   3  17    2.10    1.15
   7   3 -17    2.86    1.38
   6  -3 -17   39.93    3.38
  -6  -3  17   42.62    3.38
   6   3 -17   45.20    3.51
  -6   3  17   46.26    3.53
  -5  -3  17    0.36    1.96
  -5  -3  17    1.08    1.23
  -5   3  17    2.51    0.96
   5   3 -17    1.61    1.12
  -4  -3  17   47.57    3.84
   4  -3 -17   54.82    3.86
   4   3 -17   52.16    3.92
  -4   3  17   47.39    4.69
  -4   3  17   52.37    3.93
  -3  -3  17   -0.36    0.79
   3  -3 -17    1.14    0.82
  -3  -3  17   -0.53    3.36
  -3   3  17   -0.81    2.23
   3   3 -17   -0.75    0.86
   2  -3 -17   11.27    1.31
  -2  -3  17   12.97    2.54
   2  -3 -17   12.96    1.58
   2   3 -17   12.82    1.47
  -2   3  17   15.15    3.18
  -1  -3  17   -0.56    1.95
   1  -3 -17   -0.92    0.98
  -1   3  17   -1.17    2.36
   1   3 -17   -0.38    0.92
   1   3 -17    1.25    0.98
   0  -3  17    2.90    2.10
   0  -3 -17    5.15    1.20
   0   3 -17    6.75    1.23
   0   3  17    5.58    2.72
   0   3 -17    5.40    1.11
   1  -3  17    1.70    2.05
  -1  -3 -17   -0.54    1.12
  -1   3 -17    0.85    0.89
   1   3  17    0.04    2.44
  -2  -3 -17   10.14    1.55
   2  -3  17   14.12    2.83
  -2   3 -17    7.75    1.43
  -2   3 -17   10.84    1.51
   2   3  17   12.38    2.88
   3  -3  17    1.47    1.96
  -3  -3 -17   -1.46    1.17
  -3   3 -17   -0.06    1.03
   3   3  17   -1.04    2.24
   4  -3  17   45.40    4.31
  -4   3 -17   46.95    3.54
   4   3  17   44.15    4.47
 -10  -4  17   15.88    1.88
  10  -4 -17   17.66    1.82
  10   4 -17   19.46    2.25
   9  -4 -17   18.32    2.11
  -9  -4  17   20.76    2.13
   9   4 -17   23.23    2.52
  -9   4  17   25.78    2.58
   8  -4 -17   20.52    2.00
  -8  -4  17   16.63    1.96
   8   4 -17   17.58    2.32
  -8   4  17   22.77    2.44
  -7  -4  17    5.93    1.99
   7  -4 -17    7.76    1.37
  -7  -4  17    8.44    1.42
  -7   4  17    9.11    1.52
   7   4 -17    9.91    1.73
   6  -4 -17    1.06    1.07
  -6  -4  17    1.73    0.94
  -6  -4  17   -0.42    2.16
   6   4 -17    0.80    1.32
  -6   4  17    0.46    1.07
  -5  -4  17    0.37    2.12
  -5  -4  17    2.13    1.42
   5  -4 -17    0.74    0.96
  -5   4  17   -0.61    0.92
   5   4 -17    0.98    1.23
  -4  -4  17    2.13    2.17
  -4  -4  17    3.54    0.88
   4  -4 -17    3.21    1.07
   4   4 -17    3.22    1.19
  -4   4  17    3.23    1.93
   3  -4 -17   16.22    1.72
  -3  -4  17   10.58    2.61
   3  -4 -17   14.31    1.50
  -3  -4  17   16.03    1.51
   3   4 -17   12.83    1.74
  -2  -4  17    9.62    2.56
   2  -4 -17   14.18    1.74
  -2   4  17   10.10    2.89
   2   4 -17   14.71    1.68
   2   4 -17   14.45    1.54
   1  -4 -17   11.83    1.69
  -1  -4  17    6.74    2.49
   1   4 -17   11.91    1.57
   1   4 -17   11.40    1.43
  -1   4  17   11.19    3.04
   0  -4 -17   16.62    2.09
   0  -4  17   20.53    3.56
   0   4 -17   19.71    1.96
   0   4  17   21.11    3.71
  -1  -4 -17   24.15    2.47
   1  -4  17   27.37    3.66
   1   4  17   25.00    3.91
  -1   4 -17   25.20    2.32
   2  -4  17   15.57    3.12
  -2  -4 -17   10.85    1.76
   2   4  17   15.92    3.18
  -2   4 -17   14.76    1.75
   3  -4  17   11.56    2.29
  -3   4 -17   10.11    1.51
   3   4  17    5.26    2.50
  -4  -4 -17    1.72    1.61
   4  -4  17    3.75    2.08
 -10  -5  17   -0.03    1.07
 -10   5  17    1.56    1.37
   9  -5 -17    1.48    1.05
  -9  -5  17    3.15    1.11
  -9   5  17    1.85    1.40
   9   5 -17    0.88    1.47
   8  -5 -17    1.13    1.10
  -8  -5  17    2.84    1.01
   8   5 -17    2.41    1.74
  -8   5  17    1.51    1.46
  -7  -5  17   45.27    3.62
  -7  -5  17   44.74    4.54
   7  -5 -17   45.20    3.68
   7   5 -17   51.93    3.95
  -6  -5  17    1.22    0.88
  -6  -5  17    2.00    2.35
   6  -5 -17   -0.27    1.09
  -6   5  17    0.35    1.23
   6   5 -17    2.75    1.59
  -5  -5  17   33.06    4.56
   5  -5 -17   40.90    3.17
   5   5 -17   42.80    3.44
   4  -5 -17    2.22    0.93
  -4  -5  17    1.16    2.35
   4  -5 -17    4.52    1.09
   4   5 -17    1.75    1.33
  -4   5  17    0.36    1.83
   3  -5 -17   22.43    2.19
  -3  -5  17   19.39    3.24
  -3   5  17   20.43    3.54
   3   5 -17   21.83    2.26
   2  -5 -17    1.85    1.20
  -2  -5  17    1.62    2.26
   2   5 -17    1.37    1.16
  -2   5  17   -2.83    2.56
   1  -5 -17   10.59    1.78
  -1  -5  17    8.42    2.75
  -1   5  17   11.02    3.28
   1   5 -17   11.35    1.69
   0  -5  17    3.59    2.37
   0  -5 -17   -0.80    1.23
   0   5 -17    1.09    1.09
   0   5  17   -3.95    2.81
  -1  -5 -17    0.30    1.30
   1  -5  17    4.35    2.44
   1   5  17   -4.77    2.86
  -1   5 -17    3.91    1.17
   2  -5  17   -0.91    2.13
   2   5  17   -1.13    2.52
  -2   5 -17    2.27    1.09
  -3   5 -17   23.22    2.17
   8  -6 -17    4.52    1.28
   8   6 -17    7.12    2.72
   7  -6 -17   12.10    1.78
   7   6 -17   13.95    2.06
  -6  -6  17    3.23    2.31
   6  -6 -17    1.85    1.11
   6  -6 -17    2.14    1.14
   6   6 -17   -1.55    1.52
   5  -6 -17   -1.04    1.66
  -5  -6  17    4.86    2.46
   5  -6 -17    0.20    1.11
   5   6 -17    0.47    1.52
   4  -6 -17    3.75    1.24
  -4  -6  17    0.70    2.48
   4   6 -17   -1.91    1.47
  -3  -6  17   12.74    2.82
   3  -6 -17   11.04    2.00
   3   6 -17   15.27    2.01
   2  -6 -17    1.69    1.33
  -2  -6  17    1.15    2.35
   2   6 -17    3.38    1.32
   1  -6 -17   13.45    1.92
  -1  -6  17   13.72    2.76
  -1   6  17   10.56    3.16
   0  -6 -17    1.07    1.34
   0  -6  17    8.05    2.10
  -1  -6 -17   24.83    2.62
   3  -7 -17    3.71    2.26
   2  -7 -17    1.69    2.44
   1  -7 -17   -1.71    1.47
   0  -7 -17   -3.34    1.58
 -11   0  18   -0.66    0.89
  11   0 -18    0.29    1.03
 -10   0  18   37.38    3.17
  10   0 -18   38.67    3.15
   9   0 -18    0.30    1.13
  -9   0  18   -0.73    0.98
   8   0 -18   48.67    3.88
  -8   0  18   51.17    3.93
   7   0 -18   -0.80    0.96
  -7   0  18    0.33    0.91
  -6   0  18    6.40    1.15
   6   0 -18    8.44    1.25
  -5   0  18    0.00    1.55
   5   0 -18    0.93    0.91
  -5   0  18    0.57    0.81
  -4   0  18   13.06    2.38
   4   0 -18   12.70    1.63
  -4   0  18   13.71    1.48
  -3   0  18    0.75    0.75
  -3   0  18   -0.80    1.57
   3   0 -18    0.03    0.86
   2   0 -18   32.31    2.59
   2   0 -18   32.67    2.68
   1   0 -18    1.75    0.98
   1   0 -18    1.11    0.78
  -1   0  18    0.63    1.72
   0   0  18   43.06    3.86
   0   0 -18   36.98    3.15
   0   0 -18   36.02    2.92
  -1   0 -18   -0.91    1.04
  -1   0 -18    1.13    0.71
   1   0  18   -0.09    1.94
  -2   0 -18   23.39    2.54
   2   0  18   33.28    3.42
   3   0  18   -0.19    1.91
  -4   0 -18    9.07    1.67
   4   0  18   12.05    2.39
 -11  -1  18    0.88    0.91
  11  -1 -18    0.92    1.08
 -11   1  18    2.39    1.01
  11   1 -18    1.61    1.06
  10  -1 -18    0.54    1.16
 -10  -1  18    2.44    1.03
 -10   1  18    1.23    1.12
  10   1 -18    2.97    1.29
   9  -1 -18    2.51    1.13
  -9  -1  18    1.60    1.02
  -9   1  18    0.19    1.09
   9   1 -18    3.47    1.31
  -8  -1  18   18.61    1.96
   8  -1 -18   18.18    1.98
   8   1 -18   17.53    1.98
  -8   1  18   21.40    2.09
   7  -1 -18   16.46    1.84
  -7  -1  18   16.65    1.81
  -7   1  18   15.52    1.86
   7   1 -18   19.23    1.83
   6  -1 -18   36.30    2.95
  -6  -1  18   36.04    2.95
   6   1 -18   37.47    2.95
  -6   1  18   35.70    3.00
  -5  -1  18   23.09    2.86
  -5  -1  18   22.82    2.07
   5  -1 -18   23.48    2.08
   5   1 -18   22.18    2.11
  -5   1  18   23.21    2.12
  -5   1  18   24.09    2.85
  -4  -1  18   45.28    4.11
  -4  -1  18   40.41    3.42
  -4   1  18   49.48    4.17
  -4   1  18   43.08    3.47
   4   1 -18   45.23    3.42
  -3  -1  18    6.68    1.16
   3  -1 -18    7.99    1.13
  -3  -1  18    6.67    1.97
   3   1 -18    7.77    1.15
  -3   1  18    6.72    2.17
  -2  -1  18    8.24    1.99
   2  -1 -18    7.58    1.32
   2  -1 -18    7.84    1.17
   2   1 -18    8.03    1.31
  -1  -1  18    7.61    1.93
   1  -1 -18    6.82    1.23
   1  -1 -18    6.03    0.99
  -1   1  18    9.77    2.24
   1   1 -18    6.65    1.21
   0  -1  18    1.27    1.74
   0  -1 -18    2.45    0.69
   0  -1 -18    1.33    1.12
   0   1  18    3.56    2.09
   0   1 -18    2.31    1.10
  -1  -1 -18    1.75    1.14
   1  -1  18    1.66    1.85
  -1   1 -18    2.90    1.24
  -1   1 -18    0.11    1.07
   1   1  18    2.23    2.13
  -2  -1 -18    1.67    1.24
   2  -1  18    1.74    1.96
  -2   1 -18    1.52    1.20
  -2   1 -18    3.58    0.81
   2   1  18    2.80    2.24
   3  -1  18    4.55    1.94
   3   1  18    6.23    2.26
  -3   1 -18    1.48    1.33
  -4  -1 -18   12.96    1.95
  -4   1 -18   15.58    2.02
  -5   1 -18    3.50    1.29
  11   2 -18   21.69    2.53
 -10  -2  18    6.33    1.17
  10  -2 -18    6.33    1.25
 -10   2  18    4.85    1.36
  10   2 -18    5.40    1.45
   9  -2 -18   45.03    3.73
  -9  -2  18   44.03    3.72
  -9   2  18   55.77    3.94
   9   2 -18   46.11    3.78
  -8  -2  18    8.94    1.37
   8  -2 -18    8.08    1.31
  -8   2  18    5.81    1.40
   8   2 -18    6.70    1.46
  -7  -2  18   21.64    2.03
   7  -2 -18   19.10    2.06
   7   2 -18   21.42    2.15
  -7   2  18   21.62    2.22
  -6  -2  18    0.61    0.82
   6  -2 -18   -0.14    0.96
  -6  -2  18    0.59    1.58
   6   2 -18    0.47    1.06
  -6   2  18    1.51    1.04
  -5  -2  18    0.48    0.78
  -5  -2  18   -0.26    1.78
   5  -2 -18    0.20    0.93
  -5   2  18    0.19    0.89
   5   2 -18    0.38    1.00
  -4  -2  18    2.24    0.83
  -4  -2  18    1.14    2.37
   4   2 -18    1.08    0.99
  -4   2  18    1.79    2.20
  -4   2  18    2.07    0.91
   3  -2 -18   29.01    2.46
  -3  -2  18   30.78    3.39
  -3  -2  18   30.05    2.48
  -3   2  18   34.21    3.81
   3   2 -18   28.58    2.50
  -2  -2  18    5.43    1.90
   2  -2 -18    4.11    0.96
   2  -2 -18    6.52    1.15
   2   2 -18    5.06    1.08
  -2   2  18    5.84    2.41
   2   2 -18    5.61    1.03
   1  -2 -18   30.29    2.59
  -1  -2  18   27.12    3.30
   1  -2 -18   26.38    2.28
  -1   2  18   35.34    3.79
   1   2 -18   30.62    2.61
   1   2 -18   27.93    2.41
   0  -2  18    5.53    2.08
   0  -2 -18    5.96    1.29
   0   2 -18    6.67    1.27
   0   2 -18    5.50    1.05
   0   2  18    5.43    2.51
  -1  -2 -18   30.22    2.92
   1  -2  18   36.71    3.74
  -1   2 -18   32.26    2.73
   1   2  18   38.14    4.14
  -2  -2 -18    1.72    1.30
   2  -2  18    3.53    1.99
   2   2  18    5.45    2.41
  -2   2 -18    5.33    1.09
   3  -2  18   20.65    3.05
  -3   2 -18   23.05    2.18
   3   2  18   20.99    3.28
  -4  -2 -18   -1.95    1.03
   4  -2  18    2.11    1.72
   4   2  18   -1.73    1.75
 -10  -3  18    1.42    0.96
  10  -3 -18   -0.72    0.92
 -10   3  18    2.72    1.19
  -9  -3  18    0.95    0.99
   9  -3 -18    1.67    1.13
  -9   3  18    2.31    1.32
   9   3 -18    2.85    1.37
   8  -3 -18    2.26    1.11
  -8  -3  18    1.61    0.96
  -8   3  18    2.47    1.31
   8   3 -18    1.38    1.32
  -7  -3  18   46.21    3.74
   7  -3 -18   47.03    3.74
   7   3 -18   48.33    3.87
  -7   3  18   49.81    3.93
  -6  -3  18    0.71    0.95
   6  -3 -18    2.74    1.10
  -6  -3  18    1.54    3.40
   6   3 -18    2.24    1.15
  -6   3  18    2.40    1.17
  -5  -3  18   55.20    5.78
  -5  -3  18   61.47    4.86
   5  -3 -18   68.47    4.88
   5   3 -18   68.48    4.94
  -5   3  18   71.40    5.02
   4  -3 -18    3.07    1.21
  -4  -3  18    2.83    0.89
  -4  -3  18    4.61    2.27
  -4   3  18   -0.14    2.26
   4   3 -18    2.02    1.05
   3  -3 -18   19.92    1.85
  -3  -3  18   18.03    3.36
  -3  -3  18   19.81    1.88
   3  -3 -18   21.83    2.04
  -3   3  18   22.22    3.76
   3   3 -18   18.57    1.94
   2  -3 -18    1.01    1.01
  -2  -3  18    0.00    2.16
   2  -3 -18    0.05    0.71
   2   3 -18    1.27    0.97
   2   3 -18    1.07    1.01
  -2   3  18   -2.26    2.54
  -1  -3  18   16.39    3.29
   1  -3 -18   15.86    1.96
   1   3 -18   15.69    2.05
   1   3 -18   19.53    1.81
  -1   3  18   18.51    3.34
   0  -3 -18   -0.60    1.11
   0  -3  18   -0.28    2.14
   0   3 -18    1.14    0.98
   0   3  18   -1.86    2.55
   0   3 -18   -0.39    1.03
   1  -3  18    5.99    2.26
  -1  -3 -18    2.85    1.25
  -1   3 -18    3.78    1.08
  -1   3 -18    1.53    1.17
   1   3  18    3.22    2.72
  -2  -3 -18   -2.44    1.17
   2  -3  18   -1.10    2.08
   2   3  18   -2.41    2.55
  -2   3 -18    1.02    1.09
  -2   3 -18   -0.99    1.12
   3  -3  18   12.76    2.25
  -3  -3 -18    7.45    1.53
  -3   3 -18    7.28    1.42
   3   3  18    7.63    2.44
  -3   3 -18   11.33    1.44
 -10  -4  18   14.80    1.84
 -10   4  18   16.27    2.45
  -9  -4  18   21.28    2.25
   9  -4 -18   23.07    2.18
  -9   4  18   25.83    2.58
   9   4 -18   23.52    2.37
  -8  -4  18   16.24    1.93
   8  -4 -18   17.99    1.95
  -8   4  18   18.89    2.31
   8   4 -18   19.20    2.22
  -7  -4  18   10.77    1.65
   7  -4 -18   12.74    1.65
   7   4 -18   11.49    1.90
  -7   4  18    9.62    1.67
   6  -4 -18    2.23    1.18
  -6  -4  18    2.57    1.05
  -6  -4  18    2.34    2.38
   6   4 -18    2.70    1.32
  -6   4  18    2.96    1.29
   5  -4 -18    0.44    1.03
  -5  -4  18    1.46    2.44
  -5  -4  18    0.53    0.90
   5   4 -18    0.38    1.13
   4  -4 -18    6.35    1.21
  -4  -4  18    5.82    1.12
   4  -4 -18    9.84    1.36
  -4  -4  18    4.42    2.47
   4   4 -18    6.02    1.29
  -4   4  18    5.53    2.35
  -3  -4  18   14.42    2.83
   3  -4 -18   14.82    1.80
  -3   4  18   12.16    2.92
   3   4 -18   14.40    1.75
   2  -4 -18   12.60    1.86
  -2  -4  18   14.15    2.95
   2   4 -18   12.16    1.75
  -2   4  18   13.98    3.24
   2   4 -18   14.51    1.51
  -1  -4  18   13.31    2.89
   1  -4 -18   10.92    1.87
  -1   4  18   13.47    3.48
   1   4 -18   14.01    1.58
   1   4 -18   16.30    1.74
   0  -4  18   15.08    2.90
   0  -4 -18   12.83    1.90
   0   4  18   13.20    3.34
   0   4 -18   15.16    1.73
  -1  -4 -18   13.49    2.04
   1  -4  18   17.03    2.89
  -1   4 -18   17.98    1.82
   1   4  18   13.15    3.44
   2  -4  18   11.47    2.46
  -2  -4 -18    7.51    1.62
   2   4  18   10.29    2.89
  -3   4 -18   14.48    1.78
  -4   4 -18    6.54    1.80
  -9  -5  18    1.54    1.14
  -9   5  18    1.26    1.32
   8  -5 -18   18.14    2.02
  -8  -5  18   17.56    2.45
   8   5 -18   22.33    2.15
   7  -5 -18    0.83    1.16
   7   5 -18    3.84    1.57
  -7   5  18    1.43    1.42
  -6  -5  18   28.94    4.39
   6  -5 -18   36.17    2.94
   6   5 -18   35.64    3.09
  -5  -5  18    0.68    2.61
   5  -5 -18    5.08    1.27
   5  -5 -18    3.71    1.18
   5   5 -18    4.39    1.56
   4  -5 -18   43.22    3.14
  -4  -5  18   27.69    4.44
   4   5 -18   39.64    3.20
  -4   5  18   31.58    3.64
  -3  -5  18    1.22    2.32
   3  -5 -18    2.41    1.21
  -3   5  18   -0.15    2.53
   3   5 -18    1.40    1.31
   2  -5 -18    9.62    1.51
  -2  -5  18    7.99    2.63
   2   5 -18   11.19    1.72
  -2   5  18    6.16    3.29
   1  -5 -18   -1.40    1.21
  -1  -5  18   -0.04    2.39
   1   5 -18    1.86    1.15
  -1   5  18   -5.11    2.91
   0  -5 -18    0.71    1.30
   0  -5  18    4.45    2.32
   0   5 -18    0.70    1.12
   0   5  18   -1.43    2.91
   1  -5  18   -0.20    2.08
  -1   5 -18    3.37    1.07
  -2   5 -18    6.16    1.53
   7  -6 -18    3.02    1.26
   6  -6 -18   11.99    1.70
  -6  -6  18    8.09    2.55
   5  -6 -18    0.66    1.23
  -5  -6  18    1.32    2.44
   5   6 -18   -1.49    1.32
   4  -6 -18    6.25    1.48
   4   6 -18    8.64    1.45
   3  -6 -18    3.03    1.40
  -3  -6  18    6.56    2.39
   3   6 -18    3.59    1.23
   2  -6 -18   14.83    2.19
  -2  -6  18   15.67    3.07
   2   6 -18   19.99    1.94
   1  -6 -18    1.04    1.37
   0  -6 -18   11.14    1.85
 -10   0  19   -1.22    0.94
  10   0 -19   -0.34    0.97
   9   0 -19   42.53    3.73
  -9   0  19   52.41    3.82
  -8   0  19    2.38    1.07
   8   0 -19    0.32    1.03
  -7   0  19   18.11    1.98
   7   0 -19   19.07    1.94
   6   0 -19    2.42    1.05
  -6   0  19    0.06    0.97
  -5   0  19    0.19    1.62
   5   0 -19    1.49    1.01
  -5   0  19    1.56    0.90
   4   0 -19    0.62    0.98
  -4   0  19   -1.25    0.88
  -3   0  19   35.77    3.67
   3   0 -19   37.72    2.94
   2   0 -19    0.99    0.92
   2   0 -19    2.12    1.05
  -2   0  19   -1.05    1.80
   1   0 -19   46.75    3.76
   1   0 -19   42.84    3.52
  -1   0  19   52.94    4.43
   0   0  19    2.02    1.97
   0   0 -19    0.84    1.09
   0   0 -19    0.34    0.85
  -1   0 -19   27.09    2.69
   1   0  19   32.22    3.57
   2   0  19    1.70    2.07
  -2   0 -19   -2.28    1.12
  -3   0 -19   25.62    2.72
   3   0  19   34.67    3.43
  -4   0 -19    0.98    2.02
 -10  -1  19    1.27    0.88
 -10   1  19    0.06    0.94
  10   1 -19   -1.85    0.91
   9  -1 -19    1.41    1.24
  -9  -1  19    1.84    1.03
   9   1 -19   -0.55    1.12
  -9   1  19    2.94    1.15
   8  -1 -19    5.74    1.32
  -8  -1  19    6.32    1.20
   8   1 -19    6.62    1.34
   7  -1 -19   21.48    2.16
  -7  -1  19   22.65    2.15
   7   1 -19   22.51    2.15
  -7   1  19   22.09    2.25
  -6  -1  19   15.16    1.78
   6  -1 -19   16.58    1.76
   6   1 -19   15.70    1.77
  -6   1  19   15.38    1.82
   5  -1 -19   57.57    4.29
  -5  -1  19   55.20    4.31
  -5   1  19   57.44    4.80
   5   1 -19   55.63    4.30
  -5   1  19   57.47    4.36
   4  -1 -19   16.41    1.67
  -4  -1  19   15.66    1.71
  -4  -1  19   13.08    2.70
   4   1 -19   14.60    1.68
  -4   1  19   14.46    1.70
   3  -1 -19   16.19    1.73
  -3  -1  19   16.63    2.74
   3   1 -19   17.03    1.74
   2  -1 -19    5.90    1.19
  -2  -1  19    5.47    1.92
   2  -1 -19    5.41    1.26
  -2   1  19    6.22    2.19
   2   1 -19    6.16    1.18
   2   1 -19    5.98    1.09
   1  -1 -19   11.56    1.93
   1  -1 -19   13.00    1.86
  -1  -1  19   13.65    2.63
  -1   1  19   15.83    2.73
   1   1 -19   12.98    1.50
   1   1 -19   13.58    1.89
   0  -1 -19    0.60    1.17
   0  -1  19   -0.22    1.91
   0   1  19    0.05    2.21
   0   1 -19   -1.00    0.86
   0   1 -19    0.00    1.04
  -1  -1 -19    1.46    1.19
   1  -1  19    4.47    2.12
  -1   1 -19    2.46    0.94
  -1   1 -19    0.58    1.20
   1   1  19    4.06    2.37
   2  -1  19   -1.80    1.89
  -2  -1 -19    0.21    1.26
   2   1  19    0.22    2.22
  -2   1 -19   -2.52    1.22
   3  -1  19    2.09    1.73
  -3  -1 -19    0.64    1.12
  -3   1 -19    1.43    1.22
   3   1  19    2.60    1.98
  -4   1 -19    1.12    1.16
  10  -2 -19   21.53    2.62
 -10  -2  19   22.83    2.11
  10   2 -19   18.60    2.33
 -10   2  19   24.42    2.33
  -9  -2  19    9.19    1.42
   9  -2 -19    5.35    1.30
   9   2 -19    8.97    1.45
  -9   2  19    6.91    1.43
   8  -2 -19   23.76    2.44
  -8  -2  19   27.70    2.45
   8   2 -19   26.87    2.54
  -8   2  19   29.42    2.63
   7  -2 -19    3.37    1.19
  -7  -2  19    3.81    1.04
  -7   2  19    3.65    1.27
   7   2 -19    2.03    1.27
  -6  -2  19    8.17    1.48
   6  -2 -19    9.70    1.55
  -6  -2  19    8.34    1.91
   6   2 -19   11.13    1.58
  -6   2  19    9.52    1.64
  -5  -2  19    1.02    0.92
   5  -2 -19   -0.88    1.08
  -5  -2  19   -1.14    1.72
   5   2 -19    0.52    1.10
  -5   2  19   -1.91    1.70
  -5   2  19    0.41    1.02
  -4  -2  19   13.00    1.59
   4  -2 -19   11.32    1.59
   4   2 -19   11.14    1.60
  -4   2  19   15.70    3.23
   3  -2 -19    3.23    1.05
  -3  -2  19    5.37    2.03
   3  -2 -19    7.87    1.36
   3   2 -19    5.06    1.13
  -3   2  19    5.78    2.49
   2  -2 -19   32.99    2.80
  -2  -2  19   34.09    3.64
   2   2 -19   32.41    2.75
   2   2 -19   28.55    2.64
  -2   2  19   35.63    4.08
   1  -2 -19    6.40    1.34
  -1  -2  19    5.90    2.23
  -1   2  19   10.84    2.84
   1   2 -19    8.17    1.42
   1   2 -19    6.12    1.17
   0  -2  19   31.51    3.56
   0  -2 -19   24.95    2.51
   0   2 -19   25.35    2.30
   0   2 -19   22.76    2.45
   0   2  19   30.88    3.86
  -1  -2 -19    3.74    1.31
   1  -2  19    3.13    2.09
   1   2  19    1.44    2.46
  -1   2 -19    5.92    1.18
   2  -2  19   24.33    3.22
  -2  -2 -19   20.83    2.41
  -2   2 -19   27.25    2.22
   2   2  19   25.60    3.60
  -3  -2 -19    2.46    1.26
   3  -2  19    4.26    1.92
  -3   2 -19    0.46    1.28
   3   2  19    2.06    2.34
  -4   2 -19    0.53    1.20
   9  -3 -19   -1.44    1.00
  -9  -3  19    0.25    1.03
   9   3 -19    1.54    1.15
  -9   3  19    0.32    1.23
  -8  -3  19   13.41    1.79
   8  -3 -19   15.68    1.73
   8   3 -19   11.08    1.87
  -8   3  19   14.22    2.03
   7  -3 -19   -0.54    1.15
  -7  -3  19    2.55    1.07
   7   3 -19    2.30    1.33
  -7   3  19    2.33    1.29
  -6  -3  19   44.86    3.65
   6  -3 -19   48.16    3.64
  -6  -3  19   40.34    4.32
   6   3 -19   43.23    3.64
  -6   3  19   50.34    3.80
   5  -3 -19    2.92    1.17
  -5  -3  19    4.12    2.26
  -5  -3  19    3.61    1.09
  -5   3  19    3.78    1.24
   5   3 -19    2.72    1.19
  -4  -3  19   44.43    3.56
   4  -3 -19   45.51    3.53
  -4  -3  19   44.05    4.64
   4   3 -19   44.33    3.55
  -4   3  19   47.37    4.56
   3  -3 -19    0.49    0.89
  -3  -3  19    0.33    2.18
   3  -3 -19    2.35    1.07
   3   3 -19    0.13    1.08
  -3   3  19   -0.76    2.64
  -2  -3  19   16.31    2.78
   2  -3 -19   14.52    1.93
   2   3 -19   18.11    1.92
  -2   3  19   19.77    3.36
   2   3 -19   13.77    1.73
  -1  -3  19    3.15    2.35
   1  -3 -19    0.46    1.13
   1   3 -19   -0.64    1.21
   1   3 -19   -0.38    0.98
  -1   3  19    0.49    2.73
   0  -3 -19    0.31    1.21
   0  -3  19    2.41    2.31
   0   3 -19    0.10    1.12
   0   3 -19    0.04    1.04
   0   3  19   -2.21    2.63
   1  -3  19   -0.86    2.02
  -1  -3 -19    0.42    1.20
  -1   3 -19    2.27    1.07
   1   3  19   -2.28    2.55
  -2  -3 -19    0.03    1.04
   2  -3  19    2.32    1.77
  -2   3 -19   -1.45    1.02
  -2   3 -19    5.34    1.22
   2   3  19    1.02    2.03
  -3   3 -19    4.86    1.27
  -9  -4  19   15.00    1.81
   8  -4 -19   13.74    1.67
  -8  -4  19   10.41    1.77
  -8   4  19   11.98    2.00
   8   4 -19   13.95    1.73
  -7  -4  19    7.93    1.35
   7  -4 -19    5.30    1.35
  -7   4  19    8.13    1.49
   7   4 -19    8.11    1.62
  -6  -4  19    4.18    1.16
  -6  -4  19    4.56    2.54
   6  -4 -19    4.57    1.29
  -6   4  19    3.79    1.33
   6   4 -19    5.95    1.39
   5  -4 -19    2.11    1.16
  -5  -4  19    0.51    1.02
  -5  -4  19    0.18    2.53
   5   4 -19    0.66    1.18
   4  -4 -19    8.00    1.23
  -4  -4  19    8.99    1.43
   4  -4 -19   10.73    1.54
  -4  -4  19    5.90    2.76
   4   4 -19    7.37    1.48
  -4   4  19    3.70    2.16
  -3  -4  19   14.81    3.11
   3  -4 -19   14.67    1.84
  -3   4  19   14.08    3.24
   3   4 -19   11.62    1.75
  -2  -4  19   13.85    2.98
   2  -4 -19   14.17    2.03
   2   4 -19   19.08    1.82
   2   4 -19   17.96    1.92
  -2   4  19   15.22    3.44
   1  -4 -19   14.99    2.09
  -1  -4  19   17.12    3.54
   1   4 -19   20.37    1.93
  -1   4  19   17.86    3.67
   0  -4  19   12.84    2.69
   0   4  19   16.69    3.31
   0   4 -19   16.31    1.79
   1  -4  19   14.61    2.79
  -1  -4 -19    9.86    1.59
  -1   4 -19   11.76    1.69
   1   4  19   10.20    2.74
  -2   4 -19   13.55    1.68
   7  -5 -19   18.34    2.21
  -7   5  19   25.64    2.37
  -6  -5  19    0.98    2.51
   6  -5 -19    2.14    1.32
   6   5 -19    3.44    1.26
   5  -5 -19   52.67    4.12
   5   5 -19   52.35    4.09
  -4  -5  19    3.11    2.51
   4  -5 -19    3.11    1.15
   4   5 -19    0.55    1.13
  -3  -5  19   17.15    3.52
   3  -5 -19   13.44    2.02
  -3   5  19   13.64    3.13
   3   5 -19   17.83    1.90
  -2  -5  19    3.50    2.32
   2  -5 -19   -2.21    1.15
  -2   5  19   -4.74    2.92
  -1  -5  19   12.48    2.44
   1  -5 -19    8.05    1.48
  -1   5  19    1.94    3.13
   0  -5 -19   -2.28    1.35
   0   5  19   -4.82    2.92
   0   5 -19    0.99    1.87
   5  -6 -19    5.20    1.40
   4  -6 -19    0.53    1.31
   3  -6 -19   15.08    2.25
   9   0 -20    0.88    0.90
  -9   0  20    0.35    0.96
   8   0 -20   12.47    1.74
  -8   0  20   16.44    1.82
   7   0 -20    1.14    1.07
  -7   0  20   -0.90    0.99
   6   0 -20   11.59    1.59
  -6   0  20   11.32    1.66
   5   0 -20   -0.39    1.06
  -5   0  20   -0.29    0.96
  -5   0  20    2.33    1.73
  -4   0  20   12.73    2.37
   4   0 -20   12.25    1.59
  -4   0  20   12.24    1.66
  -3   0  20   -0.43    1.83
   3   0 -20   -0.67    0.99
   3   0 -20    0.97    1.02
  -2   0  20   46.37    4.25
   2   0 -20   41.43    3.52
   2   0 -20   42.95    3.38
   1   0 -20    1.01    0.89
  -1   0  20    0.11    2.03
   1   0 -20    0.53    1.18
   0   0 -20   34.46    3.10
   0   0 -20   35.25    3.12
   0   0  20   41.07    3.97
   1   0  20   -1.43    1.98
  -1   0 -20   -0.81    1.13
   2   0  20   31.37    3.15
  -2   0 -20   23.02    2.46
   9  -1 -20   -0.02    0.96
  -9  -1  20    2.08    0.99
   9   1 -20    2.74    1.00
  -9   1  20    2.98    0.97
  -8  -1  20    8.83    1.38
   8  -1 -20    7.20    1.33
   8   1 -20    8.80    1.42
  -8   1  20    8.01    1.39
  -7  -1  20    6.57    1.23
   7  -1 -20    5.18    1.25
   7   1 -20    5.44    1.37
  -7   1  20    5.17    1.30
  -6  -1  20   32.62    2.70
   6  -1 -20   30.68    2.69
  -6   1  20   29.42    2.74
   6   1 -20   30.53    2.72
  -5  -1  20   13.88    2.60
  -5  -1  20   19.23    1.95
   5  -1 -20   20.29    1.94
   5   1 -20   19.86    1.93
  -5   1  20   19.56    2.43
  -5   1  20   15.63    2.00
  -4  -1  20   25.04    3.06
   4  -1 -20   22.61    2.27
  -4  -1  20   25.63    2.28
   4   1 -20   25.37    2.25
  -4   1  20   24.42    3.28
   3  -1 -20   10.54    1.55
  -3  -1  20    9.38    2.11
   3  -1 -20    9.48    1.35
   3   1 -20    8.59    1.35
  -2  -1  20   14.62    2.79
   2  -1 -20   17.90    2.02
   2  -1 -20   15.78    1.74
   2   1 -20   15.58    1.75
   2   1 -20   19.21    2.00
  -2   1  20   20.74    3.18
   1  -1 -20    3.19    1.06
  -1  -1  20    3.98    2.09
   1  -1 -20    1.24    1.21
   1   1 -20    3.05    1.04
   1   1 -20    1.14    1.22
  -1   1  20    2.98    2.30
   0  -1  20    1.72    1.97
   0  -1 -20    1.12    1.16
   0   1  20   -0.86    2.26
   0   1 -20    2.21    1.00
   0   1 -20    0.48    1.16
   1  -1  20    0.84    1.93
  -1  -1 -20    2.24    1.17
  -1   1 -20    1.06    1.23
   1   1  20    2.93    2.21
   2  -1  20    2.87    1.84
  -2  -1 -20    1.68    1.04
  -2   1 -20   -0.18    1.23
   2   1  20    0.92    2.10
   9  -2 -20   26.12    2.72
  -9  -2  20   27.16    2.41
  -9   2  20   29.21    3.00
   8  -2 -20    0.52    1.22
  -8  -2  20    3.45    1.15
   8   2 -20   -0.14    1.23
  -8   2  20    2.71    1.28
   7  -2 -20   10.43    1.65
  -7  -2  20    9.97    1.50
  -7   2  20   13.93    1.81
   7   2 -20   10.37    1.67
  -6  -2  20    2.20    1.09
  -6  -2  20    3.36    2.13
   6  -2 -20    1.71    1.22
  -6   2  20    3.02    1.17
   6   2 -20    1.90    1.21
   5  -2 -20    2.98    1.22
  -5  -2  20   -0.29    2.02
  -5  -2  20    2.11    1.03
   5   2 -20    1.41    1.20
  -5   2  20    2.73    1.11
   4  -2 -20    2.41    1.12
  -4  -2  20    2.12    1.92
  -4  -2  20    1.35    1.02
  -4   2  20   -1.53    2.31
   4   2 -20    1.11    1.04
   3  -2 -20   26.05    2.39
  -3  -2  20   29.34    3.56
   3  -2 -20   25.76    2.25
   3   2 -20   22.71    2.24
  -3   2  20   22.59    3.74
  -2  -2  20    6.92    2.27
   2  -2 -20    4.29    1.47
   2  -2 -20    7.05    1.32
   2   2 -20    6.54    1.32
  -2   2  20    1.94    2.57
   2   2 -20    6.82    1.19
  -1  -2  20   40.97    4.09
   1  -2 -20   35.32    3.23
   1   2 -20   35.62    3.30
  -1   2  20   47.14    4.43
   1   2 -20   34.69    3.04
   0  -2  20    5.93    2.13
   0  -2 -20    2.97    1.26
   0   2 -20    4.81    1.30
   0   2  20    7.06    2.73
   0   2 -20    4.43    1.15
  -1  -2 -20   17.16    2.08
   1  -2  20   25.39    2.97
  -1   2 -20   22.42    2.04
   1   2  20   18.28    3.29
  -3   2 -20   12.32    2.51
   8  -3 -20   -0.39    1.04
  -8  -3  20    1.83    1.16
  -8   3  20    0.94    1.09
   8   3 -20    0.59    1.24
   7  -3 -20   13.88    1.85
  -7  -3  20   14.53    1.91
   7   3 -20   15.41    1.77
  -7   3  20   17.65    2.05
   6  -3 -20    3.62    1.21
  -6  -3  20    1.93    1.08
  -6  -3  20    2.45    1.81
  -6   3  20   -0.51    1.18
   6   3 -20    0.64    1.16
  -5  -3  20   47.24    3.87
   5  -3 -20   51.62    3.86
  -5  -3  20   45.46    4.79
   5   3 -20   50.45    3.85
   4  -3 -20    3.40    1.17
  -4  -3  20    2.71    2.27
  -4  -3  20    1.74    1.11
   4  -3 -20   -0.16    1.11
   4   3 -20    1.16    1.12
  -4   3  20   -0.68    2.24
   3  -3 -20   26.08    2.41
  -3  -3  20   20.76    3.48
   3   3 -20   23.85    2.27
   3   3 -20   26.52    2.34
  -3   3  20   22.24    3.93
  -2  -3  20    2.25    2.22
   2  -3 -20    0.79    1.08
  -2   3  20   -0.60    2.85
   2   3 -20    2.23    1.27
   2   3 -20   -1.99    1.08
  -1  -3  20    8.30    2.33
   1  -3 -20    8.34    1.49
  -1   3  20   11.02    3.08
   1   3 -20    9.92    1.54
   1   3 -20   10.67    1.52
   0  -3  20   -0.60    1.99
   0   3 -20   -1.18    1.10
   0   3 -20    0.93    1.08
   0   3  20   -2.39    2.50
  -1   3 -20    6.51    1.28
   1   3  20    5.02    3.03
  -2   3 -20    1.24    1.18
  -8  -4  20    5.25    1.26
  -7  -4  20    3.58    1.28
   7  -4 -20    4.87    1.32
  -7   4  20    5.54    1.21
  -6  -4  20    4.09    1.28
   6  -4 -20    5.64    1.37
  -6  -4  20    7.36    2.20
   6   4 -20    4.67    1.19
  -5  -4  20    3.01    2.49
   5  -4 -20    0.65    1.15
  -5  -4  20    0.60    1.10
   5   4 -20    1.93    1.09
  -4  -4  20    6.11    2.59
   4  -4 -20    9.03    1.56
   4   4 -20    6.31    1.37
  -3  -4  20   14.82    2.80
   3  -4 -20   14.42    1.81
   3   4 -20   11.22    1.60
  -3   4  20   10.79    2.94
  -2  -4  20   19.99    3.28
   2  -4 -20   15.44    1.99
   2   4 -20   15.09    1.81
  -2   4  20   12.39    3.28
   1  -4 -20   13.82    1.82
   1   4 -20   18.00    1.77
  -1   4  20   13.34    3.31
   0   4 -20   16.87    1.80
   0   4  20   13.01    4.09
  -6  -5  20   25.86    3.42
   6  -5 -20   22.16    3.20
  -5  -5  20   -2.95    2.25
  -4  -5  20   19.68    3.84
   4  -5 -20   28.93    3.03
  -2   5  20   11.40    2.83
  -8   0  21    1.92    1.08
   8   0 -21    2.36    1.08
  -7   0  21    9.26    1.60
   7   0 -21    9.03    1.47
   6   0 -21    0.40    1.13
  -6   0  21    0.64    1.01
   5   0 -21    3.88    1.25
  -5   0  21    3.83    1.15
  -5   0  21    1.38    1.56
  -4   0  21   -1.83    1.93
   4   0 -21   -1.20    1.14
  -3   0  21   13.53    2.80
   3   0 -21   11.76    1.72
   3   0 -21   15.75    1.80
   2   0 -21   -0.05    1.18
  -2   0  21   -0.34    1.94
   2   0 -21    0.15    1.03
   1   0 -21   34.56    3.02
   1   0 -21   34.38    2.77
  -1   0  21   35.17    3.77
   0   0 -21   -1.45    1.07
   0   0  21   -0.89    1.86
  -1   0 -21   23.29    2.43
   8  -1 -21    2.41    1.08
  -8  -1  21    4.39    1.18
   8   1 -21    5.63    1.77
  -8   1  21    3.53    1.50
  -7  -1  21    7.78    1.35
   7  -1 -21    7.96    1.42
  -7   1  21    8.82    1.32
   7   1 -21    9.22    1.52
   6  -1 -21   11.54    1.63
  -6  -1  21   12.52    1.66
   6   1 -21   12.36    1.58
  -6   1  21    8.09    1.46
   5  -1 -21   24.28    2.35
  -5  -1  21   23.94    2.42
  -5   1  21   27.79    2.43
   5   1 -21   26.27    2.36
   4  -1 -21    8.94    1.39
  -4  -1  21    7.21    2.07
  -4   1  21    6.13    2.36
   4   1 -21    7.95    1.37
  -3  -1  21   19.80    2.92
   3  -1 -21   21.65    2.14
   3  -1 -21   17.59    2.04
   3   1 -21   19.69    2.02
   3   1 -21   23.06    2.13
   2  -1 -21    8.51    1.35
  -2  -1  21    6.98    2.15
   2  -1 -21   10.49    1.69
   2   1 -21    7.20    1.27
  -2   1  21    6.08    2.44
   2   1 -21    9.66    1.49
  -1  -1  21    1.54    1.88
   1  -1 -21    2.76    1.24
  -1   1  21   -0.78    2.23
   1   1 -21    2.13    1.19
   1   1 -21    1.59    1.03
   0  -1 -21    0.39    0.98
   0  -1  21    0.01    1.69
   0   1 -21    1.70    1.15
   0   1  21    0.69    1.98
   0   1 -21    3.03    0.95
  -1   1 -21   -0.40    0.97
   7  -2 -21    0.93    1.18
   7   2 -21    1.65    1.02
  -7   2  21    3.54    1.08
  -6  -2  21    9.05    1.55
   6  -2 -21    7.93    1.49
   6   2 -21    4.91    1.26
  -6   2  21    6.11    1.26
  -5  -2  21   -0.03    1.08
   5  -2 -21    0.22    1.11
  -5  -2  21   -0.51    1.94
   5   2 -21    3.56    1.16
  -4  -2  21   -0.33    1.91
   4  -2 -21    5.74    1.26
   4  -2 -21    4.82    1.12
  -4   2  21    3.24    2.29
   4   2 -21    3.45    1.10
   3  -2 -21    4.10    1.17
   3  -2 -21    2.05    0.99
  -3  -2  21    2.45    2.16
  -3   2  21   -0.21    2.51
   3   2 -21    2.29    1.11
   3   2 -21    4.20    1.21
  -2  -2  21   23.39    3.25
   2  -2 -21   23.99    2.31
   2   2 -21   19.51    2.16
   2   2 -21   24.93    2.51
  -2   2  21   24.33    3.65
   1  -2 -21    5.12    1.14
  -1  -2  21    6.09    2.10
   1   2 -21    3.98    1.36
  -1   2  21    4.18    2.48
   1   2 -21    7.89    1.22
   0  -2  21   30.24    3.78
   0   2 -21   20.49    2.34
   0   2  21   22.57    3.26
   0   2 -21   26.24    2.26
  -1   2 -21   -1.28    0.95
   7  -3 -21    1.46    1.15
  -7  -3  21   -1.10    0.96
   6  -3 -21   28.40    2.59
  -6  -3  21   22.50    2.61
  -6   3  21   30.98    2.66
   6   3 -21   33.12    2.95
   5  -3 -21    1.71    1.28
  -5  -3  21    0.83    1.14
  -5  -3  21    1.29    2.10
   5   3 -21    0.28    0.87
   4  -3 -21   19.19    2.41
   4  -3 -21   24.22    2.02
  -4  -3  21   14.15    3.10
  -4   3  21   19.25    3.08
   4   3 -21   18.71    1.93
  -3  -3  21    0.90    1.98
   3  -3 -21    2.52    0.95
   3   3 -21   -0.46    0.98
  -3   3  21   -2.93    2.49
  -2  -3  21   22.17    3.04
   2  -3 -21   22.65    2.28
   2   3 -21   20.48    2.39
  -2   3  21   22.62    3.70
   2   3 -21   20.57    2.05
  -1   3  21   -2.72    2.24
   1   3 -21   -1.81    0.99
   1   3 -21    1.07    0.98
   0   3 -21   -1.71    1.32
   0   3 -21    2.92    1.36
   6  -4 -21    3.35    1.31
  -6  -4  21    3.97    1.30
  -5  -4  21    3.27    1.83
  -5  -4  21    5.46    2.11
  -4  -4  21    5.46    2.09
  -3   4  21    0.91    2.35
  -2   4  21    7.42    2.78
   6   0 -22    6.25    1.26
  -6   0  22    4.87    1.68
  -4   0  22    2.70    1.95
   4   0 -22    2.74    0.92
   4   0 -22    3.02    1.12
  -3   0  22    0.06    1.96
  -2   0  22   13.60    2.67
   2   0 -22   18.99    1.95
   2   0 -22   20.17    1.87
   6  -1 -22   18.47    1.90
  -6  -1  22   17.96    2.20
   6   1 -22   18.84    2.21
  -5  -1  22    6.83    1.17
   5  -1 -22    6.46    1.45
  -5  -1  22    5.93    2.01
   5   1 -22    7.48    1.23
   4  -1 -22   10.85    1.75
  -4  -1  22   12.56    2.30
   4  -1 -22   15.72    1.58
   4   1 -22   15.13    1.70
  -4   1  22   10.39    2.31
   3  -1 -22    6.29    1.34
   3  -1 -22   10.07    1.54
  -3  -1  22    6.11    2.03
   3   1 -22    7.84    1.26
  -2  -1  22   13.61    2.43
   2   1 -22   14.81    1.76
  -2   1  22   16.48    2.76
   2   1 -22   16.57    1.83
   1   1 -22    4.34    1.16
   6  -2 -22    1.40    1.15
  -5  -2  22   -0.33    1.06
  -5  -2  22    3.81    1.64
   5  -2 -22   -0.65    1.20
   4  -2 -22   -0.08    1.13
  -4  -2  22    0.85    1.68
   4   2 -22    2.20    1.14
   4   2 -22    2.85    0.88
  -3  -2  22    2.87    1.68
   3   2 -22    4.24    1.09
  -3   2  22    0.81    2.19
  -2   2  22   -1.11    2.07
   2   2 -22    0.39    1.01
   1   2 -22   15.52    2.27
   5  -3 -22   18.18    2.11
  -5  -3  22   21.72    2.84
  -4  -3  22    2.77    2.81
  -3   3  22   19.28    3.30
   3   3 -22   27.83    2.34
   2   3 -22    1.34    1.28
  -4   0  23   -1.74    1.63
   3   0 -23    3.77    1.87
   4  -1 -23   10.42    2.16
  -4  -1  23    7.84    2.57
   0   0   0    0.00    0.00
;
_shelx_hkl_checksum              79321
loop_
_space_group_symop_operation_xyz
'x, y, z'
'-x+1/2, y+1/2, -z+1/2'
'-x, -y, -z'
'x-1/2, -y-1/2, z-1/2'
loop_
_atom_site_label
_atom_site_type_symbol
_atom_site_fract_x
_atom_site_fract_y
_atom_site_fract_z
_atom_site_U_iso_or_equiv
_atom_site_adp_type
_atom_site_occupancy
_atom_site_site_symmetry_order
_atom_site_calc_flag
_atom_site_refinement_flags_posn
_atom_site_refinement_flags_adp
Pt1 Pt 0.79691(3) 0.34364(4) 0.24932(2) 0.00873(14) Uani 1 1 d . .
Cl1 Cl 0.8867(2) 0.3441(3) 0.11476(15) 0.0182(4) Uani 1 1 d . .
Cl2 Cl 1.0355(2) 0.3453(3) 0.35859(15) 0.0167(4) Uani 1 1 d . .
N1 N 0.6875(8) 0.3442(8) 0.3513(5) 0.0112(14) Uani 1 1 d . U
N2 N 0.5815(8) 0.3415(9) 0.1722(5) 0.0143(14) Uani 1 1 d . .
O1 O 0.7556(7) 0.3455(8) 0.4488(4) 0.0202(13) Uani 1 1 d D .
H1 H 0.8509(19) 0.340(14) 0.460(8) 0.030 Uiso 1 1 d D U
O2 O 0.5324(7) 0.3412(8) 0.0709(4) 0.0179(13) Uani 1 1 d D .
H2 H 0.617(6) 0.328(14) 0.059(8) 0.027 Uiso 1 1 d D U
C1 C 0.5407(9) 0.3402(10) 0.3229(6) 0.0113(16) Uani 1 1 d . .
C2 C 0.4758(9) 0.3426(10) 0.2162(5) 0.0090(15) Uani 1 1 d . .
C3 C 0.4450(9) 0.3333(11) 0.3908(6) 0.0155(17) Uani 1 1 d . .
H3A H 0.4943 0.2493 0.4464 0.023 Uiso 1 1 calc R U
H3B H 0.3444 0.2794 0.3572 0.023 Uiso 1 1 calc R U
H3C H 0.4332 0.4667 0.4138 0.023 Uiso 1 1 calc R U
C4 C 0.3102(9) 0.3442(11) 0.1662(6) 0.0178(18) Uani 1 1 d . .
H4A H 0.2906 0.4265 0.1078 0.027 Uiso 1 1 calc R U
H4B H 0.2548 0.3976 0.2099 0.027 Uiso 1 1 calc R U
H4C H 0.2754 0.2095 0.1476 0.027 Uiso 1 1 calc R U
loop_
_atom_site_aniso_label
_atom_site_aniso_U_11
_atom_site_aniso_U_22
_atom_site_aniso_U_33
_atom_site_aniso_U_23
_atom_site_aniso_U_13
_atom_site_aniso_U_12
Pt1 0.00688(19) 0.00798(19) 0.0125(2) 0.00028(10) 0.00468(12) -0.00054(10)
Cl1 0.0192(10) 0.0209(11) 0.0195(10) -0.0017(7) 0.0135(8) -0.0015(7)
Cl2 0.0084(9) 0.0196(10) 0.0219(10) 0.0024(7) 0.0040(8) 0.0000(7)
N1 0.014(3) 0.009(3) 0.007(3) -0.001(2) -0.004(2) 0.001(2)
N2 0.014(3) 0.016(4) 0.013(3) 0.001(2) 0.003(3) -0.002(2)
O1 0.012(3) 0.035(4) 0.011(3) 0.002(2) 0.000(2) 0.001(2)
O2 0.016(3) 0.027(3) 0.008(3) 0.000(2) 0.000(2) -0.002(2)
C1 0.007(4) 0.010(4) 0.019(4) -0.004(3) 0.006(3) 0.001(3)
C2 0.008(4) 0.013(4) 0.009(4) 0.002(3) 0.007(3) 0.001(3)
C3 0.012(4) 0.019(4) 0.018(4) -0.001(3) 0.009(3) 0.002(3)
C4 0.012(4) 0.022(5) 0.020(4) -0.001(3) 0.005(3) 0.002(3)
loop_
_atom_type_symbol
_atom_type_description
_atom_type_scat_dispersion_real
_atom_type_scat_dispersion_imag
_atom_type_scat_source
C C 0.0033 0.0016 'International Tables Vol C Tables 4.2.6.8 and 6.1.1.4'
H H 0.0000 0.0000 'International Tables Vol C Tables 4.2.6.8 and 6.1.1.4'
N N 0.0061 0.0033 'International Tables Vol C Tables 4.2.6.8 and 6.1.1.4'
O O 0.0106 0.0060 'International Tables Vol C Tables 4.2.6.8 and 6.1.1.4'
Cl Cl 0.1484 0.1585 'International Tables Vol C Tables 4.2.6.8 and 6.1.1.4'
Pt Pt -1.7033 8.3905 'International Tables Vol C Tables 4.2.6.8 and 6.1.1.4'
loop_
_geom_angle_atom_site_label_1
_geom_angle_atom_site_label_2
_geom_angle_atom_site_label_3
_geom_angle
N2 Pt1 N1 77.5(3)
N2 Pt1 Cl2 171.8(2)
N1 Pt1 Cl2 94.28(19)
N2 Pt1 Cl1 93.7(2)
N1 Pt1 Cl1 171.21(19)
Cl2 Pt1 Cl1 94.51(8)
C1 N1 O1 117.3(7)
C1 N1 Pt1 117.5(5)
O1 N1 Pt1 125.2(5)
C2 N2 O2 116.3(7)
C2 N2 Pt1 119.4(6)
O2 N2 Pt1 124.3(5)
N1 O1 H1 111(8)
N2 O2 H2 100(7)
N1 C1 C2 113.9(7)
N1 C1 C3 123.2(7)
C2 C1 C3 122.9(7)
N2 C2 C1 111.7(7)
N2 C2 C4 124.4(7)
C1 C2 C4 123.9(7)
C1 C3 H3A 109.5
C1 C3 H3B 109.5
H3A C3 H3B 109.5
C1 C3 H3C 109.5
H3A C3 H3C 109.5
H3B C3 H3C 109.5
C2 C4 H4A 109.5
C2 C4 H4B 109.5
H4A C4 H4B 109.5
C2 C4 H4C 109.5
H4A C4 H4C 109.5
H4B C4 H4C 109.5
loop_
_geom_bond_atom_site_label_1
_geom_bond_atom_site_label_2
_geom_bond_distance
Pt1 N2 1.966(7)
Pt1 N1 1.991(7)
Pt1 Cl2 2.296(2)
Pt1 Cl1 2.300(2)
N1 C1 1.286(11)
N1 O1 1.360(9)
N2 C2 1.294(10)
N2 O2 1.394(9)
O1 H1 0.839(10)
O2 H2 0.839(10)
C1 C2 1.478(11)
C1 C3 1.481(11)
C2 C4 1.479(11)
C3 H3A 0.9800
C3 H3B 0.9800
C3 H3C 0.9800
C4 H4A 0.9800
C4 H4B 0.9800
C4 H4C 0.9800
loop_
_geom_hbond_atom_site_label_D
_geom_hbond_atom_site_label_H
_geom_hbond_atom_site_label_A
_geom_hbond_distance_DH
_geom_hbond_distance_HA
_geom_hbond_distance_DA
_geom_hbond_angle_DHA
_geom_hbond_site_symmetry_A
O1 H1 Cl2 0.839(10) 2.52(8) 3.173(6) 135(10) .
O1 H1 O2 0.839(10) 2.30(8) 2.926(8) 132(9) 4_666
O2 H2 Cl1 0.839(10) 2.37(6) 3.117(6) 149(10) .
C3 H3A Cl1 0.98 2.92 3.609(8) 127.9 4_566
C3 H3B Cl2 0.98 2.86 3.637(8) 136.6 1_455
