#------------------------------------------------------------------------------
#$Date: 2019-11-17 14:20:55 +0200 (Sun, 17 Nov 2019) $
#$Revision: 230463 $
#$URL: file:///home/coder/svn-repositories/cod/cif/7/05/75/7057528.cif $
#------------------------------------------------------------------------------
#
# This file is available in the Crystallography Open Database (COD),
# http://www.crystallography.net/
#
# All data on this site have been placed in the public domain by the
# contributors.
#
data_7057528
loop_
_publ_author_name
'Sohail, Manzar'
'Altaf, Muhammad'
'Baig, Nadeem'
'Jamil, Rabia'
'Sher, Muhammad'
'Fazal, Atif'
_publ_section_title
;
 A new water stable zinc metal organic framework as an electrode material
 for hydrazine sensing
;
_journal_issue                   15
_journal_name_full               'New Journal of Chemistry'
_journal_page_first              12486
_journal_paper_doi               10.1039/C8NJ01507D
_journal_volume                  42
_journal_year                    2018
_chemical_formula_moiety         'C18  H30  N4  O4  Zn1'
_chemical_formula_sum            'C13 H18 N2 O4 Zn0.5'
_chemical_formula_weight         298.98
_chemical_properties_physical    Photo-sensitive
_space_group_IT_number           2
_space_group_name_Hall           '-P 1'
_space_group_name_H-M_alt        'P -1'
_symmetry_cell_setting           triclinic
_symmetry_Int_Tables_number      2
_symmetry_space_group_name_Hall  '-P 1'
_symmetry_space_group_name_H-M   'P -1'
_atom_sites_solution_hydrogens   difmap
_audit_conform_dict_location     ftp://ftp.iucr.org/pub/cif_core.dic
_audit_conform_dict_name         cif_core.dic
_audit_conform_dict_version      2.4.3
_audit_creation_date             2016-02-07T20:13:02-00:00
_audit_creation_method           'WinGX routine CIF_UPDATE'
_audit_update_record
;
2018-01-09 deposited with the CCDC.
2018-06-19 downloaded from the CCDC.
;
_cell_angle_alpha                86.849(10)
_cell_angle_beta                 78.013(10)
_cell_angle_gamma                66.215(11)
_cell_formula_units_Z            2
_cell_length_a                   8.2199(9)
_cell_length_b                   8.3508(10)
_cell_length_c                   11.2244(13)
_cell_measurement_reflns_used    1645
_cell_measurement_temperature    190(2)
_cell_measurement_theta_max      26.9430
_cell_measurement_theta_min      3.7510
_cell_measurement_wavelength     0.71073
_cell_volume                     689.30(15)
_computing_cell_refinement
;
        CrysAlisPro, Agilent Technologies,
        Version 1.171.35.15 (release 03-08-2011 CrysAlis171 .NET)
        (compiled Aug  3 2011,13:03:54)
;
_computing_data_collection
;
        CrysAlisPro, Agilent Technologies,
        Version 1.171.35.15 (release 03-08-2011 CrysAlis171 .NET)
        (compiled Aug  3 2011,13:03:54)
;
_computing_data_reduction
;
        CrysAlisPro, Agilent Technologies,
        Version 1.171.35.15 (release 03-08-2011 CrysAlis171 .NET)
        (compiled Aug  3 2011,13:03:54)
;
_computing_molecular_graphics    'Ortep for Windows (Farrugia, 2012)'
_computing_publication_material  'WinGX publication routines (Farrugia, 2012)'
_computing_structure_refinement  'SHELXL-2014 (Sheldrick, 2014)'
_computing_structure_solution    'SIR-97 (Altomare, 2008)'
_diffrn_ambient_temperature      190(2)
_diffrn_detector                 'CCD plate'
_diffrn_detector_area_resol_mean 16.0696
_diffrn_detector_type            Sapphire3
_diffrn_measured_fraction_theta_full 0.9954
_diffrn_measured_fraction_theta_max 0.5095
_diffrn_measurement_device       'four-circle diffractometer'
_diffrn_measurement_device_type  'Xcalibur, Sapphire3, Gemini ultra'
_diffrn_measurement_method       '\w scans'
_diffrn_orient_matrix_UB_11      -0.0303919000
_diffrn_orient_matrix_UB_12      -0.0455619000
_diffrn_orient_matrix_UB_13      -0.0357334000
_diffrn_orient_matrix_UB_21      -0.0357693000
_diffrn_orient_matrix_UB_22      -0.0338138000
_diffrn_orient_matrix_UB_23      0.0536127000
_diffrn_orient_matrix_UB_31      -0.0840932000
_diffrn_orient_matrix_UB_32      0.0735230000
_diffrn_orient_matrix_UB_33      0.0051391000
_diffrn_radiation_monochromator  graphite
_diffrn_radiation_probe          x-ray
_diffrn_radiation_type           'Mo K\a'
_diffrn_radiation_wavelength     0.71073
_diffrn_reflns_av_R_equivalents  0.0310
_diffrn_reflns_av_sigmaI/netI    0.0578
_diffrn_reflns_limit_h_max       10
_diffrn_reflns_limit_h_min       -9
_diffrn_reflns_limit_k_max       11
_diffrn_reflns_limit_k_min       -11
_diffrn_reflns_limit_l_max       14
_diffrn_reflns_limit_l_min       -13
_diffrn_reflns_number            5198
_diffrn_reflns_theta_full        26.3154
_diffrn_reflns_theta_max         29.1678
_diffrn_reflns_theta_min         3.2984
_diffrn_source                   'Enhance (Mo) X-ray Source'
_exptl_absorpt_coefficient_mu    0.946
_exptl_absorpt_correction_T_max  1.00000
_exptl_absorpt_correction_T_min  0.97129
_exptl_absorpt_correction_type   multi-scan
_exptl_absorpt_process_details
;
CrysAlisPro, Agilent Technologies,
Version 1.171.37.35 (release 13-08-2014 CrysAlis171 .NET)
(compiled Aug 13 2014,18:06:01)
Empirical absorption correction using spherical harmonics,
 implemented in SCALE3 ABSPACK scaling algorithm.
;
_exptl_crystal_colour            colourless
_exptl_crystal_density_diffrn    1.44
_exptl_crystal_density_method    'not measured'
_exptl_crystal_description       needle
_exptl_crystal_F_000             314
_exptl_crystal_recrystallization_method
'Re-crystallisation from solvent: DMF and water'
_exptl_crystal_size_max          0.3
_exptl_crystal_size_mid          0.1
_exptl_crystal_size_min          0.1
_refine_diff_density_max         0.4
_refine_diff_density_min         -0.429
_refine_diff_density_rms         0.067
_refine_ls_extinction_method     none
_refine_ls_goodness_of_fit_ref   1.04
_refine_ls_hydrogen_treatment    refall
_refine_ls_matrix_type           full
_refine_ls_number_constraints    0
_refine_ls_number_parameters     250
_refine_ls_number_reflns         3117
_refine_ls_number_restraints     0
_refine_ls_restrained_S_all      1.04
_refine_ls_R_factor_all          0.053
_refine_ls_R_factor_gt           0.0402
_refine_ls_shift/su_max          0
_refine_ls_shift/su_mean         0
_refine_ls_structure_factor_coef Fsqd
_refine_ls_weighting_details
'w=1/[\s^2^(Fo^2^)+(0.0229P)^2^+0.0819P] where P=(Fo^2^+2Fc^2^)/3'
_refine_ls_weighting_scheme      calc
_refine_ls_wR_factor_gt          0.0729
_refine_ls_wR_factor_ref         0.079
_reflns_number_gt                2600
_reflns_number_total             3117
_reflns_threshold_expression     'I > 2\s(I)'
_iucr_refine_instructions_details
;
TITL 1374AF29 IN P1
CELL  0.71073   8.2199   8.3508  11.2244   86.849   78.013   66.215
ZERR     2.00   0.0009   0.0010   0.0013    0.010    0.010    0.011
LATT   1
SFAC  C    H    N    O    ZN
UNIT  26   36   4    8    1
MERG   2
FMAP   2
PLAN   10
ACTA
BOND   $H
CONF
L.S.   5
WGHT    0.022900    0.081900
FVAR       7.72921
C1    1    0.243540   -0.396047   -0.007849    11.00000    0.02648    0.03416 =
         0.01985   -0.00113    0.00184   -0.01542
C2    1    0.306111   -0.565315    0.030676    11.00000    0.03074    0.03157 =
         0.03963   -0.00520    0.00637   -0.01039
C3    1    0.221072   -0.604383    0.140772    11.00000    0.02993    0.02469 =
         0.04165    0.00536   -0.00132   -0.01149
C4    1    0.073049   -0.472236    0.210229    11.00000    0.02067    0.02681 =
         0.02237    0.00585   -0.00312   -0.01223
C5    1    0.020492   -0.306076    0.163822    11.00000    0.01897    0.02841 =
         0.01696    0.00230   -0.00100   -0.01073
C6    1   -0.034973   -0.502754    0.328586    11.00000    0.02637    0.02922 =
         0.02567    0.00995   -0.00668   -0.01305
C7    1   -0.320731   -0.536491    0.419231    11.00000    0.02378    0.02472 =
         0.02094    0.00576   -0.00182   -0.01096
C8    1   -0.408045   -0.384722    0.512772    11.00000    0.02769    0.03023 =
         0.02462    0.00118   -0.00066   -0.01570
C9    1   -0.466205   -0.577121    0.379294    11.00000    0.02893    0.03417 =
         0.02165    0.00109    0.00042   -0.01610
C10   1    0.097144    0.027893    0.237921    11.00000    0.02303    0.01806 =
         0.01768    0.00340   -0.00520   -0.00916
C11   1    0.045858    0.013456    0.373929    11.00000    0.02303    0.01826 =
         0.01524    0.00166   -0.00323   -0.00602
C12   1    0.161347    0.015502    0.448684    11.00000    0.02256    0.02250 =
         0.01707    0.00088   -0.00040   -0.00954
C13   1   -0.115800   -0.001502    0.426279    11.00000    0.02317    0.02345 =
         0.01660    0.00093   -0.00624   -0.00948
N1    3    0.101428   -0.265813    0.058028    11.00000    0.02178    0.02662 =
         0.01625    0.00386   -0.00297   -0.01051
N2    3   -0.209419   -0.496576    0.310396    11.00000    0.02404    0.03322 =
         0.01791    0.00443    0.00005   -0.01439
O1    4   -0.031079    0.081414    0.180679    11.00000    0.02378    0.03070 =
         0.01498    0.00483   -0.00578   -0.00832
O2    4    0.261065   -0.013899    0.190767    11.00000    0.02388    0.04684 =
         0.01720    0.00822   -0.00455   -0.01597
O3    4   -0.276144    0.031161    0.049058    11.00000    0.02295    0.03755 =
         0.01878    0.00826   -0.00314   -0.01600
O4    4   -0.400355   -0.141254    0.236528    11.00000    0.02290    0.05080 =
         0.04336    0.02241   -0.00795   -0.01504
ZN1   5    0.000000    0.000000    0.000000    10.50000    0.02075    0.02800 =
         0.01362    0.00669   -0.00347   -0.01035
H1    2    0.300457   -0.361123   -0.080639    11.00000    0.02643
H1N   2   -0.184961   -0.571429    0.257753    11.00000    0.02982
H1O3  2   -0.312796   -0.021932    0.097830    11.00000    0.04510
H1O4  2   -0.510207   -0.113478    0.238279    11.00000    0.05992
H2    2    0.411996   -0.655652   -0.020775    11.00000    0.03939
H2O3  2   -0.292433    0.012442   -0.024055    11.00000    0.09631
H2O4  2   -0.357287   -0.249723    0.247796    11.00000    0.07714
H3    2    0.264523   -0.720114    0.168042    11.00000    0.03135
H5    2   -0.081596   -0.212508    0.209235    11.00000    0.02268
H6A   2   -0.067093   -0.406655    0.388412    11.00000    0.02691
H6B   2    0.038734   -0.615449    0.363752    11.00000    0.02730
H7B   2   -0.245113   -0.639852    0.458211    11.00000    0.01969
H8A   2   -0.320411   -0.358962    0.541196    11.00000    0.04190
H8B   2   -0.481508   -0.278964    0.473693    11.00000    0.02788
H9    2   -0.410594   -0.673482    0.319556    11.00000    0.03744
H9A   2   -0.537908   -0.482037    0.339651    11.00000    0.02633
H12   2    0.267772    0.024842    0.418196    11.00000    0.02337
H13   2   -0.194325   -0.003551    0.377250    11.00000    0.03239
HKLF    4
REM  1374AF29 IN P1
REM R1 =  0.0402 for    2600 Fo > 4sig(Fo)  and  0.0530 for all    3117 data
REM    250 parameters refined using      0 restraints
END
;
_cod_data_source_file            c8nj01507d2.cif
_cod_data_source_block           shelx
_cod_depositor_comments          'Adding full bibliography for 7057528.cif.'
_cod_original_formula_sum        'C13 H18 N2 O4 Zn0.50'
_cod_database_code               7057528
_iucr_refine_reflections_details
;
 -10  -6  -4 4581.77 980.901   1
 -10  -6  -3 12732.7 1606.90   1
 -10  -6  -2 3667.39 881.789   1
 -10  -6  -1 1083.44 429.865   1
 -10  -6   0 607.212 489.182   1
 -10  -5  -5 1103.40 610.146   1
 -10  -5  -4 2607.43 774.286   1
 -10  -5  -3 3189.60 816.876   1
 -10  -5  -2 2596.91 747.683   1
 -10  -5  -1 828.103 519.401   1
 -10  -5   0 391.925 400.523   1
 -10  -5   1 4024.11 897.020   1
 -10  -5   2 2268.25 766.414   1
 -10  -4  -6-270.652 497.364   1
 -10  -4  -5 3743.73 883.925   1
 -10  -4  -4-11.6414 391.597   1
 -10  -4  -3 7198.11 1162.55   1
 -10  -4  -2 1066.24 458.677   1
 -10  -4  -1 15527.8 1675.82   1
 -10  -4   0 6078.40 1044.75   1
 -10  -4   1 1992.28 634.624   1
 -10  -4   2 3807.34 863.469   1
 -10  -4   3 846.238 582.869   1
 -10  -3  -6 472.391 573.634   1
 -10  -3  -5 1726.92 670.783   1
 -10  -3  -4-1163.30 577.279   1
 -10  -3  -3 1648.55 659.447   1
 -10  -3  -2 1102.09 563.965   1
 -10  -3  -1 1005.69 625.109   1
 -10  -3   0 463.469 482.101   1
 -10  -3   1 3011.02 745.511   1
 -10  -3   2 6972.73 1157.21   1
 -10  -3   3 755.173 521.992   1
 -10  -2  -6-171.581 380.837   1
 -10  -2  -5 2220.84 722.903   1
 -10  -2  -4-238.516 468.766   1
 -10  -2  -3 361.250 432.360   1
 -10  -2  -2 1271.42 598.560   1
 -10  -2  -1 9641.83 1278.92   1
 -10  -2   0 2052.28 668.868   1
 -10  -2   1 501.829 407.871   1
 -10  -1  -6 542.381 512.830   1
 -10  -1  -5 1340.65 616.487   1
 -10  -1  -4 337.256 435.419   1
 -10  -1  -3 2002.98 655.207   1
 -10  -1  -2 1059.63 562.864   1
 -10   0  -6-107.252 431.406   1
 -10   0  -5 716.870 511.482   1
  -9  -8  -6-1750.36 655.725   1
  -9  -8  -5 8735.88 1318.14   1
  -9  -8  -4 4752.15 935.564   1
  -9  -8  -3 10334.0 1418.02   1
  -9  -8  -2 3392.34 837.350   1
  -9  -8  -1 3453.36 847.657   1
  -9  -8   0 7580.60 1264.22   1
  -9  -7  -7 1320.92 573.631   1
  -9  -7  -6 820.165 520.321   1
  -9  -7  -5 2139.91 689.515   1
  -9  -7  -4 8246.41 1264.49   1
  -9  -7  -3 9316.86 1331.77   1
  -9  -7  -2 6.47547 431.013   1
  -9  -7  -1 2940.66 772.654   1
  -9  -7   0 1739.59 672.708   1
  -9  -7   1 16533.5 1775.97   1
  -9  -7   2 4726.05 1009.04   1
  -9  -6  -8-157.846 390.435   1
  -9  -6  -7 2329.04 770.308   1
  -9  -6  -6 2195.56 721.643   1
  -9  -6  -5 10152.2 1344.47   1
  -9  -6  -4 12864.1 1525.73   1
  -9  -6  -3 1933.84 641.798   1
  -9  -6  -2-33.2762 383.081   1
  -9  -6  -1-126.221 422.239   1
  -9  -6   0 2394.75 729.116   1
  -9  -6   1 2552.55 753.731   1
  -9  -6   2 8220.63 1252.93   1
  -9  -6   3 1379.84 632.233   1
  -9  -6   4 6487.69 1172.67   1
  -9  -5  -8 13185.5 1579.46   1
  -9  -5  -7 5925.37 1080.73   1
  -9  -5  -6 1874.32 612.179   1
  -9  -5  -5 16076.6 1665.22   1
  -9  -5  -4 11791.5 1426.79   1
  -9  -5  -3 8273.73 1180.81   1
  -9  -5  -2 2390.13 684.513   1
  -9  -5  -1 8257.75 1189.71   1
  -9  -5   0 940.771 413.646   1
  -9  -5   1 6687.78 1089.91   1
  -9  -5   2 441.425 427.159   1
  -9  -5   3 1040.52 572.636   1
  -9  -5   4 636.571 543.537   1
  -9  -5   5 899.910 570.139   1
  -9  -4  -9 2700.14 854.244   1
  -9  -4  -8 425.822 457.075   1
  -9  -4  -7 4369.84 923.736   1
  -9  -4  -6 2379.00 707.127   1
  -9  -4  -5 11097.5 1366.23   1
  -9  -4  -4 9771.57 1290.61   1
  -9  -4  -3 1085.30 515.026   1
  -9  -4  -2 496.965 414.238   1
  -9  -4  -1 8035.53 1156.05   1
  -9  -4   0 3963.37 827.732   1
  -9  -4   1 557.859 422.828   1
  -9  -4   2 753.898 503.233   1
  -9  -4   3 282.990 391.520   1
  -9  -4   4 3964.89 902.870   1
  -9  -4   5 34.1792 499.262   1
  -9  -4   6-118.406 392.063   1
  -9  -3  -9 5800.92 1115.61   1
  -9  -3  -8 9221.23 1325.20   1
  -9  -3  -7 555.505 386.928   1
  -9  -3  -6 568.770 489.218   1
  -9  -3  -5 20144.3 1841.45   1
  -9  -3  -4 18118.0 1716.83   1
  -9  -3  -3 3103.59 747.374   1
  -9  -3  -2 139.898 348.227   1
  -9  -3  -1 3770.36 808.586   1
  -9  -3   0 13750.4 1470.66   1
  -9  -3   1 19912.9 1747.55   1
  -9  -3   2 6318.81 996.164   1
  -9  -3   3 2890.07 771.062   1
  -9  -3   4 5997.13 1086.94   1
  -9  -3   5 956.798 501.287   1
  -9  -2  -9 11580.4 1542.19   1
  -9  -2  -8 4026.68 907.084   1
  -9  -2  -7 12181.5 1484.91   1
  -9  -2  -6 521.439 501.469   1
  -9  -2  -5 1912.83 638.655   1
  -9  -2  -4 2296.81 655.990   1
  -9  -2  -3 2945.28 735.210   1
  -9  -2  -2-274.041 384.362   1
  -9  -2  -1 2115.92 638.256   1
  -9  -2   0 671.215 506.950   1
  -9  -2   1 220.940 350.603   1
  -9  -2   2-270.506 496.784   1
  -9  -2   3 423.763 383.001   1
  -9  -2   5 3122.61 782.230   6
  -9  -1 -10 1891.72 617.782   6
  -9  -1  -9 2066.14 683.613   6
  -9  -1  -8 15397.5 1695.42   6
  -9  -1  -8 13202.8 1600.10   1
  -9  -1  -7 4864.14 959.755   1
  -9  -1  -7 6167.61 1083.09   6
  -9  -1  -6 2197.73 707.694   1
  -9  -1  -5 4582.02 885.981   1
  -9  -1  -4 11217.7 1362.24   1
  -9  -1  -3 1254.30 542.430   1
  -9  -1  -2 3711.08 754.823   1
  -9  -1  -1 130.691 359.317   1
  -9  -1   0 1585.49 552.797   1
  -9  -1   1 4055.29 883.134   6
  -9  -1   1 4479.37 833.700   1
  -9  -1   2 363.803 348.801   6
  -9  -1   3-106.972 447.016   6
  -9  -1   4 4101.40 881.389   6
  -9   0  -9 2338.87 749.102   6
  -9   0  -8 1606.15 614.981   1
  -9   0  -8 1259.48 542.518   6
  -9   0  -7 11805.2 1507.58   6
  -9   0  -7 14734.8 1604.85   1
  -9   0  -6 5152.89 1010.73   6
  -9   0  -6 3273.45 805.511   1
  -9   0  -5 3336.04 780.945   1
  -9   0  -5 3233.33 851.294   6
  -9   0  -4 2183.59 741.391   6
  -9   0  -4 2676.28 687.782   1
  -9   0  -3 5208.89 1054.22   6
  -9   0  -3 5507.64 922.993   1
  -9   0  -2 5596.27 1025.82   6
  -9   0  -2 3891.07 822.978   1
  -9   0  -1 4120.42 925.874   6
  -9   0   0 2307.99 708.285   6
  -9   0   1 2077.79 675.032   6
  -9   0   2 2419.64 713.915   6
  -9   0   3 2411.64 687.166   6
  -9   0   4 95.7831 425.367   6
  -9   1  -7 615.286 454.324   1
  -9   1  -6 653.417 486.425   1
  -9   1  -5-134.098 398.997   1
  -8 -10  -4 2826.65 776.851   1
  -8 -10  -3 822.735 495.376   1
  -8  -9  -7-367.706 525.198   1
  -8  -9  -6 156.941 340.756   1
  -8  -9  -5 1014.06 463.925   1
  -8  -9  -4 1531.87 589.433   1
  -8  -9  -3 3148.85 797.188   1
  -8  -9  -2-562.443 400.330   1
  -8  -9  -1 250.816 396.534   1
  -8  -9   0-118.027 518.030   1
  -8  -9   1 2883.81 804.360   1
  -8  -8  -9 4350.90 907.558   1
  -8  -8  -8 1063.27 551.076   1
  -8  -8  -7 3433.76 820.776   1
  -8  -8  -6 2773.61 787.077   1
  -8  -8  -5 3742.29 834.596   1
  -8  -8  -4 6329.99 1065.75   1
  -8  -8  -3 819.102 516.200   1
  -8  -8  -2 10227.1 1360.05   1
  -8  -8  -1 18366.2 1808.99   1
  -8  -8   0 6629.74 1114.09   1
  -8  -8   1 3580.46 838.112   1
  -8  -8   2 117.023 367.671   1
  -8  -8   3 3702.12 906.433   1
  -8  -7  -9 1151.28 565.878   1
  -8  -7  -8 541.807 519.297   1
  -8  -7  -7-60.6420 392.366   1
  -8  -7  -6 1276.16 530.024   1
  -8  -7  -5 7374.65 1126.21   1
  -8  -7  -4 15759.2 1619.11   1
  -8  -7  -3 1364.31 525.659   1
  -8  -7  -2 4431.24 896.787   1
  -8  -7  -1 5394.54 976.856   1
  -8  -7   0 18480.5 1773.35   1
  -8  -7   1 10956.2 1397.31   1
  -8  -7   2 3084.15 806.483   1
  -8  -7   3 4607.19 960.941   1
  -8  -7   4 7058.49 1151.68   1
  -8  -6 -10 802.928 597.163   1
  -8  -6  -9 5337.50 987.989   1
  -8  -6  -8 1610.92 671.507   1
  -8  -6  -7-197.462 461.769   1
  -8  -6  -6 1246.73 544.649   1
  -8  -6  -5 11155.6 1338.00   1
  -8  -6  -4 14679.0 1524.64   1
  -8  -6  -3 271.001 394.724   1
  -8  -6  -2 235.459 427.469   1
  -8  -6  -1 11878.9 1369.99   1
  -8  -6   0 12729.5 1426.69   1
  -8  -6   1 22149.8 1920.91   1
  -8  -6   2 4835.77 939.049   1
  -8  -6   3 11170.7 1409.35   1
  -8  -6   4 3303.51 817.430   1
  -8  -6   5 11170.8 1478.19   1
  -8  -6   6 1460.95 590.998   1
  -8  -5 -10 9397.43 1361.29   1
  -8  -5  -9 9068.00 1327.11   1
  -8  -5  -8 10715.6 1382.55   1
  -8  -5  -7 4055.34 865.293   1
  -8  -5  -6 1678.17 568.555   1
  -8  -5  -5 9976.21 1258.43   1
  -8  -5  -4 32210.2 2233.56   1
  -8  -5  -3 4214.30 826.628   1
  -8  -5  -2 3605.92 788.586   1
  -8  -5  -1 5282.10 926.339   1
  -8  -5   0 20709.6 1769.84   1
  -8  -5   1 13562.7 1473.29   1
  -8  -5   2 179.208 438.821   1
  -8  -5   3 1784.16 629.425   1
  -8  -5   4 10728.8 1375.73   1
  -8  -5   5 6727.25 1105.45   1
  -8  -5   6 8618.55 1358.44   2
  -8  -5   6 7278.91 1195.62   1
  -8  -5   7 3650.16 940.272   1
  -8  -4 -10 1829.64 683.107   1
  -8  -4  -9 1350.25 541.638   1
  -8  -4  -8 490.882 453.514   1
  -8  -4  -7 3831.39 879.401   1
  -8  -4  -6 14331.7 1502.67   1
  -8  -4  -5 16013.0 1552.07   1
  -8  -4  -4 17972.8 1625.61   1
  -8  -4  -3 983.931 403.100   1
  -8  -4  -2 9697.49 1192.59   1
  -8  -4  -1 7842.48 1079.20   1
  -8  -4   0 22341.2 1790.37   1
  -8  -4   1 15265.7 1478.20   1
  -8  -4   2 1004.52 453.055   1
  -8  -4   3 744.053 495.103   1
  -8  -4   4 1238.25 508.273   1
  -8  -4   5 9879.39 1289.71   1
  -8  -4   6 366.797 429.948   1
  -8  -4   7-429.198 403.615   1
  -8  -3 -10 5811.07 1095.28   1
  -8  -3  -9 2975.04 758.943   1
  -8  -3  -8-487.670 413.824   1
  -8  -3  -7 4185.28 853.584   1
  -8  -3  -6 6089.02 969.516   1
  -8  -3  -5 18577.6 1652.57   1
  -8  -3  -4 18089.8 1604.14   1
  -8  -3  -3 3746.06 758.350   1
  -8  -3  -2 3935.37 784.419   1
  -8  -3  -1 17539.2 1560.25   1
  -8  -3   0 27011.4 1904.75   1
  -8  -3   1 33499.2 2174.26   1
  -8  -3   2 3227.29 736.105   1
  -8  -3   3 193.215 370.255   1
  -8  -3   4 711.598 507.885   1
  -8  -3   5 5772.03 1035.41   1
  -8  -3   6 5915.47 1053.59   1
  -8  -3   7 6281.06 1057.67   1
  -8  -3   8 3330.54 834.538   1
  -8  -2 -10 13550.6 1611.97   1
  -8  -2  -9 2925.82 806.224   1
  -8  -2  -8 608.365 468.095   1
  -8  -2  -7 1896.82 637.201   1
  -8  -2  -6 14123.9 1471.54   1
  -8  -2  -5 6861.40 1034.03   1
  -8  -2  -4 10139.8 1166.89   1
  -8  -2  -3 44.9199 345.097   1
  -8  -2  -2 30948.6 2021.58   1
  -8  -2  -1 7327.58 1007.16   1
  -8  -2   0 5323.40 883.177   1
  -8  -2   1 3265.39 673.342   1
  -8  -2   2 2896.98 677.880   1
  -8  -2   3 14794.3 1419.15   1
  -8  -2   4 8830.08 1145.37   1
  -8  -2   5 9000.90 1170.52   1
  -8  -2   6 3294.69 781.318   1
  -8  -1 -10 3981.62 813.441   6
  -8  -1 -10 3113.80 847.648   1
  -8  -1  -9 6130.37 1023.77   6
  -8  -1  -9 5934.26 1071.01   1
  -8  -1  -8 705.899 360.540   1
  -8  -1  -7 9945.19 1260.30   1
  -8  -1  -6 15483.5 1546.12   1
  -8  -1  -5 25486.4 1904.72   1
  -8  -1  -4 6496.18 984.390   1
  -8  -1  -3 519.659 457.035   1
  -8  -1  -2 3589.27 700.520   1
  -8  -1  -1 16709.3 1430.36   1
  -8  -1   0 13913.7 1117.25   3
  -8  -1   0 14216.6 1322.96   1
  -8  -1   1 1343.12 483.802   1
  -8  -1   1 1200.48 378.088   3
  -8  -1   2 148.727 237.820   3
  -8  -1   2 469.572 361.037   1
  -8  -1   3 364.064 345.202   3
  -8  -1   3 969.286 419.774   1
  -8  -1   4 337.973 342.275   3
  -8  -1   4 899.667 448.832   6
  -8  -1   5 1907.35 576.476   3
  -8  -1   5 2972.82 714.362   6
  -8  -1   6 141.075 393.175   3
  -8  -1   7 3970.77 896.821   3
  -8   0 -10 5830.27 986.457   6
  -8   0  -9 4375.49 945.925   1
  -8   0  -9 3383.43 771.167   6
  -8   0  -8 1075.69 572.849   1
  -8   0  -8 400.047 349.660   6
  -8   0  -7 5885.33 959.508   1
  -8   0  -7 5431.03 940.024   6
  -8   0  -6 14986.2 1574.90   6
  -8   0  -6 14958.8 1529.44   1
  -8   0  -5 15778.5 1643.91   6
  -8   0  -5 16200.1 1539.41   1
  -8   0  -4 15498.9 1611.73   6
  -8   0  -4 18764.7 1596.19   1
  -8   0  -3 167.521 376.360   1
  -8   0  -3-296.339 312.558   6
  -8   0  -2 25457.8 1789.57   1
  -8   0  -2 23451.9 1977.17   6
  -8   0  -1 17789.5 1699.76   6
  -8   0  -1 17176.0 1422.81   1
  -8   0   0 4175.11 694.110   1
  -8   0   0 6188.18 1029.85   6
  -8   0   0 4217.51 702.338   3
  -8   0   1 7043.47 1097.79   6
  -8   0   1 5133.77 829.404   3
  -8   0   1 5816.13 802.509   1
  -8   0   2 319.487 377.669   6
  -8   0   2-53.3064 296.140   3
  -8   0   3 4493.14 824.518   3
  -8   0   3 4900.43 924.750   6
  -8   0   4 1819.84 611.630   6
  -8   0   4 1185.15 464.938   3
  -8   0   5 1000.02 468.509   6
  -8   0   5 712.829 448.542   3
  -8   0   6 710.346 487.212   3
  -8   1 -10 2294.95 662.873   6
  -8   1  -9 6136.72 1059.47   6
  -8   1  -8 1639.77 589.913   6
  -8   1  -7 579.311 468.191   1
  -8   1  -7 686.113 510.523   6
  -8   1  -6 519.704 456.218   1
  -8   1  -6 115.969 393.377   6
  -8   1  -5 13226.6 1384.64   1
  -8   1  -5 13557.7 1539.13   6
  -8   1  -4 16549.5 1695.96   6
  -8   1  -4 14619.3 1429.77   1
  -8   1  -3 1036.29 469.789   1
  -8   1  -3 2065.37 634.121   6
  -8   1  -2 8160.59 983.624   1
  -8   1  -2 6922.96 1120.46   6
  -8   1  -1 2400.93 696.042   6
  -8   1   0 15927.5 1703.77   6
  -8   1   1 1446.21 590.691   6
  -8   1   1 698.982 458.047   3
  -8   1   2 2063.47 657.428   6
  -8   1   2 2254.26 584.174   3
  -8   1   3 7422.20 1073.50   3
  -8   1   3 8060.60 1253.26   6
  -8   1   4 2936.26 755.350   6
  -8   1   4 2842.35 748.928   3
  -8   1   5 1431.76 561.935   6
  -8   1   5 1319.01 605.162   3
  -8   2  -9 7147.84 1179.49   6
  -8   2  -8 4413.98 925.728   6
  -8   2  -7 7786.71 1236.87   6
  -8   2  -6 3270.79 860.004   6
  -8   2  -5 2070.79 615.160   1
  -8   2  -5 822.750 612.346   6
  -8   2  -4 3577.70 830.059   6
  -8   2  -3 559.275 435.163   6
  -8   2  -2 4829.35 985.562   6
  -8   2  -1 3369.14 830.329   6
  -8   2   0 652.182 532.496   6
  -8   2   1 2319.17 682.297   3
  -8   2   1 3117.46 922.110   6
  -8   2   2 468.087 469.468   6
  -8   2   2 261.549 368.320   3
  -8   2   3 1636.81 589.423   3
  -8   2   3 2302.11 714.214   6
  -8   2   4 1843.76 666.246   6
  -8   2   4-274.761 418.789   3
  -8   3   2 373.607 445.354   3
  -7 -11  -2 2837.39 715.460   1
  -7 -10  -5 679.083 487.709   1
  -7 -10  -4 2907.99 767.756   1
  -7 -10  -3-80.3002 370.728   1
  -7 -10  -2 978.932 509.476   1
  -7 -10  -1 2949.55 790.102   1
  -7 -10   0 424.596 505.538   1
  -7 -10   1 447.208 482.021   1
  -7  -9  -8 466.068 407.224   1
  -7  -9  -7 1906.72 602.189   1
  -7  -9  -6 262.538 405.896   1
  -7  -9  -5-139.425 484.913   1
  -7  -9  -4 5286.09 943.747   1
  -7  -9  -3 618.586 433.392   1
  -7  -9  -2 2364.71 673.513   1
  -7  -9  -1 125.406 403.168   1
  -7  -9   0 2929.60 761.420   1
  -7  -9   1 7177.62 1158.29   1
  -7  -9   2 1748.00 596.878   1
  -7  -9   3 11258.7 1507.08   1
  -7  -8 -10 1363.29 587.013   1
  -7  -8  -9 2394.37 658.890   1
  -7  -8  -8 3993.17 846.330   1
  -7  -8  -7 550.614 411.463   1
  -7  -8  -6 790.591 467.608   1
  -7  -8  -5 428.102 336.752   1
  -7  -8  -4 7915.98 1115.04   1
  -7  -8  -3 1171.81 496.163   1
  -7  -8  -2 9743.20 1238.73   1
  -7  -8  -1 4137.18 832.504   1
  -7  -8   0-28.5693 371.884   1
  -7  -8   1 980.691 406.691   1
  -7  -8   2 671.811 435.740   1
  -7  -8   3 5591.36 1052.15   1
  -7  -8   4 5446.96 1021.10   1
  -7  -8   5 6142.49 1163.48   1
  -7  -8   5 6400.56 1138.15   2
  -7  -8   6 387.922 376.867   2
  -7  -7 -11 1331.75 550.293   1
  -7  -7 -10 123.609 371.307   1
  -7  -7  -9 7886.45 1163.64   1
  -7  -7  -8-288.509 402.349   1
  -7  -7  -7 3436.29 751.840   1
  -7  -7  -6 2258.55 635.646   1
  -7  -7  -5 5120.90 928.099   1
  -7  -7  -4 8894.69 1159.24   1
  -7  -7  -3 5706.11 944.798   1
  -7  -7  -2 4093.84 795.122   1
  -7  -7  -1 2797.71 696.018   1
  -7  -7   0 14924.6 1497.92   1
  -7  -7   1 22526.6 1891.78   1
  -7  -7   2 3415.44 817.265   1
  -7  -7   3 13613.2 1513.81   1
  -7  -7   4 8211.22 1201.30   1
  -7  -7   5 10165.1 1360.64   2
  -7  -7   5 11764.4 1448.68   1
  -7  -7   6 575.514 349.497   2
  -7  -7   7 19573.5 1949.31   2
  -7  -6 -11 3358.56 819.170   1
  -7  -6 -10 9248.26 1254.88   1
  -7  -6  -9 1080.47 491.819   1
  -7  -6  -8 1397.26 620.572   1
  -7  -6  -7 2214.83 622.552   1
  -7  -6  -6 2646.94 645.900   1
  -7  -6  -5 776.601 448.386   1
  -7  -6  -4 13571.6 1361.58   1
  -7  -6  -3 2338.18 656.011   1
  -7  -6  -2 14684.8 1424.08   1
  -7  -6  -1 7526.65 1053.91   1
  -7  -6   0 2859.85 722.703   1
  -7  -6   1 13610.0 1427.85   1
  -7  -6   2 13385.5 1413.39   1
  -7  -6   3 12640.1 1418.27   1
  -7  -6   4 3037.11 761.723   2
  -7  -6   4 2743.31 785.893   1
  -7  -6   5 3489.29 816.269   1
  -7  -6   5 4554.61 922.777   2
  -7  -6   6 2808.34 948.866   2
  -7  -6   7 3159.34 854.576   2
  -7  -5 -12 299.555 403.429   1
  -7  -5 -11 4079.52 915.865   1
  -7  -5 -10 1995.15 665.364   1
  -7  -5  -9 11455.0 1369.52   1
  -7  -5  -8-221.393 379.216   1
  -7  -5  -7 946.393 489.355   1
  -7  -5  -6 1969.60 565.789   1
  -7  -5  -5 316.253 363.144   1
  -7  -5  -4 3381.48 694.173   1
  -7  -5  -3 822.503 489.672   1
  -7  -5  -2 11820.2 1292.59   1
  -7  -5  -1 633.817 418.491   1
  -7  -5   0 8858.28 1116.39   1
  -7  -5   1 2514.05 616.787   1
  -7  -5   2 4177.09 789.008   1
  -7  -5   3 24165.7 1900.19   1
  -7  -5   4 14154.8 1497.00   1
  -7  -5   4 13427.9 1448.50   2
  -7  -5   5 17322.3 1696.19   2
  -7  -5   5 20298.8 1776.05   1
  -7  -5   6 8176.21 1220.78   2
  -7  -5   7 21489.7 2042.09   2
  -7  -4 -12 3430.05 850.706   1
  -7  -4 -11 5541.63 1060.04   1
  -7  -4 -10 4230.91 898.930   1
  -7  -4  -9 1814.15 598.688   1
  -7  -4  -8 853.608 489.134   1
  -7  -4  -7 18848.6 1643.09   1
  -7  -4  -6 32469.4 2113.13   1
  -7  -4  -5 20867.9 1639.03   1
  -7  -4  -4 10133.9 1132.86   1
  -7  -4  -3 2714.38 653.919   1
  -7  -4  -2 28957.6 1908.49   1
  -7  -4  -1 65127.2 2934.43   1
  -7  -4   0 5034.22 846.013   1
  -7  -4   1 14036.5 1358.50   1
  -7  -4   2 8575.50 1091.87   1
  -7  -4   3 19441.9 1627.25   1
  -7  -4   3 19166.1 1243.63   3
  -7  -4   4 5753.37 961.292   2
  -7  -4   4 5399.91 931.750   1
  -7  -4   5 9110.17 1179.28   1
  -7  -4   5 7365.71 1112.24   2
  -7  -4   6 5788.59 966.930   1
  -7  -4   6 5678.32 1057.70   2
  -7  -4   7 14958.4 1690.98   2
  -7  -4   8 4807.62 1081.87   2
  -7  -3 -12 1957.75 751.697   1
  -7  -3 -11 1977.68 679.837   1
  -7  -3 -10 4395.87 941.039   1
  -7  -3  -9 3149.29 758.469   1
  -7  -3  -8 2003.46 587.495   1
  -7  -3  -7 1232.93 495.673   1
  -7  -3  -6 10216.9 1171.41   1
  -7  -3  -5 10216.3 1136.68   1
  -7  -3  -4 7053.32 955.266   1
  -7  -3  -3 6659.01 911.055   1
  -7  -3  -2 21405.3 1587.39   1
  -7  -3  -1 3855.53 718.662   1
  -7  -3   0 58630.5 1747.93   3
  -7  -3   0 58925.2 2703.06   1
  -7  -3   1 2757.53 633.738   1
  -7  -3   1 3269.25 433.994   3
  -7  -3   2 67.6647 316.717   1
  -7  -3   3 18778.9 1545.14   1
  -7  -3   3 17263.6 1196.42   3
  -7  -3   4 7371.33 984.596   1
  -7  -3   4 8789.56 941.690   3
  -7  -3   5 4448.28 805.070   1
  -7  -3   5 3935.92 902.448   2
  -7  -3   5 4838.65 760.087   3
  -7  -3   6 2492.06 702.797   2
  -7  -3   6 2631.71 637.151   1
  -7  -3   6 2657.04 658.179   3
  -7  -3   7 7341.25 1213.72   2
  -7  -3   7 5068.86 905.243   3
  -7  -3   7 6760.51 1025.92   1
  -7  -3   8 80.3647 322.230   3
  -7  -3   8 234.956 367.796   2
  -7  -3   9-548.518 436.521   3
  -7  -2 -11 8764.67 1285.44   1
  -7  -2 -10 2342.06 747.847   1
  -7  -2  -9 1156.78 587.229   1
  -7  -2  -8-42.1807 335.461   1
  -7  -2  -7 6418.99 1007.29   1
  -7  -2  -6 6144.54 917.636   1
  -7  -2  -5 11031.7 1189.65   1
  -7  -2  -4 11601.0 1195.93   1
  -7  -2  -3-279.101 316.163   1
  -7  -2  -2 20373.3 1531.36   1
  -7  -2  -1 64491.1 2779.09   1
  -7  -2   0 14920.0 1279.68   1
  -7  -2   1 12803.1 1213.50   1
  -7  -2   2 26550.5 1471.13   3
  -7  -2   2 25024.5 1709.33   1
  -7  -2   3 42823.9 2037.20   3
  -7  -2   3 41791.0 2269.44   1
  -7  -2   4 41786.7 2132.28   3
  -7  -2   4 40270.5 2281.23   1
  -7  -2   5 19837.7 1536.05   3
  -7  -2   5 18991.3 1588.04   1
  -7  -2   6 962.537 417.450   3
  -7  -2   6 658.701 488.490   1
  -7  -2   6 2204.24 752.376   2
  -7  -2   7 5715.12 1084.49   2
  -7  -2   7 6003.12 952.490   1
  -7  -2   7 6135.17 1024.02   3
  -7  -2   8 4235.93 891.438   3
  -7  -2   8 4479.25 975.546   2
  -7  -2   8 6123.59 987.582   1
  -7  -2   9 10607.5 1411.52   3
  -7  -1 -10 2710.30 738.664   1
  -7  -1 -10 2270.02 612.520   6
  -7  -1  -9 7714.22 1154.94   1
  -7  -1  -8 3053.38 748.825   1
  -7  -1  -7 11661.9 1303.62   1
  -7  -1  -6 16061.2 1465.58   1
  -7  -1  -5 4276.52 788.715   1
  -7  -1  -4 2695.25 587.226   1
  -7  -1  -3 6024.76 835.442   1
  -7  -1  -2 20681.1 1513.35   1
  -7  -1  -1 5412.37 784.138   1
  -7  -1   0 44786.1 2234.11   1
  -7  -1   0 42667.9 1886.39   3
  -7  -1   1 7047.96 775.326   3
  -7  -1   1 7512.28 911.402   1
  -7  -1   2 12667.2 1164.65   1
  -7  -1   2 10350.2 996.470   3
  -7  -1   3 9744.88 1033.85   3
  -7  -1   3 9181.35 1029.98   1
  -7  -1   4 9656.17 1062.87   1
  -7  -1   4 10077.7 1091.46   3
  -7  -1   5 16268.5 1464.84   3
  -7  -1   5 18369.1 1495.23   1
  -7  -1   5 17187.8 1494.74   6
  -7  -1   6 3578.62 697.654   6
  -7  -1   6 3209.38 693.164   3
  -7  -1   6 3721.24 721.653   1
  -7  -1   7 3639.41 890.153   2
  -7  -1   7 1645.49 622.776   3
  -7  -1   8 502.897 439.333   3
  -7  -1   8 197.262 522.335   2
  -7   0 -10 359.220 420.220   6
  -7   0  -9-23.0089 424.802   1
  -7   0  -9 120.395 273.027   6
  -7   0  -8 890.131 438.658   6
  -7   0  -8 601.770 441.421   1
  -7   0  -7 11680.2 1290.04   6
  -7   0  -7 10924.0 1278.89   1
  -7   0  -6 10555.8 1222.20   1
  -7   0  -6 9203.43 1136.96   6
  -7   0  -5 2456.22 684.836   1
  -7   0  -4 11130.0 1166.21   1
  -7   0  -3 1394.11 459.095   1
  -7   0  -2 28200.3 1741.71   1
  -7   0  -1 21354.6 1485.17   1
  -7   0   0 11484.2 1267.50   6
  -7   0   0 11397.3 1066.44   1
  -7   0   0 10975.8 1014.58   3
  -7   0   1 1873.41 512.815   3
  -7   0   1 1606.85 503.995   6
  -7   0   1 1936.18 485.844   1
  -7   0   2 13300.2 1226.75   3
  -7   0   2 18071.1 1576.29   6
  -7   0   2 17613.5 1316.17   1
  -7   0   3 3485.03 705.024   6
  -7   0   3 3067.54 589.844   1
  -7   0   3 3187.92 652.887   3
  -7   0   4 9078.85 1130.21   6
  -7   0   4 7800.40 1012.07   3
  -7   0   5 13691.1 1366.27   6
  -7   0   5 10904.4 1259.55   3
  -7   0   6 1199.68 414.651   6
  -7   0   6 2441.47 695.607   3
  -7   0   7 2214.94 685.762   3
  -7   0   8 2289.81 638.319   3
  -7   1 -10 942.781 439.545   6
  -7   1  -9 3932.74 783.568   6
  -7   1  -8 687.596 446.725   6
  -7   1  -7 12202.7 1395.61   1
  -7   1  -7 11782.4 1357.64   6
  -7   1  -6 9904.37 1228.55   6
  -7   1  -6 10401.9 1196.81   1
  -7   1  -5 5869.35 925.962   1
  -7   1  -5 5452.44 926.171   6
  -7   1  -4 7348.22 1065.66   6
  -7   1  -4 8276.60 1040.83   1
  -7   1  -3 2008.54 607.551   6
  -7   1  -3 3567.99 672.985   1
  -7   1  -2 42291.0 2530.96   6
  -7   1  -2 42755.3 2153.75   1
  -7   1  -1 9591.04 977.689   1
  -7   1  -1 8438.92 1156.82   6
  -7   1   0 15052.3 1178.37   1
  -7   1   0 14986.4 1318.31   3
  -7   1   0 16098.9 1536.00   6
  -7   1   1 22520.2 1411.52   1
  -7   1   1 19779.8 1561.58   3
  -7   1   1 20921.2 1769.51   6
  -7   1   2 124.845 409.345   3
  -7   1   2 456.378 426.842   6
  -7   1   3 26075.8 1874.40   3
  -7   1   3 22026.4 1839.16   6
  -7   1   4 4706.37 894.911   3
  -7   1   4 4007.76 791.490   6
  -7   1   5 768.666 424.647   3
  -7   1   5 3305.27 733.595   6
  -7   1   6-116.986 397.604   3
  -7   1   7 948.367 547.333   3
  -7   2 -10 807.412 454.779   6
  -7   2  -9-544.292 422.568   6
  -7   2  -8 1687.85 600.611   6
  -7   2  -7 7027.50 1099.57   6
  -7   2  -6 1326.79 494.139   6
  -7   2  -5 195.569 348.098   1
  -7   2  -5 948.612 458.271   6
  -7   2  -4 583.704 388.923   1
  -7   2  -4-19.3287 327.711   6
  -7   2  -3 466.243 270.687   1
  -7   2  -3 595.359 332.311   6
  -7   2  -2 34425.3 1861.94   1
  -7   2  -2 33855.6 2353.91   6
  -7   2  -1 8798.12 1210.28   6
  -7   2   0 2979.53 706.471   6
  -7   2   1-140.704 338.194   3
  -7   2   1 723.963 513.733   6
  -7   2   2 11137.2 1297.76   3
  -7   2   2 10873.2 1348.10   6
  -7   2   3 7841.98 1146.97   6
  -7   2   3 6304.41 1015.76   3
  -7   2   4 2544.75 719.703   6
  -7   2   4 3090.06 770.949   3
  -7   2   5 8746.96 1198.35   6
  -7   2   5 8472.96 1249.41   3
  -7   2   6 926.695 541.137   3
  -7   3  -8-230.320 402.122   6
  -7   3  -7 6148.51 1096.81   6
  -7   3  -6 14456.9 1636.29   6
  -7   3  -5 7402.42 1223.79   6
  -7   3  -4 6258.89 1079.74   6
  -7   3  -3-357.077 330.955   6
  -7   3  -2 17801.5 1773.77   6
  -7   3  -1 4510.22 932.605   6
  -7   3   0 5611.18 1015.51   6
  -7   3   1 4795.56 910.000   3
  -7   3   1 6749.69 1125.10   6
  -7   3   2 455.989 376.701   3
  -7   3   2 1190.03 566.164   6
  -7   3   3 12644.0 1516.38   3
  -7   3   3 10997.0 1435.10   6
  -7   3   4 3220.46 909.125   3
  -7   4  -3 1249.16 573.207   6
  -7   4   2 3516.58 866.273   3
  -6 -11   0 575.367 542.177   1
  -6 -11   1 128.824 351.128   1
  -6 -10  -3-1528.08 579.831   1
  -6 -10  -2 980.564 533.605   1
  -6 -10  -1 4885.11 925.329   1
  -6 -10   0 726.411 476.127   1
  -6 -10   1 837.774 487.513   1
  -6 -10   2 1697.11 607.995   1
  -6 -10   3 4687.27 992.718   1
  -6 -10   4 169.088 308.731   4
  -6  -9  -6 1088.65 497.698   1
  -6  -9  -5 212.656 357.964   1
  -6  -9  -4 6392.61 969.094   1
  -6  -9  -3 150.625 328.955   1
  -6  -9  -2 17786.0 1596.71   1
  -6  -9  -1 520.375 397.704   1
  -6  -9   0 3235.25 849.691   1
  -6  -9   1 8449.52 1198.60   1
  -6  -9   2 508.402 426.186   1
  -6  -9   3 6425.91 1097.02   1
  -6  -9   4 2069.83 694.081   1
  -6  -8  -9 7998.96 1142.43   1
  -6  -8  -8 1772.31 620.982   1
  -6  -8  -7 9240.97 1149.99   1
  -6  -8  -6 466.455 358.956   1
  -6  -8  -5 819.287 403.319   1
  -6  -8  -4 7089.92 1002.56   1
  -6  -8  -3 3171.59 708.388   1
  -6  -8  -2 4677.32 874.478   1
  -6  -8  -1 5267.09 888.504   1
  -6  -8   0 5039.45 870.965   1
  -6  -8   1 2244.79 637.223   1
  -6  -8   2 4774.27 871.018   1
  -6  -8   3 13331.4 1504.80   1
  -6  -8   4 2153.64 700.636   2
  -6  -8   5 784.840 465.756   2
  -6  -8   6 8.18130 373.934   2
  -6  -8   7 7542.37 1183.93   2
  -6  -7 -11 4.61583 403.580   1
  -6  -7 -10 732.660 508.961   1
  -6  -7  -9 8348.95 1124.52   1
  -6  -7  -8 5160.43 868.319   1
  -6  -7  -7 2103.84 616.673   1
  -6  -7  -6 10391.0 1168.54   1
  -6  -7  -5 9635.74 1120.91   1
  -6  -7  -4 16182.7 1452.59   1
  -6  -7  -3-287.868 373.876   1
  -6  -7  -2 31881.2 2034.22   1
  -6  -7  -1 44.7970 317.927   1
  -6  -7   0 4340.72 800.528   1
  -6  -7   1 14370.8 1432.07   1
  -6  -7   2 724.161 455.669   1
  -6  -7   3 6597.57 961.590   2
  -6  -7   3 5202.63 913.799   1
  -6  -7   4 794.924 537.012   2
  -6  -7   5 485.981 372.876   2
  -6  -7   6 4901.42 911.154   2
  -6  -7   7 13581.8 1553.75   2
  -6  -7   8 7020.42 1180.30   2
  -6  -6 -12 88.9203 314.836   1
  -6  -6 -11 5465.62 956.973   1
  -6  -6 -10 9033.33 1215.48   1
  -6  -6  -9 14505.3 1464.51   1
  -6  -6  -8 1285.88 524.754   1
  -6  -6  -7 6026.61 932.401   1
  -6  -6  -6 1371.82 488.314   1
  -6  -6  -5 4069.61 723.465   1
  -6  -6  -4 23467.9 1697.89   1
  -6  -6  -3 4436.00 769.671   1
  -6  -6  -2 10546.2 1141.15   1
  -6  -6  -1 12616.3 1254.35   1
  -6  -6   0 1505.61 482.987   1
  -6  -6   1 514.031 360.761   1
  -6  -6   2 37187.1 2238.35   1
  -6  -6   3 23416.8 1746.48   2
  -6  -6   3 24778.9 1838.49   1
  -6  -6   4 1362.24 497.228   2
  -6  -6   5-295.428 303.555   2
  -6  -6   6 3059.86 734.702   2
  -6  -6   7 23434.1 2014.32   2
  -6  -6   8 12729.8 1548.65   2
  -6  -5 -12 714.814 360.414   1
  -6  -5 -11 1736.32 570.679   1
  -6  -5 -10 5391.73 935.337   1
  -6  -5  -9 30929.8 2144.75   1
  -6  -5  -8 4295.91 801.923   1
  -6  -5  -7-51.7008 310.820   1
  -6  -5  -6 674.541 388.266   1
  -6  -5  -5 9206.83 1034.16   1
  -6  -5  -4 16318.0 1361.95   1
  -6  -5  -3 576.226 344.935   1
  -6  -5  -2 11771.7 1157.51   1
  -6  -5  -1 576.176 392.540   1
  -6  -5   0 411.673 411.392   1
  -6  -5   1 34910.5 2062.69   1
  -6  -5   2-398.605 308.631   1
  -6  -5   3 31125.2 2026.83   2
  -6  -5   3 35018.2 2109.96   1
  -6  -5   4 17911.9 1566.64   2
  -6  -5   5 927.730 440.190   2
  -6  -5   6 1512.07 557.383   2
  -6  -5   7 18323.3 1751.47   2
  -6  -5   8 8687.37 1290.76   2
  -6  -5   9 6843.06 1201.05   2
  -6  -4 -12 2570.81 754.300   1
  -6  -4 -11 7079.94 1080.87   1
  -6  -4 -10 11939.3 1345.74   1
  -6  -4  -9 10070.3 1199.23   1
  -6  -4  -8 15532.8 1456.02   1
  -6  -4  -7 35401.6 2148.94   1
  -6  -4  -6 15723.5 1385.19   1
  -6  -4  -5 3021.11 646.458   1
  -6  -4  -4 20104.0 1493.23   1
  -6  -4  -3-66.4293 329.494   1
  -6  -4  -2 8715.76 974.204   1
  -6  -4  -1 4043.94 685.283   1
  -6  -4   0 22937.4 784.202   3
  -6  -4   0 18694.6 1460.58   1
  -6  -4   1 8716.85 1001.49   1
  -6  -4   2 12166.0 1188.58   1
  -6  -4   3 4322.53 725.978   1
  -6  -4   3 3396.16 707.482   2
  -6  -4   4 1010.51 461.429   2
  -6  -4   5 9750.92 1194.29   2
  -6  -4   6 15923.7 1568.94   2
  -6  -4   7 19482.4 1816.60   2
  -6  -4   8 22552.2 2022.90   2
  -6  -4   9 6664.19 1149.17   2
  -6  -3 -11 17674.0 1708.98   1
  -6  -3 -10 2544.79 701.427   1
  -6  -3  -9 21988.3 1789.73   1
  -6  -3  -8 958.523 505.735   1
  -6  -3  -7 4403.50 770.721   1
  -6  -3  -6 11459.1 1152.72   1
  -6  -3  -5 27868.4 1775.51   1
  -6  -3  -4 30747.4 1836.86   1
  -6  -3  -3 4118.49 709.995   1
  -6  -3  -2 15962.9 1283.30   1
  -6  -3  -1 1049.23 392.885   1
  -6  -3   0 1496.34 450.632   1
  -6  -3   0 1622.78 241.352   3
  -6  -3   1 71858.9 2888.86   1
  -6  -3   1 74483.6 2111.36   3
  -6  -3   2 256.796 275.472   1
  -6  -3   3 5975.34 890.534   2
  -6  -3   3 7807.96 950.305   1
  -6  -3   4 18907.1 1588.40   2
  -6  -3   4 18589.0 1474.10   1
  -6  -3   5 2153.98 604.031   2
  -6  -3   6 7320.52 1097.62   2
  -6  -3   7 13677.0 1537.20   2
  -6  -3   8 2694.99 784.113   2
  -6  -3   9 7493.36 1212.98   2
  -6  -2 -10 8375.76 1176.24   1
  -6  -2  -9 1017.92 475.902   1
  -6  -2  -8 4792.68 847.857   1
  -6  -2  -7 30761.6 1977.06   1
  -6  -2  -6 2738.98 587.953   1
  -6  -2  -5 515.850 390.220   1
  -6  -2  -4 4276.14 695.805   1
  -6  -2  -3 2852.97 570.003   1
  -6  -2  -2 26882.6 1623.23   1
  -6  -2  -1 858.543 344.356   1
  -6  -2  -1 987.375 214.460   3
  -6  -2   0 9030.42 940.646   1
  -6  -2   0 9891.58 683.486   3
  -6  -2   1 843.205 311.951   1
  -6  -2   1 1346.78 313.149   3
  -6  -2   2 38870.8 1997.49   1
  -6  -2   3 32329.0 1641.91   3
  -6  -2   3 32647.3 1862.08   1
  -6  -2   4 773.959 379.484   1
  -6  -2   4 508.400 293.136   3
  -6  -2   4 506.975 456.212   2
  -6  -2   5 6555.38 897.888   3
  -6  -2   5 7055.33 892.024   1
  -6  -2   5 8114.49 1076.36   2
  -6  -2   6 7590.19 1016.09   3
  -6  -2   6 8608.95 1164.11   2
  -6  -2   7 4933.38 942.269   2
  -6  -2   8 8570.70 1217.74   2
  -6  -2   9 8659.81 1319.93   2
  -6  -1 -10 2547.62 534.698   6
  -6  -1 -10 3480.90 781.711   1
  -6  -1  -9 18847.8 1680.45   1
  -6  -1  -8 7756.72 1050.59   1
  -6  -1  -7 13674.8 1318.97   1
  -6  -1  -6 30989.2 1932.02   1
  -6  -1  -5 179.534 329.099   1
  -6  -1  -4 2331.73 482.387   1
  -6  -1  -3-220.636 328.500   1
  -6  -1  -2 55356.7 2344.64   1
  -6  -1  -1 11635.4 809.177   3
  -6  -1  -1 10894.0 1010.83   1
  -6  -1   0 1166.31 379.439   1
  -6  -1   1 10641.2 976.907   1
  -6  -1   2 4580.62 678.155   1
  -6  -1   2 5273.04 641.254   3
  -6  -1   3 11138.1 1041.46   1
  -6  -1   3 10239.0 961.409   3
  -6  -1   4 64110.7 2958.61   2
  -6  -1   4 61846.4 2586.16   1
  -6  -1   4 62170.7 2629.09   3
  -6  -1   5 16374.4 1539.13   2
  -6  -1   5 17819.5 1451.89   3
  -6  -1   5 17518.8 1353.96   1
  -6  -1   6 37569.1 2366.07   2
  -6  -1   6 32280.9 1869.93   6
  -6  -1   6 32224.6 2080.73   3
  -6  -1   6 33596.6 1956.65   1
  -6  -1   7 16575.2 1411.87   1
  -6  -1   7 16390.8 1654.37   2
  -6  -1   7 16413.9 1585.58   3
  -6  -1   8 5278.48 1026.16   2
  -6  -1   8 4142.33 915.139   3
  -6  -1   9 5275.50 1014.99   3
  -6  -1   9 5529.76 1052.38   2
  -6   0 -10 6585.07 851.931   6
  -6   0  -9 1080.75 473.464   1
  -6   0  -9 1634.12 478.607   6
  -6   0  -8 498.620 378.291   1
  -6   0  -8 68.6063 274.366   6
  -6   0  -7 59980.5 2848.78   1
  -6   0  -7 59960.7 2723.35   6
  -6   0  -6 11974.4 1204.91   1
  -6   0  -5 7705.32 946.821   1
  -6   0  -4 2480.14 555.938   1
  -6   0  -3 728.580 378.936   1
  -6   0  -2 27317.8 1584.58   1
  -6   0  -1 4274.44 621.010   1
  -6   0   0 199.054 241.690   3
  -6   0   0-13.6419 216.774   1
  -6   0   1 259.343 252.686   1
  -6   0   1 375.777 286.850   3
  -6   0   2 9124.46 938.735   3
  -6   0   2 9351.00 876.589   1
  -6   0   3 37475.4 2105.52   6
  -6   0   3 39075.4 2053.83   3
  -6   0   3 40781.7 1902.95   1
  -6   0   4 1950.22 554.169   3
  -6   0   4 1685.09 488.342   6
  -6   0   4 1438.32 400.242   1
  -6   0   5 1564.17 485.469   6
  -6   0   5 1637.52 429.092   1
  -6   0   5 2136.82 600.758   3
  -6   0   6 6986.95 912.047   6
  -6   0   6 6856.28 834.972   1
  -6   0   6 6036.71 1019.19   2
  -6   0   6 3871.11 775.309   3
  -6   0   7 5131.05 898.967   3
  -6   0   7 4918.24 934.401   2
  -6   0   8 4095.90 908.624   3
  -6   0   8 3643.72 907.928   2
  -6   0   9 7162.03 1188.53   3
  -6   0   9 6409.64 1107.65   2
  -6   1 -10 1169.97 416.861   6
  -6   1  -9 6129.39 890.271   6
  -6   1  -8 7033.20 944.116   6
  -6   1  -7 123.654 259.868   6
  -6   1  -7 501.197 363.399   1
  -6   1  -6 21882.4 1634.56   1
  -6   1  -6 18553.5 1528.01   6
  -6   1  -5 3518.21 714.412   6
  -6   1  -5 4452.81 735.168   1
  -6   1  -4 261.142 384.086   1
  -6   1  -4 47.3232 301.629   6
  -6   1  -3 1835.06 445.703   1
  -6   1  -3 1227.51 452.865   6
  -6   1  -2 53693.3 2260.30   1
  -6   1  -2 52985.8 2616.71   6
  -6   1  -1 13476.8 1046.30   1
  -6   1  -1 12671.1 1308.84   6
  -6   1   0 6564.49 839.172   3
  -6   1   0 5963.80 905.593   6
  -6   1   0 6983.67 745.983   1
  -6   1   1 1610.35 381.870   1
  -6   1   1 1766.37 501.260   3
  -6   1   1 753.217 409.927   6
  -6   1   2 5559.46 636.372   1
  -6   1   2 5177.99 793.895   3
  -6   1   2 4703.96 789.975   6
  -6   1   3 13991.6 1302.35   3
  -6   1   3 13390.7 1299.45   6
  -6   1   3 15773.7 1085.73   1
  -6   1   4 32813.8 2071.94   3
  -6   1   4 31826.0 2037.59   6
  -6   1   5 695.790 427.908   6
  -6   1   5-432.442 396.590   3
  -6   1   6 3152.85 649.897   6
  -6   1   6 1590.89 565.807   3
  -6   1   7 8499.69 1227.87   2
  -6   1   7 8464.21 1194.40   3
  -6   1   8 10525.9 1396.76   3
  -6   1   8 8520.63 1276.22   2
  -6   1   9 5206.60 1059.96   2
  -6   2 -10 857.739 458.242   6
  -6   2  -9 6974.12 985.034   6
  -6   2  -8 1342.03 500.505   6
  -6   2  -7 28064.7 1982.19   6
  -6   2  -6 658.148 406.329   6
  -6   2  -5 185.747 316.054   1
  -6   2  -5 506.178 366.695   6
  -6   2  -4 5774.49 786.365   1
  -6   2  -4 5341.55 893.612   6
  -6   2  -3 2703.94 659.046   6
  -6   2  -3 2775.87 535.301   1
  -6   2  -2 38560.0 1865.44   1
  -6   2  -2 32624.4 2137.53   6
  -6   2  -1 14337.4 1057.46   1
  -6   2  -1 13135.5 1367.78   6
  -6   2   0 3224.20 478.091   1
  -6   2   0 1338.53 506.210   6
  -6   2   0 2281.56 556.174   3
  -6   2   1 452.306 392.691   6
  -6   2   1 1190.88 486.178   3
  -6   2   2 7880.75 1025.69   3
  -6   2   2 9390.86 1144.16   6
  -6   2   3 40343.5 2386.48   6
  -6   2   3 41505.1 2405.97   3
  -6   2   4 10848.7 1259.39   6
  -6   2   4 9435.50 1182.59   3
  -6   2   5 7367.51 1103.00   3
  -6   2   5 7801.49 1056.67   6
  -6   2   6 5631.36 1010.95   3
  -6   2   6 6745.97 979.294   6
  -6   2   7 625.628 397.798   3
  -6   3  -8 7018.80 1046.34   6
  -6   3  -7 2792.80 714.700   6
  -6   3  -6 4025.06 801.526   6
  -6   3  -5 2952.10 770.843   6
  -6   3  -4 1470.89 519.756   6
  -6   3  -3 64.7066 327.113   6
  -6   3  -2 5021.47 917.188   6
  -6   3  -1-120.859 321.139   6
  -6   3   0 650.748 432.886   6
  -6   3   1 3279.01 737.958   6
  -6   3   1 2196.87 624.562   3
  -6   3   2 704.375 471.732   6
  -6   3   2 1006.25 449.328   3
  -6   3   3 5406.65 965.668   6
  -6   3   3 4918.25 894.276   3
  -6   3   4 9383.05 1263.02   3
  -6   3   5 2614.60 695.999   3
  -6   3   6 879.360 541.518   3
  -6   4  -3 8093.11 1200.79   6
  -6   4  -2 18033.2 1761.53   6
  -6   4   1 3870.49 864.422   3
  -6   4   2 9450.66 1293.57   3
  -6   4   3 9635.75 1347.40   3
  -6   4   4 1097.58 556.484   3
  -6   5   2 1524.40 636.188   3
  -5 -10  -1 5852.39 943.716   1
  -5 -10   0 12058.1 1394.30   1
  -5 -10   1 65.3079 330.335   4
  -5 -10   1 649.839 481.899   1
  -5 -10   2 5336.05 1012.93   1
  -5 -10   2 5358.70 1010.63   4
  -5 -10   3 4504.02 949.705   4
  -5 -10   3 2752.36 760.559   1
  -5 -10   4 954.782 552.429   4
  -5 -10   5 601.679 508.429   4
  -5  -9  -5 3301.41 678.206   1
  -5  -9  -4 4486.49 767.804   1
  -5  -9  -3 711.638 394.120   1
  -5  -9  -2 5242.14 819.669   1
  -5  -9  -1 6845.94 999.657   1
  -5  -9   0 380.201 391.731   1
  -5  -9   1 11445.9 1304.52   1
  -5  -9   1 11130.5 1335.91   4
  -5  -9   2 2247.01 644.687   4
  -5  -9   2 1174.58 523.936   1
  -5  -9   3 4309.62 886.461   4
  -5  -9   4 8675.45 1131.42   4
  -5  -9   5-522.574 525.001   4
  -5  -8  -7 6427.48 929.849   1
  -5  -8  -6 6262.42 855.515   1
  -5  -8  -5 5270.60 791.277   1
  -5  -8  -4 15861.8 1357.94   1
  -5  -8  -3 2699.31 569.303   1
  -5  -8  -2 18295.5 1498.67   1
  -5  -8  -1 3509.54 703.738   1
  -5  -8   0 13420.0 1343.19   1
  -5  -8   1 438.175 380.696   1
  -5  -8   1 1302.24 505.065   4
  -5  -8   2 11011.4 1201.53   4
  -5  -8   2 12180.0 1317.26   1
  -5  -8   3 35048.8 2006.33   2
  -5  -8   3 36071.9 2185.19   4
  -5  -8   4 6750.39 935.500   4
  -5  -8   4 7087.52 965.126   2
  -5  -8   5-0.94173 342.371   2
  -5  -8   5 166.773 248.102   4
  -5  -8   6 4352.96 832.402   2
  -5  -8   7 4159.24 884.771   2
  -5  -8   8 8596.38 1218.00   2
  -5  -7 -10 703.329 474.927   1
  -5  -7  -9 11177.5 1247.13   1
  -5  -7  -8 6955.39 934.605   1
  -5  -7  -7 421.064 335.683   1
  -5  -7  -6 3450.52 676.397   1
  -5  -7  -5 19072.4 1471.85   1
  -5  -7  -4 11532.6 1170.08   1
  -5  -7  -3 1271.82 434.065   1
  -5  -7  -2 3790.07 694.290   1
  -5  -7  -1 10433.9 1099.72   1
  -5  -7   0 2099.21 543.034   1
  -5  -7   1 12639.8 1248.66   1
  -5  -7   2-42.9030 293.527   4
  -5  -7   3 5569.41 792.699   4
  -5  -7   3 4641.91 749.075   2
  -5  -7   4 4135.05 695.917   4
  -5  -7   4 2902.63 644.014   2
  -5  -7   5 600.668 351.684   4
  -5  -7   5 357.633 405.061   2
  -5  -7   6 3066.67 717.862   2
  -5  -7   7 2490.51 694.913   2
  -5  -7   8 1130.14 560.633   2
  -5  -7   9 703.590 478.700   2
  -5  -6 -11 448.586 324.867   1
  -5  -6 -10 7896.32 1049.91   1
  -5  -6  -9 5262.34 895.620   1
  -5  -6  -8 678.407 385.481   1
  -5  -6  -7 7739.43 971.793   1
  -5  -6  -6 1094.68 350.740   1
  -5  -6  -5 14994.1 1275.28   1
  -5  -6  -4 61716.8 2630.69   1
  -5  -6  -3 35361.1 1928.52   1
  -5  -6  -2 21360.7 863.216   3
  -5  -6  -2 24202.4 1582.85   1
  -5  -6  -1 1784.07 260.120   3
  -5  -6  -1 2695.11 570.379   1
  -5  -6   0 13386.0 784.255   3
  -5  -6   0 18111.2 1409.98   1
  -5  -6   1 37078.3 2057.89   1
  -5  -6   2 22433.0 1511.99   2
  -5  -6   3 47238.2 2315.80   2
  -5  -6   3 47365.6 2124.30   4
  -5  -6   4 312.599 312.670   2
  -5  -6   4 230.470 208.121   4
  -5  -6   5 984.500 424.651   2
  -5  -6   5 56.5535 187.524   4
  -5  -6   6 13166.2 1363.36   2
  -5  -6   7 5134.91 942.164   2
  -5  -6   8 4208.20 876.772   2
  -5  -6   9 4478.24 943.470   2
  -5  -5 -11 5258.40 880.899   1
  -5  -5 -10 10939.5 1252.42   1
  -5  -5  -9 12635.1 1260.30   1
  -5  -5  -8 20226.6 1572.88   1
  -5  -5  -7 617.532 371.300   1
  -5  -5  -6 8583.10 971.534   1
  -5  -5  -5 25044.0 1594.80   1
  -5  -5  -4 27352.2 1648.51   1
  -5  -5  -3 13350.2 1141.50   1
  -5  -5  -2 17215.9 1306.14   1
  -5  -5  -1 2372.87 209.511   3
  -5  -5  -1 1960.72 478.341   1
  -5  -5   0 11369.5 1091.67   1
  -5  -5   1 48364.3 2308.29   1
  -5  -5   2 45533.4 2185.65   2
  -5  -5   3 504.440 344.204   2
  -5  -5   4 8501.05 998.448   2
  -5  -5   5 341.728 369.504   2
  -5  -5   6 12704.2 1304.41   2
  -5  -5   7 2919.02 842.764   2
  -5  -5   8 3417.51 787.445   2
  -5  -5   9 409.643 473.139   2
  -5  -5  10 2284.67 703.489   2
  -5  -4 -11 3256.68 741.128   1
  -5  -4 -10 12829.7 1326.49   1
  -5  -4  -9 17030.9 1478.30   1
  -5  -4  -8 601.883 383.156   1
  -5  -4  -7 35426.3 2007.30   1
  -5  -4  -6 6298.08 844.750   1
  -5  -4  -5 3752.71 655.203   1
  -5  -4  -4 18584.8 1331.21   1
  -5  -4  -3 12918.0 1092.10   1
  -5  -4  -2 12719.7 1075.62   1
  -5  -4  -1 1296.42 411.691   1
  -5  -4   0-146.429 329.425   1
  -5  -4   1 20492.2 1413.78   1
  -5  -4   2 3254.69 634.700   1
  -5  -4   2 2356.42 543.488   2
  -5  -4   3 17819.6 1375.03   2
  -5  -4   4 3406.84 678.799   2
  -5  -4   5 2024.13 552.506   2
  -5  -4   6 69558.2 3150.85   2
  -5  -4   7 16792.4 1569.28   2
  -5  -4   8 749.283 459.263   2
  -5  -4   9 861.635 467.315   2
  -5  -4  10 2683.64 752.041   2
  -5  -3 -10 29463.0 2039.26   1
  -5  -3  -9 9734.43 1133.49   1
  -5  -3  -8 13716.5 1264.50   1
  -5  -3  -7 5028.88 768.828   1
  -5  -3  -6 73834.6 2904.48   1
  -5  -3  -5 218690. 5480.45   1
  -5  -3  -4 49974.1 2185.63   1
  -5  -3  -3 21654.4 1396.21   1
  -5  -3  -2 40030.7 1902.61   1
  -5  -3  -1 8654.54 870.734   1
  -5  -3   0 19374.5 730.849   3
  -5  -3   0 18625.2 1295.43   1
  -5  -3   1 58208.2 2388.08   1
  -5  -3   2 45370.0 2161.20   2
  -5  -3   2 48158.4 2155.72   1
  -5  -3   3 215.765 286.603   2
  -5  -3   4 60.9824 278.330   2
  -5  -3   5 116.039 279.042   2
  -5  -3   6 17321.7 1529.60   2
  -5  -3   7 13771.0 1422.76   2
  -5  -3   8 7692.24 1109.62   2
  -5  -3   9 880.771 476.757   2
  -5  -3  10 1952.35 764.717   2
  -5  -2 -10 11179.6 1293.53   1
  -5  -2  -9 18801.9 1562.93   1
  -5  -2  -8 335.021 371.987   1
  -5  -2  -7 15620.5 1337.18   1
  -5  -2  -6 16487.4 1313.84   1
  -5  -2  -5 1939.62 512.527   1
  -5  -2  -4 36836.1 1860.19   1
  -5  -2  -3 7104.27 788.188   1
  -5  -2  -2 14583.1 1093.32   1
  -5  -2  -1 19098.3 739.714   3
  -5  -2  -1 19272.9 1247.54   1
  -5  -2   0 5694.47 449.683   3
  -5  -2   0 5401.81 685.368   1
  -5  -2   1 10089.8 941.405   1
  -5  -2   1 8991.55 645.774   3
  -5  -2   2 6767.06 825.115   2
  -5  -2   2 6748.78 784.989   1
  -5  -2   2 7297.88 672.603   3
  -5  -2   3 14562.7 1142.87   1
  -5  -2   3 13772.0 1203.60   2
  -5  -2   4 15.1858 272.116   2
  -5  -2   5 8209.64 1001.90   2
  -5  -2   6 37473.6 2238.57   2
  -5  -2   7 4172.01 855.732   2
  -5  -2   8 1942.48 617.508   2
  -5  -2   9 421.984 379.427   2
  -5  -2  10 2614.79 864.034   2
  -5  -1  -9 11015.6 1221.73   1
  -5  -1  -8 16743.1 1427.45   1
  -5  -1  -7 10399.5 1081.76   1
  -5  -1  -6 7396.25 903.671   1
  -5  -1  -5 116254. 3658.15   1
  -5  -1  -4 2259.25 498.149   1
  -5  -1  -3 3913.47 572.840   1
  -5  -1  -2 44217.3 1910.46   1
  -5  -1  -1 29212.9 1170.00   3
  -5  -1  -1 29419.8 1516.42   1
  -5  -1   0 15708.6 882.548   3
  -5  -1   0 15430.1 1081.15   1
  -5  -1   1 28033.6 1303.63   3
  -5  -1   1 27202.8 1447.71   1
  -5  -1   2 3203.89 532.034   1
  -5  -1   3 18424.9 1377.93   2
  -5  -1   3 16256.4 1146.06   1
  -5  -1   3 17458.6 1180.99   3
  -5  -1   4 32652.5 1912.28   2
  -5  -1   4 33869.0 1715.40   1
  -5  -1   4 32952.8 1772.82   3
  -5  -1   5 24691.7 1733.06   2
  -5  -1   5 26165.9 1656.94   3
  -5  -1   6 15030.6 1397.69   2
  -5  -1   6 12774.9 1227.60   3
  -5  -1   7 5688.49 926.217   2
  -5  -1   7 5951.11 704.349   6
  -5  -1   8 5048.90 907.691   2
  -5  -1   9 3092.76 757.848   2
  -5  -1  10 2249.84 690.340   2
  -5   0 -10 11626.4 1035.15   6
  -5   0  -9 16833.1 1241.94   6
  -5   0  -8 22169.3 1673.20   1
  -5   0  -8 20983.5 1406.66   6
  -5   0  -7 47065.7 2354.23   1
  -5   0  -6 59501.8 2583.22   1
  -5   0  -5 5518.23 736.132   1
  -5   0  -4 48800.4 2142.00   1
  -5   0  -3 7756.71 810.125   1
  -5   0  -2 1105.03 385.536   1
  -5   0  -1 1218.54 329.218   1
  -5   0   0 11781.2 912.800   1
  -5   0   1 8719.86 764.429   1
  -5   0   2 1974.07 417.390   3
  -5   0   2 1000.27 309.118   1
  -5   0   3 179.210 250.860   1
  -5   0   3 974.007 417.103   3
  -5   0   4-475.916 342.660   2
  -5   0   4-124.573 237.724   1
  -5   0   4 69.9402 233.427   6
  -5   0   4 289.905 325.944   3
  -5   0   5 456.499 326.056   2
  -5   0   5 434.538 304.916   6
  -5   0   5 231.627 214.135   1
  -5   0   5-172.592 279.374   3
  -5   0   6 44815.8 2442.28   2
  -5   0   6 43132.3 2378.26   3
  -5   0   6 43392.2 2044.41   6
  -5   0   7 3465.63 744.690   2
  -5   0   7 4556.56 630.021   6
  -5   0   7 4045.92 810.121   3
  -5   0   8 11740.6 1350.57   2
  -5   0   8 11034.2 1320.06   3
  -5   0   9 1517.33 544.551   2
  -5   0   9 1877.36 600.452   3
  -5   0  10 4469.13 993.663   3
  -5   0  10 4736.15 1026.04   2
  -5   1 -10 3531.19 610.103   6
  -5   1  -9 5637.63 769.998   6
  -5   1  -8 17020.0 1320.24   6
  -5   1  -7 18745.2 1397.04   6
  -5   1  -6-55.8835 306.314   6
  -5   1  -6-50.1550 258.315   1
  -5   1  -5 41216.3 2115.81   6
  -5   1  -5 45348.9 2142.90   1
  -5   1  -4 4421.80 648.465   1
  -5   1  -4 5222.68 755.872   6
  -5   1  -3 22514.1 1527.64   6
  -5   1  -3 23111.4 1386.90   1
  -5   1  -2 50894.0 2023.76   1
  -5   1  -2 49785.6 2304.04   6
  -5   1  -1 2598.05 445.234   1
  -5   1  -1 2604.39 557.641   6
  -5   1  -1 2667.83 498.268   3
  -5   1   0 212.456 191.379   1
  -5   1   0 198.506 230.278   3
  -5   1   0 811.440 349.858   6
  -5   1   1 15389.7 971.149   1
  -5   1   1 13762.5 1196.06   6
  -5   1   1 16415.9 1190.56   3
  -5   1   2 600.830 239.234   1
  -5   1   2 606.249 333.863   6
  -5   1   2 886.496 383.945   3
  -5   1   3 1960.44 361.649   1
  -5   1   3 1822.05 484.120   6
  -5   1   3 2635.90 539.512   3
  -5   1   4 10156.6 1064.64   3
  -5   1   4 10702.2 840.912   1
  -5   1   4 9227.18 996.954   6
  -5   1   5 4037.30 748.051   2
  -5   1   5 3421.26 703.414   3
  -5   1   5 4425.61 707.781   6
  -5   1   5 3717.76 546.264   1
  -5   1   6 5259.82 860.556   3
  -5   1   6 5301.85 759.317   6
  -5   1   6 3941.11 797.358   2
  -5   1   7 58.7895 341.953   2
  -5   1   7 418.524 296.333   6
  -5   1   7 131.803 354.232   3
  -5   1   8 6818.62 1038.66   2
  -5   1   8 8368.95 1187.78   3
  -5   1   9 7090.90 1099.07   3
  -5   1   9 7561.82 1171.79   2
  -5   1  10 4701.35 1009.43   2
  -5   2  -9 5992.96 830.209   6
  -5   2  -8 23709.7 1664.63   6
  -5   2  -7 28220.4 1811.90   6
  -5   2  -6 14517.0 1289.53   6
  -5   2  -5 859.618 407.260   6
  -5   2  -4 17977.5 1446.12   6
  -5   2  -4 19718.2 1334.48   1
  -5   2  -3 62103.6 2796.35   6
  -5   2  -3 67527.9 2449.17   1
  -5   2  -2 14939.0 1043.74   1
  -5   2  -2 13217.2 1246.41   6
  -5   2  -1 3725.34 498.827   1
  -5   2  -1 4307.12 759.881   6
  -5   2   0 1764.01 353.838   1
  -5   2   0 1855.44 526.378   6
  -5   2   0 1527.72 436.840   3
  -5   2   1 12677.4 1215.68   6
  -5   2   1 14407.3 867.932   1
  -5   2   1 12002.2 1126.33   3
  -5   2   2 12934.5 787.093   1
  -5   2   2 13742.3 1243.35   3
  -5   2   2 11540.4 1166.07   6
  -5   2   3 13260.0 1281.16   3
  -5   2   3 15690.1 1355.43   6
  -5   2   4 1231.79 528.477   3
  -5   2   4 706.573 386.608   6
  -5   2   5 2828.10 681.872   3
  -5   2   5 2348.18 557.876   6
  -5   2   6 14328.0 1418.28   2
  -5   2   6 16743.7 1598.35   3
  -5   2   7-47.6642 345.041   2
  -5   2   7-761.963 458.159   3
  -5   2   8 1009.98 510.639   2
  -5   2   8 1915.54 675.257   3
  -5   2   9 4537.36 968.060   2
  -5   2   9 2817.71 872.161   3
  -5   2  10 3175.97 792.598   2
  -5   3  -7 17007.6 1505.41   6
  -5   3  -6 1582.52 575.133   6
  -5   3  -5 2505.44 628.216   6
  -5   3  -4 723.726 359.035   6
  -5   3  -3 1060.72 495.185   6
  -5   3  -2 25008.7 1807.56   6
  -5   3  -1 127.063 266.593   6
  -5   3   0 333.379 288.738   3
  -5   3   0 142.449 371.290   6
  -5   3   0 253.635 192.395   1
  -5   3   1 8522.85 1032.44   3
  -5   3   1 10154.2 1197.84   6
  -5   3   2 5085.62 858.654   6
  -5   3   2 6871.75 956.990   3
  -5   3   3 1049.23 469.786   3
  -5   3   3 1048.15 493.834   6
  -5   3   4 4473.95 830.933   3
  -5   3   5 1302.12 593.013   3
  -5   3   6 14164.1 1522.95   3
  -5   3   7 4543.70 972.089   3
  -5   3   8 11453.2 1509.59   3
  -5   4   1 2033.77 605.499   3
  -5   4   2 6990.22 1073.53   3
  -5   4   3 16590.7 1631.07   3
  -5   4   4-470.394 481.227   3
  -5   4   5 488.388 396.388   3
  -5   4   6 12556.2 1544.01   3
  -5   5   2 3409.95 822.717   3
  -5   5   3 2850.03 816.233   3
  -5   5   4 2141.69 699.526   3
  -4 -10  -1 13343.4 1582.61   4
  -4 -10   0 937.726 576.536   4
  -4 -10   1 3723.46 897.470   4
  -4 -10   1 3983.82 803.941   1
  -4 -10   2 118.365 436.337   1
  -4 -10   2 114.250 328.234   4
  -4 -10   3 5191.50 1003.40   4
  -4 -10   4 3613.63 860.486   4
  -4 -10   5-185.128 406.694   4
  -4 -10   6 5633.37 1044.58   4
  -4  -9  -3 1645.98 434.438   1
  -4  -9  -2 5006.89 744.121   1
  -4  -9  -1 3620.37 830.041   4
  -4  -9  -1 2750.21 598.315   1
  -4  -9   0 4710.45 907.829   4
  -4  -9   0 6501.65 934.422   1
  -4  -9   1 3236.07 741.119   4
  -4  -9   1 4657.37 807.648   1
  -4  -9   2 10849.7 1312.99   4
  -4  -9   2 12068.9 1308.44   1
  -4  -9   3 5237.46 954.719   4
  -4  -9   4 15323.4 1545.68   4
  -4  -9   5 2573.77 732.939   4
  -4  -9   6 1515.63 623.630   4
  -4  -9   7 57.5179 343.008   4
  -4  -8  -5 35.7416 242.367   1
  -4  -8  -4 679.017 415.891   1
  -4  -8  -3 6807.10 847.140   1
  -4  -8  -2 7445.94 911.862   1
  -4  -8  -1 10601.3 1081.08   1
  -4  -8  -1 11600.2 1279.29   4
  -4  -8   0 245.004 362.289   4
  -4  -8   0 375.392 350.420   1
  -4  -8   1 15201.4 1438.45   4
  -4  -8   1 17662.5 1457.40   1
  -4  -8   2 5911.55 899.467   4
  -4  -8   3 14110.7 1382.97   4
  -4  -8   3 15792.3 1208.27   2
  -4  -8   4 19164.1 1430.77   2
  -4  -8   4 17157.8 1531.89   4
  -4  -8   5 807.535 400.244   4
  -4  -8   5 376.410 349.651   2
  -4  -8   6 21637.4 1710.69   2
  -4  -8   6 19629.7 1618.77   4
  -4  -8   7 2326.50 658.037   2
  -4  -8   7 744.860 358.543   4
  -4  -8   8 4021.61 870.501   2
  -4  -8   9 2790.56 751.995   2
  -4  -7  -8 4317.87 728.848   1
  -4  -7  -7 5104.67 722.053   1
  -4  -7  -6 219.230 288.185   1
  -4  -7  -5 18272.9 1322.51   1
  -4  -7  -4 4.52766 286.851   1
  -4  -7  -3 2992.07 542.351   1
  -4  -7  -2 15416.7 1209.58   1
  -4  -7  -1 11873.7 1192.83   4
  -4  -7  -1 10286.1 1019.11   1
  -4  -7   0 4333.35 731.059   4
  -4  -7   0 4433.89 717.275   1
  -4  -7   1 12390.5 1190.97   4
  -4  -7   1 10428.1 1060.46   1
  -4  -7   2 8361.61 991.083   4
  -4  -7   2 6683.74 771.122   2
  -4  -7   3 8801.61 995.667   4
  -4  -7   3 8913.60 928.384   2
  -4  -7   4 9712.13 1019.50   2
  -4  -7   4 9223.99 1010.74   4
  -4  -7   5 16273.1 1345.79   4
  -4  -7   5 18594.7 1483.55   2
  -4  -7   6 28444.8 1777.73   4
  -4  -7   6 27461.9 1900.97   2
  -4  -7   7 3474.00 624.674   4
  -4  -7   7 3467.26 764.174   2
  -4  -7   8 2376.16 724.571   2
  -4  -7   9 4718.11 881.902   2
  -4  -7  10 5625.16 1047.99   2
  -4  -6 -10 3955.58 745.306   1
  -4  -6  -9 304.261 294.875   1
  -4  -6  -8 801.570 374.293   1
  -4  -6  -7 811.899 397.568   1
  -4  -6  -6 28959.7 1674.25   1
  -4  -6  -5 7013.07 800.297   1
  -4  -6  -4 14296.0 1125.04   1
  -4  -6  -3 26457.8 1535.36   1
  -4  -6  -3 22942.9 1110.31   3
  -4  -6  -2 12910.3 798.069   3
  -4  -6  -2 13106.6 1079.39   1
  -4  -6  -1 9667.58 693.775   3
  -4  -6  -1 12132.5 1060.92   1
  -4  -6   0 2265.62 477.842   1
  -4  -6   0 2872.27 553.685   4
  -4  -6   1 38056.8 1931.06   4
  -4  -6   2 45716.8 1998.12   2
  -4  -6   2 45591.4 2090.51   4
  -4  -6   3 13560.0 1115.96   4
  -4  -6   3 16305.4 1219.50   2
  -4  -6   4 4075.25 635.218   4
  -4  -6   4 4416.10 690.023   2
  -4  -6   5 10287.0 953.688   4
  -4  -6   5 11602.7 1141.37   2
  -4  -6   6 24062.7 1468.31   4
  -4  -6   6 24823.2 1760.64   2
  -4  -6   7 2930.10 521.232   4
  -4  -6   7 3435.91 720.682   2
  -4  -6   8 6326.57 975.204   2
  -4  -6   9-276.286 406.198   2
  -4  -6  10 746.128 518.967   2
  -4  -5 -10 17309.5 1453.49   1
  -4  -5  -9 1946.79 546.237   1
  -4  -5  -8-213.793 296.823   1
  -4  -5  -7 4364.42 688.869   1
  -4  -5  -6 1548.09 458.170   1
  -4  -5  -5 52439.1 2198.29   1
  -4  -5  -4 2123.90 490.249   1
  -4  -5  -3 5153.67 657.339   1
  -4  -5  -2 47240.7 1366.56   3
  -4  -5  -2 48028.2 2059.68   1
  -4  -5  -1 66077.6 1725.55   3
  -4  -5  -1 68971.8 2548.39   1
  -4  -5   0 17469.1 868.033   3
  -4  -5   0 18498.3 1266.24   1
  -4  -5   1 56395.6 2190.69   4
  -4  -5   1 57721.7 2163.46   2
  -4  -5   2 24388.0 1412.13   2
  -4  -5   2 23172.6 1317.45   4
  -4  -5   3 49457.8 2161.68   2
  -4  -5   3 51314.0 1991.13   4
  -4  -5   4 19381.1 1387.67   2
  -4  -5   4 20567.7 1202.30   4
  -4  -5   5 12949.9 1164.70   2
  -4  -5   5 13108.6 958.100   4
  -4  -5   6 34238.8 2051.02   2
  -4  -5   6 37353.9 1647.76   4
  -4  -5   7 6447.04 947.615   2
  -4  -5   8 4421.30 838.738   2
  -4  -5   9 4532.72 858.494   2
  -4  -5  10 1899.61 696.071   2
  -4  -4 -10 17483.1 1449.46   1
  -4  -4  -9 423.666 389.497   1
  -4  -4  -8 2988.15 595.994   1
  -4  -4  -7 487.841 333.212   1
  -4  -4  -6 34201.3 1790.51   1
  -4  -4  -5 17869.0 1237.10   1
  -4  -4  -4 6346.17 734.867   1
  -4  -4  -3 25202.0 1419.31   1
  -4  -4  -2 899.830 318.415   1
  -4  -4  -1 40939.1 1828.24   1
  -4  -4  -1 38418.9 953.822   3
  -4  -4   0 41214.2 1846.81   1
  -4  -4   1 44419.1 1963.74   1
  -4  -4   1 42373.3 1807.66   2
  -4  -4   2 27953.6 1517.06   2
  -4  -4   3 28315.9 1280.95   4
  -4  -4   3 31027.1 1661.36   2
  -4  -4   4 33749.6 1839.39   2
  -4  -4   4 33250.6 1355.38   4
  -4  -4   5 4905.97 733.186   2
  -4  -4   5 4272.60 464.195   4
  -4  -4   6 58018.6 2673.95   2
  -4  -4   6 55879.1 1776.34   4
  -4  -4   7 4675.53 827.394   2
  -4  -4   8 4752.61 856.552   2
  -4  -4   9 1063.71 492.241   2
  -4  -4  10 1274.69 587.162   2
  -4  -4  11 14934.6 1670.24   2
  -4  -3  -9 1358.21 504.668   1
  -4  -3  -8 137.039 288.626   1
  -4  -3  -7 13922.9 1182.85   1
  -4  -3  -6 14874.2 1162.80   1
  -4  -3  -5 167081. 4373.88   1
  -4  -3  -4 51519.2 2063.46   1
  -4  -3  -3 16875.7 1118.85   1
  -4  -3  -2 5956.42 665.206   1
  -4  -3  -1 52309.7 2037.44   1
  -4  -3   0 69749.4 2408.17   1
  -4  -3   1 114746. 3298.32   2
  -4  -3   1 121463. 3372.65   1
  -4  -3   2 393.745 281.045   2
  -4  -3   3 920.052 339.870   2
  -4  -3   4 8470.75 905.229   2
  -4  -3   5 7174.58 870.058   2
  -4  -3   6 44104.1 2282.81   2
  -4  -3   7 3290.08 727.010   2
  -4  -3   8 13501.1 1392.49   2
  -4  -3   9 5651.83 917.775   2
  -4  -3  10 4702.67 911.459   2
  -4  -3  11 4560.26 963.756   2
  -4  -2  -9 1044.04 441.784   1
  -4  -2  -8 6068.94 827.005   1
  -4  -2  -7 2516.54 533.806   1
  -4  -2  -6 19434.1 1333.06   1
  -4  -2  -5 62841.2 2407.25   1
  -4  -2  -4 34025.9 1644.30   1
  -4  -2  -3 310137. 6411.69   1
  -4  -2  -2 9715.51 833.453   1
  -4  -2  -1 64475.4 1333.40   3
  -4  -2  -1 70159.7 2299.35   1
  -4  -2   0 143968. 3608.69   1
  -4  -2   0 138529. 2735.19   3
  -4  -2   1 178275. 4254.27   1
  -4  -2   2 8344.80 793.698   2
  -4  -2   3 20155.4 1310.84   2
  -4  -2   4 17221.9 1275.78   2
  -4  -2   5 26333.7 1643.38   2
  -4  -2   6 50606.1 2442.05   2
  -4  -2   7 354.518 364.392   2
  -4  -2   8 505.989 296.601   2
  -4  -2   9 241.586 381.286   2
  -4  -2  10 3423.24 778.752   2
  -4  -2  11 27836.5 2242.96   2
  -4  -1  -8 1129.67 447.534   1
  -4  -1  -7 15129.3 1240.60   1
  -4  -1  -6 20416.5 1372.55   1
  -4  -1  -5 33202.4 1693.03   1
  -4  -1  -4 21865.7 1298.33   1
  -4  -1  -3 3492.31 529.387   1
  -4  -1  -2 41161.4 1687.81   1
  -4  -1  -1 60455.4 1596.81   3
  -4  -1  -1 64816.8 2132.15   1
  -4  -1   0 41688.7 1339.95   3
  -4  -1   0 41921.7 1656.92   1
  -4  -1   1 115837. 2815.41   3
  -4  -1   1 117288. 3094.19   1
  -4  -1   2 14505.5 914.722   3
  -4  -1   2 14638.7 1069.80   2
  -4  -1   2 11974.1 895.547   1
  -4  -1   3 731.553 307.349   2
  -4  -1   4 20561.8 1378.76   2
  -4  -1   5 21163.1 1481.92   2
  -4  -1   6 32522.2 1919.98   2
  -4  -1   7 8707.65 1034.15   2
  -4  -1   7 9967.04 779.740   6
  -4  -1   8 277.366 298.387   2
  -4  -1   9 681.536 419.486   2
  -4  -1  10 12094.1 1442.97   2
  -4  -1  11 2141.76 715.378   2
  -4   0  -7 40899.7 2085.64   1
  -4   0  -6 54850.7 2326.78   1
  -4   0  -5 41927.6 1917.13   1
  -4   0  -4 2744.16 496.700   1
  -4   0  -3 89834.1 2720.76   1
  -4   0  -2 14133.9 953.035   1
  -4   0  -1 34619.9 1460.18   1
  -4   0  -1 35172.6 1341.55   3
  -4   0   0 84589.7 2365.72   3
  -4   0   0 84099.5 2400.09   1
  -4   0   1 143394. 3501.03   3
  -4   0   1 145364. 3424.26   1
  -4   0   2 7531.45 659.980   1
  -4   0   3 4230.93 635.226   2
  -4   0   3 5865.24 585.740   1
  -4   0   4 7028.14 813.704   2
  -4   0   4 6662.84 700.788   6
  -4   0   4 6927.11 793.436   3
  -4   0   5 31706.9 1545.54   6
  -4   0   5 33541.0 1849.24   3
  -4   0   5 33531.3 1852.40   2
  -4   0   6 133273. 4268.96   3
  -4   0   6 134421. 3572.56   6
  -4   0   6 139471. 4302.53   2
  -4   0   7 6439.00 917.677   2
  -4   0   7 7035.01 700.741   6
  -4   0   8 3284.01 664.704   2
  -4   0   9 2495.11 674.727   2
  -4   0  10 8587.50 1207.43   2
  -4   0  11 23252.5 2042.78   2
  -4   1 -10 19985.1 1242.42   6
  -4   1  -9 8.31294 194.686   6
  -4   1  -8 10783.9 939.618   6
  -4   1  -7 17587.7 1202.18   6
  -4   1  -6 57946.9 2432.59   1
  -4   1  -6 54723.2 2201.81   6
  -4   1  -5 69449.1 2553.64   6
  -4   1  -5 75653.7 2694.21   1
  -4   1  -4 26517.8 1455.97   1
  -4   1  -4 26064.0 1471.36   6
  -4   1  -3 26186.8 1380.97   1
  -4   1  -3 27894.5 1522.34   6
  -4   1  -2 66330.1 2181.34   1
  -4   1  -1 63757.4 2026.55   1
  -4   1   0 82.5630 176.690   1
  -4   1   1 11130.0 721.588   1
  -4   1   1 9815.71 921.553   6
  -4   1   2 2467.19 349.254   1
  -4   1   2 2192.56 473.752   6
  -4   1   2 2907.13 532.844   3
  -4   1   3 7589.82 821.202   2
  -4   1   3 6957.50 807.922   3
  -4   1   3 7197.17 590.972   1
  -4   1   3 6208.74 726.252   6
  -4   1   4 1632.49 328.815   1
  -4   1   4 2537.31 541.969   2
  -4   1   4 1820.23 432.843   6
  -4   1   4 965.284 369.085   3
  -4   1   5 3087.35 600.552   2
  -4   1   5 3262.28 632.363   3
  -4   1   5 2903.11 431.598   1
  -4   1   5 2556.84 487.826   6
  -4   1   6 2467.69 606.565   3
  -4   1   6 2874.86 647.748   2
  -4   1   6 3264.80 545.640   6
  -4   1   7 1986.33 544.213   2
  -4   1   7 3456.97 535.537   6
  -4   1   7 2266.42 606.206   3
  -4   1   8 538.996 442.943   3
  -4   1   8 999.398 483.423   2
  -4   1   9 1173.78 579.644   3
  -4   1   9 1545.95 602.056   2
  -4   1  10 9390.33 1295.06   2
  -4   1  10 9696.36 1319.68   3
  -4   1  11 2048.01 701.181   2
  -4   2  -8 6516.46 767.945   6
  -4   2  -7 13557.7 1135.52   6
  -4   2  -6 18619.9 1329.13   6
  -4   2  -5 15708.2 1211.33   6
  -4   2  -4 2395.41 468.183   1
  -4   2  -4 980.376 348.452   6
  -4   2  -3 46027.7 2150.51   6
  -4   2  -3 45348.4 1856.09   1
  -4   2  -2 30822.5 1399.48   1
  -4   2  -2 28310.4 1662.36   6
  -4   2  -1 41916.7 1560.39   1
  -4   2   0 36902.6 1912.29   6
  -4   2   0 38400.7 1847.15   3
  -4   2   0 38317.9 1395.10   1
  -4   2   1 31510.6 1681.17   3
  -4   2   1 30119.2 1725.55   6
  -4   2   1 30496.9 1157.10   1
  -4   2   2 4882.24 420.685   1
  -4   2   2 4279.76 686.022   6
  -4   2   2 5467.45 747.717   3
  -4   2   3 8406.15 549.402   1
  -4   2   3 7482.26 862.570   6
  -4   2   3 6405.15 846.523   3
  -4   2   4 14090.0 1270.01   3
  -4   2   4 13670.0 1162.68   6
  -4   2   4 14213.7 755.533   1
  -4   2   5 359.827 341.398   2
  -4   2   5 354.959 166.805   1
  -4   2   5 1171.03 512.727   3
  -4   2   5 233.342 273.106   6
  -4   2   6 32426.8 1920.46   2
  -4   2   6 31556.0 2095.78   3
  -4   2   7 2540.98 597.613   2
  -4   2   7 482.124 422.282   3
  -4   2   8 1112.36 482.938   2
  -4   2   8 1128.80 496.452   3
  -4   2   9 1904.54 603.550   3
  -4   2   9 2413.02 735.216   2
  -4   2  10 8474.46 1214.30   2
  -4   2  10 7788.18 1277.60   3
  -4   2  11 8912.07 1288.82   2
  -4   3  -6 11147.5 1107.34   6
  -4   3  -5 31557.1 1874.25   6
  -4   3  -4 5863.37 811.109   6
  -4   3  -3 17118.9 1365.42   6
  -4   3  -2 25850.3 1690.28   6
  -4   3  -1 65225.3 2763.59   6
  -4   3   0 11391.9 1093.19   3
  -4   3   0 11826.5 1139.03   6
  -4   3   1 26024.1 1678.06   6
  -4   3   1 23392.1 904.777   1
  -4   3   1 27163.6 1719.58   3
  -4   3   2 1156.90 168.717   1
  -4   3   2 2244.47 541.339   6
  -4   3   2 2560.50 603.814   3
  -4   3   3 19239.8 1511.20   3
  -4   3   3 17542.2 1397.19   6
  -4   3   4 5701.46 872.264   3
  -4   3   5 17277.0 1553.63   3
  -4   3   6 9567.41 1033.13   2
  -4   3   6 9477.89 1217.08   3
  -4   3   7-156.839 304.754   2
  -4   3   7 371.668 374.357   3
  -4   3   8 5150.87 850.365   2
  -4   3   8 6169.30 1052.98   3
  -4   3   9 490.292 458.388   2
  -4   3   9 1726.44 725.753   3
  -4   4   1 8520.79 1035.53   3
  -4   4   2 561.496 321.015   3
  -4   4   3 684.779 477.330   3
  -4   4   4 2825.03 672.910   3
  -4   4   5 1275.75 587.327   3
  -4   4   6 5718.33 978.605   3
  -4   4   7-229.230 453.016   3
  -4   4   8 4025.65 883.166   3
  -4   5   1 15657.5 1511.64   3
  -4   5   2 2177.65 720.162   3
  -4   5   3 5797.08 1002.34   3
  -4   5   4 1523.18 555.328   3
  -4   5   5 2679.43 780.570   3
  -4   5   6 5598.44 1056.66   3
  -4   6   2 242.282 341.830   3
  -4   6   3-269.627 450.962   3
  -4   6   4-150.481 432.814   3
  -3 -10  -3 3385.72 879.542   4
  -3 -10  -2 3194.12 801.776   4
  -3 -10  -1 3019.59 829.754   4
  -3 -10   0 908.965 555.983   4
  -3 -10   1-265.277 400.589   4
  -3 -10   2 3719.21 878.725   4
  -3 -10   3 465.830 394.740   4
  -3 -10   4 5490.86 1076.07   4
  -3 -10   5-789.655 531.467   4
  -3  -9  -3 2531.66 709.034   4
  -3  -9  -2 6692.83 1093.80   4
  -3  -9  -1 7697.36 1152.27   4
  -3  -9   0 38.0168 335.171   4
  -3  -9   0 74.9218 323.573   1
  -3  -9   1 7519.81 959.754   1
  -3  -9   1 10863.7 1328.16   4
  -3  -9   2 2547.20 726.270   4
  -3  -9   3 11181.1 1353.42   4
  -3  -9   4 4285.31 876.261   4
  -3  -9   5 78.8295 420.011   4
  -3  -9   6 3520.96 798.555   4
  -3  -9   7 897.568 450.171   4
  -3  -9   8 2847.82 717.565   4
  -3  -8  -3 7947.35 1132.61   4
  -3  -8  -3 8873.58 871.495   1
  -3  -8  -2 7327.05 1046.19   4
  -3  -8  -2 7932.66 865.970   1
  -3  -8  -1 7839.90 1074.92   4
  -3  -8  -1 6359.07 817.863   1
  -3  -8   0 2044.33 608.957   4
  -3  -8   0 1415.32 444.625   1
  -3  -8   1-275.130 337.650   4
  -3  -8   2 7628.35 1024.92   4
  -3  -8   3 15400.3 1475.59   4
  -3  -8   4 8462.87 1089.10   4
  -3  -8   5 676.945 386.629   4
  -3  -8   5 663.676 273.514   2
  -3  -8   6 7398.71 1045.27   4
  -3  -8   6 9052.80 1050.47   2
  -3  -8   7 2491.65 649.490   4
  -3  -8   7 3508.12 743.341   2
  -3  -8   8 7261.03 1070.86   2
  -3  -8   8 6610.82 981.191   4
  -3  -8   9 5154.87 951.482   2
  -3  -8  10 599.862 402.111   2
  -3  -7  -6 13743.0 1048.03   1
  -3  -7  -5 6245.58 724.385   1
  -3  -7  -4 3970.04 570.918   1
  -3  -7  -3 3770.26 553.264   1
  -3  -7  -2 11903.9 1228.32   4
  -3  -7  -2 12432.8 1009.01   1
  -3  -7  -1 16641.0 1418.27   4
  -3  -7  -1 17079.3 1229.04   1
  -3  -7   0 255.182 328.245   1
  -3  -7   0 186.828 273.064   4
  -3  -7   1 3269.75 649.405   4
  -3  -7   2 6814.27 666.552   2
  -3  -7   2 6044.10 841.610   4
  -3  -7   3 28889.1 1510.97   2
  -3  -7   3 28549.0 1837.53   4
  -3  -7   4 44883.8 2064.89   2
  -3  -7   4 43072.3 2271.46   4
  -3  -7   5 1809.72 467.793   2
  -3  -7   5 2247.32 590.754   4
  -3  -7   6 22754.4 1614.49   2
  -3  -7   6 23387.8 1664.14   4
  -3  -7   7 4446.00 745.765   4
  -3  -7   7 6419.60 910.714   2
  -3  -7   8 21429.4 1625.93   4
  -3  -7   8 21562.2 1764.38   2
  -3  -7   9 11015.4 1326.82   2
  -3  -7  10 13904.8 1526.57   2
  -3  -6  -9 845.006 371.382   1
  -3  -6  -8 16007.2 1201.43   1
  -3  -6  -7 12051.1 1017.64   1
  -3  -6  -6 1157.28 375.653   1
  -3  -6  -5 19334.6 1202.11   1
  -3  -6  -4 760.546 304.320   1
  -3  -6  -3 24136.9 1337.99   1
  -3  -6  -2 606.942 380.813   4
  -3  -6  -2 1515.98 397.850   1
  -3  -6  -1 1698.81 410.629   1
  -3  -6  -1 1443.90 423.059   4
  -3  -6   0 718.431 344.631   1
  -3  -6   0 1502.77 457.056   4
  -3  -6   1 12368.6 830.335   2
  -3  -6   1 11844.4 1060.12   4
  -3  -6   2 5312.99 730.904   4
  -3  -6   2 5194.59 605.507   2
  -3  -6   3 8400.52 807.849   2
  -3  -6   3 9081.60 925.349   4
  -3  -6   4 629.273 302.739   4
  -3  -6   4 589.509 324.407   2
  -3  -6   5 353.593 312.645   2
  -3  -6   5 354.710 245.281   4
  -3  -6   6 10687.4 1097.14   2
  -3  -6   6 10112.3 998.529   4
  -3  -6   7 8895.66 1052.85   2
  -3  -6   7 6968.96 830.531   4
  -3  -6   8 24256.1 1838.89   2
  -3  -6   8 27972.6 1697.38   4
  -3  -6   9 14118.5 1483.06   2
  -3  -6  10 726.708 511.672   2
  -3  -6  11 7098.66 1134.64   2
  -3  -5  -9 648.818 378.078   1
  -3  -5  -8 8571.03 886.840   1
  -3  -5  -7 236.324 284.688   1
  -3  -5  -6 2996.43 504.782   1
  -3  -5  -5 353.304 242.465   1
  -3  -5  -4 14989.6 1025.87   1
  -3  -5  -3 35098.5 1384.64   3
  -3  -5  -3 35264.1 1588.40   1
  -3  -5  -2 23777.6 1080.63   3
  -3  -5  -2 26222.3 1353.69   1
  -3  -5  -1 38231.4 1803.56   4
  -3  -5  -1 37525.0 1376.55   3
  -3  -5  -1 35756.3 1640.79   1
  -3  -5   0 9610.21 887.054   4
  -3  -5   0 9675.55 851.391   1
  -3  -5   0 9550.59 687.804   3
  -3  -5   1 30814.7 1362.86   2
  -3  -5   1 31381.1 1565.15   4
  -3  -5   2 21074.2 1165.13   2
  -3  -5   2 20782.7 1268.45   4
  -3  -5   3 49920.8 2010.37   4
  -3  -5   3 50310.4 2000.26   2
  -3  -5   4 68634.8 2525.55   2
  -3  -5   4 68385.7 2390.11   4
  -3  -5   5 14016.7 1016.50   4
  -3  -5   5 12372.3 1065.88   2
  -3  -5   6 19670.4 1444.49   2
  -3  -5   6 21284.4 1289.77   4
  -3  -5   7 1654.84 499.542   2
  -3  -5   7 1434.49 358.559   4
  -3  -5   8 19516.2 1634.76   2
  -3  -5   8 18480.8 1252.47   4
  -3  -5   9 16898.1 1573.37   2
  -3  -5  10 16966.6 1653.02   2
  -3  -5  11 472.437 499.977   2
  -3  -4  -9 736.018 432.142   1
  -3  -4  -8 18669.1 1349.98   1
  -3  -4  -7 31767.7 1674.57   1
  -3  -4  -6 1391.52 376.574   1
  -3  -4  -5 16561.6 1086.05   1
  -3  -4  -4 1230.45 334.912   1
  -3  -4  -3 34567.9 1516.67   1
  -3  -4  -2 3925.31 344.583   3
  -3  -4  -2 4348.57 561.564   1
  -3  -4  -1 249.124 284.159   1
  -3  -4  -1 248.441 135.076   3
  -3  -4   0 7124.27 692.508   1
  -3  -4   0 7410.72 722.335   4
  -3  -4   1 117239. 3046.42   2
  -3  -4   1 122560. 3112.40   4
  -3  -4   2 38312.2 1533.49   4
  -3  -4   2 38447.3 1619.86   2
  -3  -4   3 13500.9 983.103   2
  -3  -4   3 11927.2 811.516   4
  -3  -4   4 29366.0 1550.64   2
  -3  -4   4 29483.2 1303.91   4
  -3  -4   5 26899.1 1569.08   2
  -3  -4   5 27949.5 1269.47   4
  -3  -4   6 74053.8 2901.93   2
  -3  -4   6 75922.2 2299.89   4
  -3  -4   7 3438.89 649.362   2
  -3  -4   7 3970.84 504.886   4
  -3  -4   8 17666.4 1499.66   2
  -3  -4   8 14943.9 966.633   4
  -3  -4   9 14537.2 1447.07   2
  -3  -4  10 3940.03 841.012   2
  -3  -4  11 8640.92 1240.44   2
  -3  -3  -8 7816.50 868.626   1
  -3  -3  -7 7698.13 827.932   1
  -3  -3  -6 26334.1 1439.37   1
  -3  -3  -5 2400.26 445.168   1
  -3  -3  -4 13077.2 920.656   1
  -3  -3  -3 7248.21 674.910   1
  -3  -3  -2 6230.63 604.329   1
  -3  -3  -1 32880.1 787.699   3
  -3  -3  -1 31988.8 1416.10   1
  -3  -3   0 464.110 230.023   1
  -3  -3   1 74093.7 2230.62   2
  -3  -3   1 69164.0 2004.07   4
  -3  -3   2 1100.98 312.841   2
  -3  -3   2 1661.07 271.176   4
  -3  -3   3 20983.9 1212.98   2
  -3  -3   3 20495.3 912.794   4
  -3  -3   4 5639.13 453.207   4
  -3  -3   4 5643.87 671.510   2
  -3  -3   5 39901.1 1919.79   2
  -3  -3   5 41320.6 1337.14   4
  -3  -3   6 95013.2 2301.66   4
  -3  -3   6 92546.3 3264.75   2
  -3  -3   7 16862.8 1382.99   2
  -3  -3   7 17942.0 868.244   4
  -3  -3   8 17141.9 1459.38   2
  -3  -3   9 11467.9 1257.20   2
  -3  -3  10 13008.5 1459.77   2
  -3  -3  11 4384.21 888.099   2
  -3  -3  12-121.346 361.598   2
  -3  -2  -8 12593.5 1089.57   1
  -3  -2  -7 20205.1 1313.19   1
  -3  -2  -6 40321.7 1824.34   1
  -3  -2  -5 55358.1 2063.62   1
  -3  -2  -4 26948.5 1321.76   1
  -3  -2  -3 122664. 3125.97   1
  -3  -2  -2 173554. 3899.21   1
  -3  -2  -1 8590.99 689.572   1
  -3  -2   0 14463.6 888.483   1
  -3  -2   1 105348. 2792.08   2
  -3  -2   2 160971. 3830.70   2
  -3  -2   3 15369.2 1033.96   2
  -3  -2   4 32954.3 892.000   4
  -3  -2   4 39183.9 1758.74   2
  -3  -2   5 14310.5 1099.51   2
  -3  -2   5 12896.2 478.977   4
  -3  -2   6 59719.8 2494.47   2
  -3  -2   6 57907.8 1281.40   4
  -3  -2   7 2560.20 219.504   4
  -3  -2   7 2448.97 571.692   2
  -3  -2   8 7308.85 957.072   2
  -3  -2   9 11299.1 1230.75   2
  -3  -2  10 20336.3 1735.33   2
  -3  -2  11 19123.4 1785.63   2
  -3  -2  12 3831.47 884.063   2
  -3  -1  -7 14750.2 1141.58   1
  -3  -1  -6 34133.2 1689.49   1
  -3  -1  -5 13255.3 997.243   1
  -3  -1  -4 101794. 2882.85   1
  -3  -1  -3 15.0356 269.046   1
  -3  -1  -2 9459.41 719.071   1
  -3  -1  -1 326321. 6108.56   1
  -3  -1  -1 327579. 5343.83   3
  -3  -1   0 33282.5 998.846   3
  -3  -1   0 33315.2 1310.48   1
  -3  -1   1 56314.6 1879.34   2
  -3  -1   1 53075.2 1744.81   1
  -3  -1   1 55374.5 1568.50   3
  -3  -1   2 354.940 311.742   2
  -3  -1   3 124524. 3354.51   2
  -3  -1   4 43480.3 1875.57   2
  -3  -1   5 22984.7 1414.20   2
  -3  -1   6 58288.7 2442.42   2
  -3  -1   7 493.628 318.809   2
  -3  -1   7 1070.85 238.359   6
  -3  -1   8 8671.25 1020.17   2
  -3  -1   9 4464.15 782.534   2
  -3  -1  10 7880.65 1070.65   2
  -3  -1  11 5361.61 1003.53   2
  -3  -1  12 971.466 479.997   2
  -3   0  -9 85.2945 133.912   6
  -3   0  -8 8804.81 680.580   6
  -3   0  -7 3681.10 452.139   6
  -3   0  -6 35454.9 1745.64   1
  -3   0  -5 18922.4 1187.26   1
  -3   0  -4 7153.24 696.715   1
  -3   0  -3 527.719 306.530   1
  -3   0  -2 23145.8 1113.26   1
  -3   0  -1 142733. 3227.67   1
  -3   0  -1 150170. 3075.02   3
  -3   0   0 114382. 2665.96   1
  -3   0   0 113829. 2612.29   3
  -3   0   1 61238.8 1832.59   3
  -3   0   1 59348.6 1743.29   1
  -3   0   2 10263.9 679.488   1
  -3   0   2 10841.9 777.388   3
  -3   0   2 10855.2 807.028   2
  -3   0   3 36774.9 1621.67   2
  -3   0   4 99939.0 3038.18   2
  -3   0   5 114062. 3402.30   2
  -3   0   5 107982. 2806.78   6
  -3   0   6 44706.6 2076.03   2
  -3   0   6 42944.3 1560.09   6
  -3   0   7 9089.04 643.463   6
  -3   0   7 10282.3 1042.80   2
  -3   0   8 3182.86 622.662   2
  -3   0   9 5049.81 828.019   2
  -3   0  10 4658.34 857.179   2
  -3   0  11 7596.16 1128.30   2
  -3   0  12 1004.23 473.922   2
  -3   1  -9 5374.96 558.374   6
  -3   1  -5 52279.5 2078.84   1
  -3   1  -4 4115.09 568.779   1
  -3   1  -3 7572.87 697.467   1
  -3   1  -2 6149.18 573.171   1
  -3   1  -1 72873.6 2158.20   3
  -3   1  -1 76497.1 2044.85   1
  -3   1   0 33877.7 1179.52   1
  -3   1   0 35161.2 1420.63   3
  -3   1   1 13592.3 944.800   6
  -3   1   1 13810.1 920.477   3
  -3   1   1 15006.1 721.663   1
  -3   1   2 287.303 293.970   2
  -3   1   2 77.4536 210.019   6
  -3   1   2 171.048 156.846   1
  -3   1   3 53897.3 1572.67   1
  -3   1   3 54990.3 2021.56   2
  -3   1   3 49724.1 1888.40   6
  -3   1   4 94773.0 2929.47   2
  -3   1   4 98874.5 3155.16   3
  -3   1   4 93554.7 2745.29   6
  -3   1   5 5478.00 747.050   3
  -3   1   5 5772.58 725.574   2
  -3   1   5 5952.86 627.093   6
  -3   1   6 25951.5 1570.83   2
  -3   1   6 26831.9 1738.08   3
  -3   1   6 24084.8 1237.84   6
  -3   1   7 2178.20 573.294   3
  -3   1   7 1994.82 489.082   2
  -3   1   8 39414.1 2167.60   2
  -3   1   8 37289.4 2265.90   3
  -3   1   9 26133.0 1863.50   2
  -3   1  10 11613.3 1291.63   2
  -3   1  11 5038.69 970.124   3
  -3   1  11 2972.73 774.600   2
  -3   1  12 143.587 470.840   2
  -3   2  -2 27927.9 1250.62   1
  -3   2  -1 97521.7 2395.29   1
  -3   2   0 69067.9 1795.32   1
  -3   2   1 51934.1 1368.62   1
  -3   2   1 50851.3 2055.30   6
  -3   2   2 1279.52 394.957   3
  -3   2   2 909.814 158.324   1
  -3   2   2 1132.16 349.668   6
  -3   2   3 12029.9 894.823   2
  -3   2   3 12727.7 1071.51   3
  -3   2   3 12291.4 574.030   1
  -3   2   3 11095.4 937.929   6
  -3   2   4 30435.4 1052.47   1
  -3   2   4 29074.9 1518.03   6
  -3   2   4 29177.5 1497.30   2
  -3   2   4 29592.3 1707.00   3
  -3   2   5 75414.9 2658.92   2
  -3   2   5 74381.5 2970.65   3
  -3   2   6 1683.09 487.131   3
  -3   2   6 1546.31 398.226   2
  -3   2   7 1642.78 572.288   3
  -3   2   7 865.079 400.835   2
  -3   2   8 420.233 340.884   2
  -3   2   8 949.087 412.790   3
  -3   2   9 7426.07 1114.11   3
  -3   2   9 7688.93 1038.51   2
  -3   2  10 10242.8 1413.09   3
  -3   2  10 8832.10 1159.31   2
  -3   2  11 2477.23 770.758   3
  -3   2  11 1567.59 603.070   2
  -3   2  12 727.101 541.508   2
  -3   3  -4 4315.98 665.161   6
  -3   3  -3 30619.2 1704.68   6
  -3   3  -2 38166.0 1896.77   6
  -3   3   0 27690.0 1637.18   6
  -3   3   0 32947.6 1703.18   3
  -3   3   1 36349.6 1847.25   3
  -3   3   1 33472.4 1800.90   6
  -3   3   2 14711.7 1177.34   3
  -3   3   3 29766.6 1770.65   3
  -3   3   4 51260.3 2436.71   3
  -3   3   5 10006.5 909.664   2
  -3   3   5 11802.1 1191.92   3
  -3   3   6 18254.9 1563.95   3
  -3   3   6 19015.3 1319.80   2
  -3   3   7 1561.92 518.452   3
  -3   3   7 1424.82 438.991   2
  -3   3   8 2094.29 610.352   3
  -3   3   8 3016.65 651.580   2
  -3   3   9 9968.74 1139.49   2
  -3   3   9 10800.2 1374.51   3
  -3   3  10 1400.59 469.036   2
  -3   3  10 1138.73 584.711   3
  -3   4   0 16479.7 1310.34   3
  -3   4   1 34817.3 1986.75   3
  -3   4   2 11928.0 1171.98   3
  -3   4   3 18597.1 1509.35   3
  -3   4   4 6294.44 944.826   3
  -3   4   5 20021.5 1669.69   3
  -3   4   6 7693.55 838.811   2
  -3   4   6 6393.06 1005.07   3
  -3   4   7 22.4164 368.926   3
  -3   4   8 13733.0 1549.29   3
  -3   4   9 3705.11 944.014   3
  -3   5   1 2282.80 608.063   3
  -3   5   2 2728.04 636.975   3
  -3   5   3 10075.7 1211.00   3
  -3   5   4 8505.56 1139.97   3
  -3   5   5 1177.75 508.200   3
  -3   5   6 659.315 476.483   3
  -3   5   7-2.49791 406.380   3
  -3   5   8 551.383 496.847   3
  -3   6   2 3971.02 784.324   3
  -3   6   3 9961.48 1295.28   3
  -3   6   4 2263.76 770.560   3
  -3   6   5 6235.33 1084.22   3
  -3   6   6 3723.25 917.784   3
  -3   7   3 2790.27 769.454   3
  -3   7   4 483.469 585.739   3
  -2 -10  -3 3794.33 929.168   4
  -2 -10  -2 3338.49 866.870   4
  -2 -10  -1 1068.30 593.924   4
  -2 -10   0 840.816 540.616   4
  -2 -10   1 917.880 547.677   4
  -2 -10   2 2080.87 699.224   4
  -2 -10   3 2863.59 780.251   4
  -2  -9  -4 1051.88 573.703   4
  -2  -9  -3 9723.40 1317.96   4
  -2  -9  -2 3657.10 817.279   4
  -2  -9  -1 6843.86 1076.06   4
  -2  -9   0 1315.13 603.824   4
  -2  -9   1 7209.47 1087.22   4
  -2  -9   2-260.400 437.288   4
  -2  -9   3 2884.07 731.888   4
  -2  -9   4 1714.36 671.814   4
  -2  -9   5-174.746 314.516   4
  -2  -9   6 805.829 523.289   4
  -2  -9   7 2102.77 703.960   4
  -2  -9   8 4645.03 936.020   4
  -2  -8  -4 7830.32 1114.85   4
  -2  -8  -3 19331.3 1710.15   4
  -2  -8  -2 18714.9 1637.43   4
  -2  -8  -1 1874.28 559.715   4
  -2  -8  -1 2200.78 480.112   1
  -2  -8   0-84.4950 299.133   4
  -2  -8   0 655.271 355.813   1
  -2  -8   1 3573.49 741.119   4
  -2  -8   2 15238.0 1469.82   4
  -2  -8   3 10355.2 1222.75   4
  -2  -8   4 3666.59 789.287   4
  -2  -8   5 2028.43 581.548   4
  -2  -8   6 4967.43 884.134   4
  -2  -8   7-296.438 349.093   4
  -2  -8   8 1834.92 584.071   4
  -2  -8   9 2984.82 728.644   4
  -2  -7  -4 253.696 328.313   4
  -2  -7  -4 760.684 288.080   1
  -2  -7  -3 21823.4 1188.57   1
  -2  -7  -3 20441.5 1629.80   4
  -2  -7  -2 2684.69 620.956   4
  -2  -7  -2 2207.49 417.535   1
  -2  -7  -1 542.067 329.908   4
  -2  -7  -1 469.073 277.463   1
  -2  -7   0 268.849 339.577   4
  -2  -7   0-110.299 235.016   1
  -2  -7   1 16408.0 1397.78   4
  -2  -7   2 1651.83 488.648   4
  -2  -7   2 1863.51 336.946   2
  -2  -7   3 7487.20 691.018   2
  -2  -7   3 6401.75 895.177   4
  -2  -7   4 4009.46 573.081   2
  -2  -7   4 3174.35 659.932   4
  -2  -7   5 1372.77 412.390   2
  -2  -7   5 2100.27 538.805   4
  -2  -7   6 5307.76 762.537   2
  -2  -7   6 3455.73 690.259   4
  -2  -7   7 4982.63 792.613   2
  -2  -7   7 4405.35 799.899   4
  -2  -7   8 6184.79 957.725   2
  -2  -7   8 7336.80 1009.39   4
  -2  -7   9 9646.06 1183.58   2
  -2  -7   9 8916.03 1114.91   4
  -2  -7  10 4931.25 912.409   2
  -2  -7  11 4809.49 957.436   2
  -2  -6  -7 19303.8 1140.61   1
  -2  -6  -6 5950.74 619.501   1
  -2  -6  -5 1578.65 346.397   1
  -2  -6  -4 34120.8 1421.33   1
  -2  -6  -3 50511.5 2379.52   4
  -2  -6  -3 50617.6 1809.05   1
  -2  -6  -2 22429.3 1532.55   4
  -2  -6  -2 21935.4 1175.54   1
  -2  -6  -1 198.016 250.462   4
  -2  -6  -1 181.734 200.036   1
  -2  -6   0 622.140 343.052   4
  -2  -6   1 21397.0 1452.24   4
  -2  -6   1 21211.4 939.089   2
  -2  -6   2 42127.1 2049.74   4
  -2  -6   2 42623.7 1568.73   2
  -2  -6   3 4552.83 544.072   2
  -2  -6   3 4892.07 693.804   4
  -2  -6   4 3220.94 522.362   2
  -2  -6   4 3244.22 593.865   4
  -2  -6   5 5657.98 699.505   2
  -2  -6   5 3360.31 601.691   4
  -2  -6   6 36752.4 1953.81   2
  -2  -6   6 35241.4 1956.18   4
  -2  -6   7 15866.7 1340.22   2
  -2  -6   7 15245.1 1307.29   4
  -2  -6   8 13757.9 1329.34   2
  -2  -6   8 13933.3 1263.75   4
  -2  -6   9 14397.7 1429.43   2
  -2  -6   9 14260.7 1299.18   4
  -2  -6  10 5270.69 971.928   2
  -2  -6  11 4303.02 925.957   2
  -2  -5  -7 5895.06 674.098   1
  -2  -5  -6 4692.59 566.451   1
  -2  -5  -5 25567.8 1237.51   1
  -2  -5  -4 6562.19 615.102   1
  -2  -5  -3 114158. 3492.21   4
  -2  -5  -3 109408. 2833.98   1
  -2  -5  -2 36510.6 1803.74   4
  -2  -5  -2 36220.4 1465.05   1
  -2  -5  -1 566.425 319.829   4
  -2  -5  -1 748.132 260.243   1
  -2  -5   0 10931.9 939.119   4
  -2  -5   1 15916.3 805.647   2
  -2  -5   1 13099.4 1028.84   4
  -2  -5   2 19685.0 1014.97   2
  -2  -5   2 17996.6 1186.76   4
  -2  -5   3 23907.9 1232.08   2
  -2  -5   3 24215.1 1399.74   4
  -2  -5   4 1952.22 425.476   2
  -2  -5   4 1108.07 329.922   4
  -2  -5   5 13545.8 1070.06   2
  -2  -5   5 14696.1 1100.98   4
  -2  -5   6 2432.05 517.052   2
  -2  -5   6 1723.92 393.386   4
  -2  -5   7 2568.25 551.720   2
  -2  -5   7 2583.05 521.225   4
  -2  -5   8 7486.60 970.105   2
  -2  -5   8 6211.64 786.285   4
  -2  -5   9 5531.00 884.884   2
  -2  -5   9 5979.44 766.217   4
  -2  -5  10 5867.46 934.210   2
  -2  -5  11 6242.69 990.796   2
  -2  -4  -7 14292.5 1044.47   1
  -2  -4  -6 5426.09 614.937   1
  -2  -4  -5 1774.91 371.068   1
  -2  -4  -4 8944.15 692.167   1
  -2  -4  -3 34361.4 1344.83   1
  -2  -4  -3 33195.1 1386.13   3
  -2  -4  -2 13212.0 978.313   4
  -2  -4  -2 13254.9 768.240   3
  -2  -4  -2 12854.1 821.893   1
  -2  -4  -1 10381.2 732.908   1
  -2  -4  -1 11305.6 852.883   4
  -2  -4  -1 10720.6 669.380   3
  -2  -4   0 2904.96 465.383   4
  -2  -4   0 2743.16 354.728   3
  -2  -4   1 48361.6 1529.65   2
  -2  -4   1 48010.4 1795.78   4
  -2  -4   2 87528.5 2352.11   2
  -2  -4   2 85917.3 2515.28   4
  -2  -4   3 43766.5 1673.01   2
  -2  -4   3 42863.3 1685.83   4
  -2  -4   4 8435.11 783.988   2
  -2  -4   4 9131.37 748.771   4
  -2  -4   5 32763.9 1670.81   2
  -2  -4   5 34003.3 1525.40   4
  -2  -4   6 46777.2 2152.97   2
  -2  -4   6 47783.5 1903.62   4
  -2  -4   7 38473.2 2056.36   2
  -2  -4   7 39961.2 1759.68   4
  -2  -4   8 18819.3 1202.99   4
  -2  -4   8 19856.6 1540.09   2
  -2  -4   9 10500.7 931.659   4
  -2  -4   9 9731.73 1152.74   2
  -2  -4  10 3134.51 702.874   2
  -2  -4  11 15533.0 1623.28   2
  -2  -4  12 17648.4 1795.20   2
  -2  -3  -7 9088.26 823.445   1
  -2  -3  -6 32629.4 1504.35   1
  -2  -3  -5 62195.7 2048.54   1
  -2  -3  -4 16374.1 943.044   1
  -2  -3  -3 24732.8 1097.86   1
  -2  -3  -2 18282.1 757.197   3
  -2  -3  -2 19236.8 941.477   1
  -2  -3  -1 3472.06 473.102   4
  -2  -3  -1 3086.34 286.980   3
  -2  -3  -1 2625.29 375.426   1
  -2  -3   0 90.1779 230.433   4
  -2  -3   0 388.580 218.301   2
  -2  -3   1 14517.0 784.348   2
  -2  -3   1 15149.9 839.487   4
  -2  -3   2 10704.1 734.494   2
  -2  -3   2 10368.7 676.019   4
  -2  -3   3 16678.0 965.909   2
  -2  -3   3 15293.9 829.344   4
  -2  -3   4 63836.5 2185.18   2
  -2  -3   4 60517.6 1838.96   4
  -2  -3   5 4710.48 599.589   2
  -2  -3   5 4006.98 449.519   4
  -2  -3   6 42484.4 2020.73   2
  -2  -3   6 44728.9 1617.80   4
  -2  -3   7 54976.9 2463.24   2
  -2  -3   7 59032.7 1934.33   4
  -2  -3   8 27122.0 1780.08   2
  -2  -3   8 24704.2 1260.24   4
  -2  -3   9 6827.14 659.436   4
  -2  -3   9 6577.48 964.460   2
  -2  -3  10 1532.78 581.518   2
  -2  -3  11 8261.36 1162.50   2
  -2  -3  12 9722.21 1336.27   2
  -2  -2  -6 5353.47 618.810   1
  -2  -2  -5 64664.8 2105.28   1
  -2  -2  -4 58957.6 1885.95   1
  -2  -2  -3 51131.5 1628.49   1
  -2  -2  -2 85842.1 2171.07   1
  -2  -2  -1 20164.8 907.769   1
  -2  -2   0 883.035 264.629   1
  -2  -2   0 1160.46 254.757   2
  -2  -2   1 12700.8 716.946   2
  -2  -2   1 11605.9 591.914   4
  -2  -2   2 1348.46 306.136   2
  -2  -2   2 685.894 163.891   4
  -2  -2   3 33350.7 1388.49   2
  -2  -2   3 33461.6 1014.00   4
  -2  -2   4 56730.1 2040.48   2
  -2  -2   4 60514.9 1513.38   4
  -2  -2   5 25391.4 1392.16   2
  -2  -2   5 24793.9 915.810   4
  -2  -2   6 8134.87 852.509   2
  -2  -2   7 6845.21 837.575   2
  -2  -2   8 58573.7 2653.81   2
  -2  -2   9 32100.0 2022.92   2
  -2  -2  10 9292.79 1201.11   2
  -2  -2  11 15208.8 1551.05   2
  -2  -2  12 17259.8 1736.17   2
  -2  -1  -9 1067.78 144.157   6
  -2  -1  -6 27213.6 1400.66   1
  -2  -1  -5 13266.0 901.770   1
  -2  -1  -4 27060.4 1233.17   1
  -2  -1  -3 112890. 2705.65   1
  -2  -1  -2 149288. 3132.92   1
  -2  -1  -1 134311. 2824.54   1
  -2  -1   0 166386. 3301.29   1
  -2  -1   1 91572.7 2244.13   2
  -2  -1   2 959.194 254.582   2
  -2  -1   3 2632.56 419.114   2
  -2  -1   4 205505. 4497.72   2
  -2  -1   4 195828. 3227.18   4
  -2  -1   5 35486.3 1661.63   2
  -2  -1   6 17369.4 1225.02   2
  -2  -1   7 37015.4 1913.71   2
  -2  -1   7 34952.7 945.762   6
  -2  -1   8 6868.13 860.794   2
  -2  -1   9 26586.9 1810.54   2
  -2  -1  10 5493.96 852.262   2
  -2  -1  11 10059.2 1313.36   2
  -2  -1  12 7625.97 1154.00   2
  -2  -1  13 12975.6 1559.71   2
  -2   0  -8 54618.2 1450.54   6
  -2   0  -7 11571.4 615.734   6
  -2   0  -6 2847.21 316.649   6
  -2   0  -5 2401.18 442.586   1
  -2   0  -4 4586.23 514.880   1
  -2   0  -3 8841.34 663.542   1
  -2   0  -2 30328.2 1118.53   1
  -2   0  -1 65070.8 1644.95   1
  -2   0   0 23534.3 816.699   3
  -2   0   0 23087.9 843.223   1
  -2   0   1 25431.6 1057.05   2
  -2   0   1 27699.2 918.127   1
  -2   0   2 752.305 251.195   2
  -2   0   3 7910.75 642.832   2
  -2   0   4 524.623 282.290   2
  -2   0   4 856.972 199.274   6
  -2   0   5 93750.0 2785.47   2
  -2   0   5 94635.8 2111.35   6
  -2   0   6 55265.0 1290.22   4
  -2   0   6 60449.5 2307.05   2
  -2   0   6 58347.9 1513.64   6
  -2   0   7 6128.91 393.359   4
  -2   0   7 6069.05 755.224   2
  -2   0   8 20989.0 1497.44   2
  -2   0   9 10938.9 1161.64   2
  -2   0  10 5971.75 924.822   2
  -2   0  11 5606.98 917.701   2
  -2   0  12 2519.29 760.247   2
  -2   0  13 1459.85 602.961   2
  -2   1  -7 73295.6 2033.61   6
  -2   1  -6 33112.7 1287.30   6
  -2   1  -5 317.447 171.906   6
  -2   1  -4 7855.83 616.231   6
  -2   1  -3 81257.2 2222.35   1
  -2   1  -3 75535.2 2139.37   6
  -2   1  -2 6145.53 532.834   1
  -2   1  -1 135.234 193.074   1
  -2   1   0 465.977 179.016   1
  -2   1   1 62407.5 1413.53   1
  -2   1   2 36418.0 1351.67   2
  -2   1   2 37399.4 1036.39   1
  -2   1   2 36456.6 1368.10   6
  -2   1   3 41378.1 1533.09   2
  -2   1   3 41680.3 1472.62   6
  -2   1   4 43587.6 1650.24   2
  -2   1   4 39291.3 1087.28   4
  -2   1   4 40277.1 1437.18   6
  -2   1   5 67456.1 2274.76   2
  -2   1   5 60301.2 1487.86   4
  -2   1   5 64685.2 1872.13   6
  -2   1   6 13835.0 1049.28   2
  -2   1   6 11591.4 571.678   4
  -2   1   7 92712.4 3068.59   2
  -2   1   7 80237.0 1944.06   4
  -2   1   8 21541.0 1496.24   2
  -2   1   9 60217.6 2740.49   2
  -2   1  10 16344.0 1474.53   2
  -2   1  11 4963.19 902.714   2
  -2   1  12 2010.42 596.134   2
  -2   1  13 8834.22 1268.84   2
  -2   2  -5 295.216 209.484   6
  -2   2  -4 22769.8 1180.39   6
  -2   2  -3 49156.0 1795.32   6
  -2   2   0 172.507 119.253   1
  -2   2   1 4724.29 304.921   1
  -2   2   2 439.678 223.676   2
  -2   2   2 43.6635 52.8596   1
  -2   2   2 251.658 192.554   6
  -2   2   3 16392.7 911.266   2
  -2   2   3 15983.5 560.573   1
  -2   2   3 15813.5 979.014   6
  -2   2   4 11503.8 683.768   4
  -2   2   4 14003.7 903.427   2
  -2   2   5 19567.7 923.821   4
  -2   2   5 21815.0 1214.43   2
  -2   2   6 21982.7 1305.85   2
  -2   2   6 19078.7 928.391   4
  -2   2   7 7341.10 953.498   3
  -2   2   7 6798.92 787.909   2
  -2   2   8 6319.41 975.430   3
  -2   2   8 8460.23 933.417   2
  -2   2   9 17647.0 1428.47   2
  -2   2   9 19317.9 1691.65   3
  -2   2  10 5838.55 1055.16   3
  -2   2  10 6219.05 967.516   2
  -2   2  11 10460.3 1377.03   3
  -2   2  11 10263.3 1240.86   2
  -2   2  12 1723.51 680.215   3
  -2   2  12 608.297 544.401   2
  -2   2  13 432.927 391.100   2
  -2   3   3 64332.4 1941.90   2
  -2   3   4 31570.6 1375.47   2
  -2   3   4 30347.0 1735.71   3
  -2   3   5 16507.2 1298.27   3
  -2   3   5 16876.9 1038.08   2
  -2   3   6 1067.57 313.457   2
  -2   3   6-140.391 322.868   3
  -2   3   7 27301.7 1559.10   2
  -2   3   7 26358.1 1837.31   3
  -2   3   8 10899.0 1268.29   3
  -2   3   8 10778.6 1037.68   2
  -2   3   9 8484.92 1200.41   3
  -2   3   9 7768.18 936.404   2
  -2   3  10 8314.50 1040.37   2
  -2   3  10 8144.88 1236.73   3
  -2   3  11 2057.59 739.587   3
  -2   3  11 731.303 445.174   2
  -2   3  12 1837.50 625.397   2
  -2   4   1 11134.5 1025.50   3
  -2   4   2 13626.0 1145.85   3
  -2   4   3 56241.8 2494.99   3
  -2   4   4 26896.3 1749.52   3
  -2   4   5 20206.0 1135.20   2
  -2   4   5 19675.2 1533.73   3
  -2   4   6 8556.64 1076.41   3
  -2   4   6 9899.43 857.242   2
  -2   4   7 4631.62 642.893   2
  -2   4   7 4904.88 860.739   3
  -2   4   8 17640.0 1304.93   2
  -2   4   8 16815.6 1630.87   3
  -2   4   9 22942.0 1975.31   3
  -2   4  10 392.347 430.999   3
  -2   5   1 8456.56 996.871   3
  -2   5   2 4696.44 787.198   3
  -2   5   3 24068.9 1724.69   3
  -2   5   4 16645.1 1464.32   3
  -2   5   5 3419.45 710.959   3
  -2   5   6 1236.39 562.532   3
  -2   5   7 6030.27 1022.03   3
  -2   5   8 14259.4 1572.79   3
  -2   5   9 5823.26 1053.31   3
  -2   6   2 3449.97 743.866   3
  -2   6   3 8207.93 1119.65   3
  -2   6   4 8996.70 1189.78   3
  -2   6   5 11118.5 1352.89   3
  -2   6   6 1367.82 558.974   3
  -2   6   7 2626.14 814.238   3
  -2   6   8 4655.94 1004.98   3
  -2   7   3 8127.55 1205.88   3
  -2   7   4 1604.24 535.617   3
  -2   7   5 3123.86 824.761   3
  -2   7   6 352.455 457.284   3
  -1  -9  -4 720.799 504.316   4
  -1  -9  -3 1951.17 658.305   4
  -1  -9  -2 13131.1 1506.92   4
  -1  -9  -1 1437.55 620.817   4
  -1  -9   0 4773.58 927.296   4
  -1  -9   1 5217.84 979.079   4
  -1  -9   2 3223.12 774.022   4
  -1  -9   3 57.0554 345.912   4
  -1  -9   4 4905.82 966.969   4
  -1  -9   5 3014.62 768.960   4
  -1  -9   6 4041.19 850.516   4
  -1  -9   7 1334.04 536.615   4
  -1  -8  -4 8423.11 1141.18   4
  -1  -8  -3 33259.4 2238.52   4
  -1  -8  -2 13246.8 1415.02   4
  -1  -8  -1 5088.24 883.195   4
  -1  -8   0 6091.09 978.572   4
  -1  -8   1 11230.7 1307.99   4
  -1  -8   2 15162.0 1492.26   4
  -1  -8   3 28113.7 2080.50   4
  -1  -8   4 152.300 352.703   4
  -1  -8   5 6396.31 995.637   4
  -1  -8   6 4959.11 940.931   4
  -1  -8   7-267.684 459.014   4
  -1  -8   8 406.345 326.542   4
  -1  -8   9 2797.50 743.968   4
  -1  -8  10 1679.16 637.407   4
  -1  -7  -4 163.406 313.871   4
  -1  -7  -3 195.055 256.307   4
  -1  -7  -2 23552.4 1099.56   1
  -1  -7  -2 22433.4 1673.96   4
  -1  -7  -1 1570.10 337.501   1
  -1  -7  -1 843.619 446.563   4
  -1  -7   0 10043.8 1122.21   4
  -1  -7   1 9742.42 1120.43   4
  -1  -7   2 12997.9 1262.25   4
  -1  -7   3 2892.34 407.883   2
  -1  -7   3 2817.25 629.026   4
  -1  -7   4 9090.51 802.968   2
  -1  -7   4 10741.8 1171.83   4
  -1  -7   5 8006.48 817.700   2
  -1  -7   5 7754.47 1003.52   4
  -1  -7   6 2869.53 521.336   2
  -1  -7   6 2340.33 596.220   4
  -1  -7   7 16203.0 1350.11   2
  -1  -7   7 16132.4 1507.71   4
  -1  -7   8 1568.36 512.916   2
  -1  -7   8 1788.36 559.154   4
  -1  -7   9 1099.59 445.881   2
  -1  -7   9 523.490 345.330   4
  -1  -7  10 1113.23 572.422   2
  -1  -7  10-89.2755 348.539   4
  -1  -7  11 1265.29 557.119   2
  -1  -6  -5 15779.3 770.799   1
  -1  -6  -4 42302.8 2192.78   4
  -1  -6  -4 42453.7 1345.67   1
  -1  -6  -3 49197.9 1499.15   1
  -1  -6  -3 47788.0 2292.48   4
  -1  -6  -2 12522.8 1131.49   4
  -1  -6  -2 10802.0 695.527   1
  -1  -6  -1 3023.42 580.543   4
  -1  -6  -1 1902.24 331.491   1
  -1  -6   0 24181.2 1589.99   4
  -1  -6   1 18300.4 707.322   2
  -1  -6   1 20334.3 1436.83   4
  -1  -6   2 22261.4 970.606   2
  -1  -6   2 20209.6 1448.90   4
  -1  -6   3 38119.6 1505.01   2
  -1  -6   3 38502.5 2052.89   4
  -1  -6   4 199.264 224.950   2
  -1  -6   4 357.684 364.855   4
  -1  -6   5 8594.95 978.447   4
  -1  -6   5 6644.83 738.205   2
  -1  -6   6 36322.6 1883.58   2
  -1  -6   6 34754.2 2035.68   4
  -1  -6   6 32410.4 1904.46   5
  -1  -6   7 4598.97 764.134   5
  -1  -6   7 5418.09 831.062   4
  -1  -6   7 5074.09 784.241   2
  -1  -6   8 8007.53 993.781   2
  -1  -6   8 5488.21 885.411   5
  -1  -6   8 8561.45 1087.84   4
  -1  -6   9 6869.38 995.655   2
  -1  -6   9 8378.84 1133.95   5
  -1  -6   9 8329.29 1061.37   4
  -1  -6  10 977.446 412.357   2
  -1  -6  10 1624.22 533.375   4
  -1  -6  11 7927.20 1158.40   2
  -1  -5  -5 48863.1 1528.18   1
  -1  -5  -4 37932.6 1254.52   1
  -1  -5  -4 35309.8 1833.99   4
  -1  -5  -3 38571.1 1261.16   1
  -1  -5  -3 39434.8 1892.15   4
  -1  -5  -2 31042.1 1636.47   4
  -1  -5  -2 28933.1 1110.45   1
  -1  -5  -1 287.158 239.014   4
  -1  -5  -1 127.000 187.012   1
  -1  -5   0 20386.1 1295.56   4
  -1  -5   1 29327.6 1573.46   4
  -1  -5   1 28305.1 954.053   2
  -1  -5   2 20531.0 936.891   2
  -1  -5   2 20185.3 1302.80   4
  -1  -5   3 7545.39 632.660   2
  -1  -5   3 7298.07 801.617   4
  -1  -5   4 2238.61 420.653   5
  -1  -5   4 2414.48 513.231   4
  -1  -5   5 3720.29 588.850   5
  -1  -5   5 4464.01 663.230   4
  -1  -5   6 18608.0 1337.77   4
  -1  -5   6 18223.3 1365.31   5
  -1  -5   7 24563.6 1681.31   5
  -1  -5   7 26189.1 1636.30   4
  -1  -5   8 7175.94 984.397   5
  -1  -5   8 8511.81 955.477   4
  -1  -5   9 7538.32 1056.19   5
  -1  -5   9 9097.95 1009.98   4
  -1  -5  10 1431.92 603.825   5
  -1  -5  10 437.925 338.317   4
  -1  -5  11 1715.07 560.527   2
  -1  -5  11 3465.59 794.051   5
  -1  -5  12 3485.68 864.931   2
  -1  -4  -5 2857.76 372.588   1
  -1  -4  -4 128206. 2813.83   1
  -1  -4  -3 63074.5 1663.90   1
  -1  -4  -3 63549.6 2259.34   4
  -1  -4  -2 16432.8 1063.91   4
  -1  -4  -2 15990.0 747.833   1
  -1  -4  -1 6666.62 510.623   1
  -1  -4  -1 6118.99 646.333   4
  -1  -4   0 239842. 4027.88   2
  -1  -4   0 252972. 5247.30   4
  -1  -4   1 101498. 2182.39   2
  -1  -4   1 101561. 2883.04   4
  -1  -4   2 29130.8 1123.34   2
  -1  -4   2 28329.7 1386.28   4
  -1  -4   3 11191.3 806.541   5
  -1  -4   3 10564.6 864.250   4
  -1  -4   3 9314.32 670.563   7
  -1  -4   4 1340.35 276.998   7
  -1  -4   4 968.520 319.500   5
  -1  -4   4 1154.49 335.684   4
  -1  -4   5 26476.5 1480.54   5
  -1  -4   5 29210.6 1485.98   4
  -1  -4   5 24748.8 1097.32   7
  -1  -4   6 72176.4 2737.49   5
  -1  -4   6 65712.9 1930.62   7
  -1  -4   6 75384.2 2561.00   4
  -1  -4   7 434.574 343.010   5
  -1  -4   7 312.326 238.827   4
  -1  -4   8 230.973 290.109   5
  -1  -4   9 6771.53 980.617   5
  -1  -4  10 311.720 376.900   5
  -1  -4  11 5030.05 962.457   5
  -1  -4  12 12917.8 1593.48   5
  -1  -4  12 10108.0 1338.68   2
  -1  -3  -5 155943. 3434.28   1
  -1  -3  -4 69558.0 1872.11   1
  -1  -3  -3 110158. 2409.00   1
  -1  -3  -2 2328.40 350.319   3
  -1  -3  -2 2469.95 300.201   1
  -1  -3  -2 2839.76 423.113   4
  -1  -3  -1 41259.8 1348.57   3
  -1  -3  -1 39843.3 1469.30   4
  -1  -3  -1 40496.5 1229.01   1
  -1  -3   0 96344.8 1865.09   2
  -1  -3   0 94199.5 2486.96   4
  -1  -3   0 102454. 2371.44   3
  -1  -3   1 241049. 4276.57   2
  -1  -3   1 238826. 4789.92   4
  -1  -3   1 244110. 4613.75   7
  -1  -3   2 66788.0 1807.46   2
  -1  -3   2 69106.3 2012.67   4
  -1  -3   2 68274.1 1892.62   5
  -1  -3   2 64890.4 1752.44   7
  -1  -3   3 259.606 125.030   7
  -1  -3   3 337.563 243.634   5
  -1  -3   3 86.5445 253.737   4
  -1  -3   4 364.711 203.379   5
  -1  -3   4 471.635 237.674   4
  -1  -3   4 476.778 141.793   7
  -1  -3   5 90236.8 2893.68   5
  -1  -3   5 90734.8 2057.67   7
  -1  -3   6 242.636 223.073   5
  -1  -3   7 54350.0 2443.27   5
  -1  -3   8 9964.99 1074.39   5
  -1  -3   9 1412.17 526.090   5
  -1  -3  10 2514.54 654.586   5
  -1  -3  11 7008.13 1108.57   5
  -1  -3  12 7809.19 1199.09   5
  -1  -3  13 11717.7 1520.27   2
  -1  -2  -5 23897.3 1116.92   1
  -1  -2  -5 25084.8 1099.69   5
  -1  -2  -4 265464. 4982.34   1
  -1  -2  -3 84962.8 2022.19   1
  -1  -2  -2 8671.79 494.289   1
  -1  -2  -1 71478.7 1821.95   4
  -1  -2  -1 70762.9 1600.49   3
  -1  -2  -1 73003.2 1647.07   1
  -1  -2   0 170567. 2977.39   2
  -1  -2   0 171373. 3327.25   4
  -1  -2   1 137956. 2681.46   2
  -1  -2   1 140223. 2836.27   4
  -1  -2   2 44245.5 1422.08   5
  -1  -2   2 43032.3 1069.58   7
  -1  -2   2 45160.8 1371.99   2
  -1  -2   2 45001.1 1314.13   4
  -1  -2   3 16159.3 897.931   5
  -1  -2   3 16149.3 540.665   7
  -1  -2   4 50215.0 1828.97   5
  -1  -2   5 15246.7 1050.67   5
  -1  -2   6 111704. 3408.59   5
  -1  -2   7 10252.9 982.796   5
  -1  -2   7 8872.31 431.421   6
  -1  -2   8 508.042 274.771   5
  -1  -2   9 38123.6 2204.09   5
  -1  -2  10 2099.65 587.289   5
  -1  -2  11 14268.8 1506.15   5
  -1  -2  12 9788.55 1339.99   5
  -1  -2  13 3665.51 837.609   2
  -1  -1  -5 151029. 3483.81   5
  -1  -1  -4 71430.0 1979.93   1
  -1  -1  -4 71563.4 1954.88   5
  -1  -1  -3 277342. 5014.41   1
  -1  -1  -2 649602. 10294.4   1
  -1  -1   1 42409.0 1124.65   2
  -1  -1   1 43062.1 937.608   4
  -1  -1   2 53073.1 1499.18   2
  -1  -1   2 56455.5 1177.99   4
  -1  -1   3 935.363 257.265   5
  -1  -1   4 5193.18 549.419   5
  -1  -1   5 63932.2 2199.89   5
  -1  -1   6 1173.98 344.317   5
  -1  -1   7 10748.8 1002.51   5
  -1  -1   8 1179.20 380.164   5
  -1  -1   8 985.998 187.203   7
  -1  -1   9 1879.69 605.418   5
  -1  -1   9 2173.74 261.310   7
  -1  -1  10 20570.7 1649.55   5
  -1  -1  11 26099.2 1977.59   5
  -1  -1  12 17716.9 1692.88   2
  -1  -1  13 8750.01 1255.11   2
  -1   0  -6 41253.4 929.737   6
  -1   0  -5 120667. 2216.95   6
  -1   0  -3 22908.8 956.579   1
  -1   0  -2 70808.8 1678.72   1
  -1   0   1 93401.4 1928.67   2
  -1   0   2 66186.5 1661.42   2
  -1   0   3 7443.94 555.623   2
  -1   0   3 7873.37 373.563   7
  -1   0   4 20108.7 1030.90   5
  -1   0   4 21123.3 698.059   7
  -1   0   4 18966.8 600.746   6
  -1   0   5 40778.3 1647.30   5
  -1   0   5 41117.7 1143.62   7
  -1   0   6 54143.0 2110.49   5
  -1   0   6 59042.2 1526.37   7
  -1   0   7 32403.3 1697.55   5
  -1   0   7 30917.7 1096.47   7
  -1   0   8 2420.15 528.590   5
  -1   0   8 3250.66 362.972   7
  -1   0   9 22304.3 1602.54   5
  -1   0   9 24274.3 1045.77   7
  -1   0  10-8.79743 343.328   5
  -1   0  11 15813.6 1529.07   2
  -1   0  12 11560.6 1395.72   2
  -1   0  13 2475.97 721.662   2
  -1   1  -4 28397.9 958.855   6
  -1   1  -3 1650.55 252.882   6
  -1   1  -1 39687.2 1043.74   1
  -1   1   0 164390. 2775.69   1
  -1   1   1 412.757 149.711   2
  -1   1   2 5770.38 431.711   2
  -1   1   2 6569.80 374.032   4
  -1   1   2 5816.23 450.914   6
  -1   1   3 6270.91 521.634   2
  -1   1   3 7741.95 418.304   4
  -1   1   3 7480.48 522.650   7
  -1   1   3 7181.42 470.169   6
  -1   1   4 6487.44 611.774   2
  -1   1   4 6317.68 413.223   4
  -1   1   4 6556.98 504.922   7
  -1   1   5 28676.1 1321.99   2
  -1   1   5 27259.7 988.165   4
  -1   1   5 27390.0 1108.46   7
  -1   1   6 5308.68 443.179   4
  -1   1   6 4551.01 462.840   7
  -1   1   7 31692.8 1264.60   4
  -1   1   7 36243.9 1394.17   7
  -1   1   8 23740.9 1155.05   4
  -1   1   8 31187.2 1336.53   7
  -1   1   9 418.224 334.081   2
  -1   1   9 457.071 237.562   7
  -1   1  10 2999.47 675.124   2
  -1   1  11 12736.9 1352.98   2
  -1   1  12 4003.54 828.537   2
  -1   1  13 2993.38 705.293   2
  -1   2   2 864.758 210.248   4
  -1   2   2 353.468 156.456   2
  -1   2   3 9487.69 580.236   2
  -1   2   3 8393.38 571.499   4
  -1   2   3 6236.18 358.754   1
  -1   2   3 9143.60 693.194   7
  -1   2   4 28157.1 1154.36   2
  -1   2   4 26993.5 1077.36   4
  -1   2   4 24400.5 877.913   1
  -1   2   4 26818.3 1220.89   7
  -1   2   5 38182.8 1515.04   2
  -1   2   5 36300.7 1316.30   4
  -1   2   5 34026.1 1227.06   1
  -1   2   5 35846.7 1479.56   7
  -1   2   6 326.237 210.016   2
  -1   2   6 688.064 199.850   4
  -1   2   6 884.315 304.448   7
  -1   2   6 802.773 212.977   1
  -1   2   7 6649.72 734.802   2
  -1   2   7 4833.81 573.801   7
  -1   2   8 3575.37 584.264   2
  -1   2   8 3974.32 551.329   7
  -1   2   9 65621.4 2759.49   2
  -1   2   9 64598.7 2349.25   7
  -1   2  10 15826.1 1386.09   2
  -1   2  10 14875.1 1093.28   7
  -1   2  11 17948.0 1561.04   2
  -1   2  12 17963.3 1670.89   2
  -1   2  13 3433.77 798.425   2
  -1   3   3 3004.32 320.043   2
  -1   3   4 425.749 230.050   7
  -1   3   4 524.956 90.4298   1
  -1   3   4 561.953 198.722   2
  -1   3   5 12597.3 595.288   1
  -1   3   5 15212.1 894.743   2
  -1   3   5 14033.7 1027.89   7
  -1   3   5 12863.7 1108.84   3
  -1   3   6 1354.45 492.439   3
  -1   3   6 1318.77 227.497   1
  -1   3   6 1510.56 367.138   2
  -1   3   6 1230.51 354.566   7
  -1   3   7 9401.97 885.808   7
  -1   3   7 8381.45 819.506   2
  -1   3   7 11074.5 1188.33   3
  -1   3   8 8766.88 1076.69   3
  -1   3   8 9318.35 909.574   7
  -1   3   8 10295.2 969.271   2
  -1   3   9 1629.95 581.201   3
  -1   3   9 1828.52 461.100   2
  -1   3   9 1955.21 472.882   7
  -1   3  10-556.795 533.649   3
  -1   3  10 294.509 243.693   7
  -1   3  10 155.388 375.719   2
  -1   3  11 10851.6 1379.48   3
  -1   3  11 10767.0 1204.05   2
  -1   3  12 2035.69 717.200   3
  -1   3  12 1239.54 518.298   2
  -1   3  13 5332.54 965.054   2
  -1   4   3 6926.63 801.119   3
  -1   4   4 16139.6 798.378   2
  -1   4   4 14515.6 1185.39   3
  -1   4   5 23260.3 1102.56   2
  -1   4   5 21498.2 1522.79   3
  -1   4   6 3286.82 459.957   2
  -1   4   6 1701.70 480.947   3
  -1   4   7 4775.41 600.782   2
  -1   4   7 3972.61 738.382   3
  -1   4   8 8230.23 832.760   2
  -1   4   8 9264.30 1169.77   3
  -1   4   9 21103.8 1439.16   2
  -1   4   9 18091.5 1679.18   3
  -1   4  10 2005.70 635.627   3
  -1   4  10 2242.38 596.170   2
  -1   4  11 1254.24 642.700   3
  -1   5   1 16659.0 1290.03   3
  -1   5   2 15333.7 1260.62   3
  -1   5   3 18985.9 1429.84   3
  -1   5   4 9843.28 1073.77   3
  -1   5   5 8122.85 585.246   2
  -1   5   5 10216.4 1145.61   3
  -1   5   6 363.584 358.070   3
  -1   5   7 18537.5 1633.08   3
  -1   5   8 11953.4 1398.91   3
  -1   5   9 12136.7 1454.29   3
  -1   5  10 3068.54 806.684   3
  -1   6   2 4748.92 805.569   3
  -1   6   3 528.121 438.671   3
  -1   6   4 340.383 281.344   3
  -1   6   5 3115.98 704.243   3
  -1   6   6 107.593 351.876   3
  -1   6   7 2961.78 771.784   3
  -1   6   8 1788.19 639.757   3
  -1   6   9 6740.52 1134.88   3
  -1   7   3 5961.05 967.056   3
  -1   7   4 4933.50 916.368   3
  -1   7   5 868.979 493.862   3
  -1   7   6 915.271 524.517   3
  -1   7   7 14357.3 1637.76   3
  -1   7   8 7722.11 1240.35   3
  -1   8   4-179.696 379.060   3
  -1   8   5 705.472 498.928   3
  -1   8   6-82.0142 359.259   3
   0  -9  -5 4593.53 962.767   4
   0  -9  -4 900.398 505.856   4
   0  -9  -3-99.0470 338.014   4
   0  -9  -2 6629.72 1129.18   4
   0  -9  -1 980.805 546.018   4
   0  -9   0 1572.85 667.929   4
   0  -9   1-177.873 364.617   4
   0  -9   2 1180.23 538.910   4
   0  -9   3 6994.31 1141.50   4
   0  -9   4 1343.12 584.813   4
   0  -9   5 13495.5 1625.76   4
   0  -8  -5 39.2671 355.603   4
   0  -8  -4 1493.16 571.701   4
   0  -8  -3 3347.48 740.229   4
   0  -8  -2 6516.07 1033.69   4
   0  -8  -1-62.5308 269.655   4
   0  -8   0 20341.6 1778.16   4
   0  -8   1 2002.43 605.078   4
   0  -8   2 4749.37 895.662   4
   0  -8   3 8183.17 1153.35   4
   0  -8   4 9964.22 1282.42   4
   0  -8   5 2401.83 644.425   4
   0  -8   6 4233.19 871.575   4
   0  -8   7 1771.11 623.019   4
   0  -8   8 48.3635 362.522   4
   0  -8   9 20412.8 1975.92   4
   0  -7  -5 2784.71 666.945   4
   0  -7  -4 479.559 395.583   4
   0  -7  -3 1066.75 483.892   4
   0  -7  -2 31679.4 2023.97   4
   0  -7  -1 8761.58 1059.59   4
   0  -7   0 27808.9 1889.94   4
   0  -7   1 5349.35 860.189   4
   0  -7   2 4868.96 817.533   4
   0  -7   3 14253.5 1388.90   4
   0  -7   4 18021.9 1224.29   5
   0  -7   4 17891.5 1578.11   4
   0  -7   5 61419.7 2538.76   5
   0  -7   5 64350.6 3105.86   4
   0  -7   6 924.353 411.687   5
   0  -7   6 590.212 446.773   4
   0  -7   7 2100.13 543.674   5
   0  -7   7 1093.14 440.856   4
   0  -7   8 12165.2 1331.78   5
   0  -7   8 10287.4 1281.66   4
   0  -7   9 3162.19 759.061   5
   0  -7   9 3782.08 842.148   4
   0  -7  10 1833.92 592.873   5
   0  -7  10 1091.99 541.302   4
   0  -7  11 155.300 405.329   4
   0  -6  -5 462.634 311.826   4
   0  -6  -4 7675.42 943.976   4
   0  -6  -3 10681.7 1051.34   4
   0  -6  -2 722.001 144.900   1
   0  -6  -2 802.032 398.190   4
   0  -6  -1 7187.66 903.214   4
   0  -6  -1 7742.10 538.497   1
   0  -6   0 30020.5 1806.55   4
   0  -6   1 5944.40 366.879   2
   0  -6   1 8871.02 974.953   4
   0  -6   2 8085.56 634.652   5
   0  -6   2 7641.44 534.414   2
   0  -6   2 9198.87 1014.13   4
   0  -6   3 11845.0 863.393   5
   0  -6   3 11452.0 1152.21   4
   0  -6   4 11349.6 947.950   5
   0  -6   4 12008.3 1181.31   4
   0  -6   5 24335.2 1733.98   4
   0  -6   5 23254.8 1467.03   5
   0  -6   6 8199.75 933.984   5
   0  -6   6 7229.47 989.268   4
   0  -6   7 11373.0 1148.51   5
   0  -6   7 11048.7 1227.98   4
   0  -6   8 113.085 343.742   5
   0  -6   8 1.95475 307.817   4
   0  -6   9 42574.4 2554.79   5
   0  -6   9 48008.7 2668.33   4
   0  -6  10 2782.14 700.380   5
   0  -6  10 3238.20 800.189   4
   0  -6  11 313.853 387.588   5
   0  -6  11 883.381 580.016   4
   0  -6  12 490.248 451.268   4
   0  -5  -4 20692.6 1376.49   4
   0  -5  -3 3616.98 214.038   1
   0  -5  -3 8335.38 881.846   4
   0  -5  -2 88366.4 2992.49   4
   0  -5  -2 90143.4 1851.77   1
   0  -5  -1 9.84871 204.883   4
   0  -5  -1 111.934 135.058   1
   0  -5   0 53731.2 2238.34   4
   0  -5   1 31901.7 1088.72   5
   0  -5   1 30060.2 1656.84   4
   0  -5   2 57740.7 1794.79   5
   0  -5   2 60238.8 2424.48   4
   0  -5   3 17435.6 1290.84   4
   0  -5   3 18799.9 1053.11   5
   0  -5   4 10225.5 851.591   5
   0  -5   4 10752.7 1023.38   4
   0  -5   5 59494.6 2530.27   4
   0  -5   5 55073.2 2254.81   5
   0  -5   6 11999.1 1075.55   5
   0  -5   6 12020.3 1129.40   4
   0  -5   7 5399.20 796.055   5
   0  -5   7 4954.25 776.848   4
   0  -5   8 50297.3 2584.34   5
   0  -5   8 52144.9 2531.03   4
   0  -5   9 16720.5 1525.97   5
   0  -5   9 15288.9 1394.52   4
   0  -5  10 9283.61 1205.70   5
   0  -5  11 5716.65 1005.99   5
   0  -5  11 5837.48 928.650   4
   0  -5  12 413.661 434.792   5
   0  -5  12 682.241 430.590   4
   0  -4  -6 398.417 164.804   5
   0  -4  -4 9150.30 837.307   4
   0  -4  -3 105446. 2858.58   4
   0  -4  -3 70532.6 1485.72   1
   0  -4  -2 8762.79 388.779   1
   0  -4  -2 8725.56 786.505   4
   0  -4  -1 2282.95 431.035   4
   0  -4  -1 2273.37 256.883   1
   0  -4   0 145337. 2613.28   5
   0  -4   0 147532. 3758.46   4
   0  -4   1 17825.4 746.953   5
   0  -4   1 16197.7 1078.55   4
   0  -4   2 22176.7 977.968   5
   0  -4   2 20142.5 1232.78   4
   0  -4   3 16346.6 940.600   5
   0  -4   3 16018.9 1105.60   4
   0  -4   4 4482.95 557.732   5
   0  -4   4 4593.24 616.104   4
   0  -4   5 47270.9 1975.40   5
   0  -4   6 10232.2 962.640   5
   0  -4   7 8622.68 946.068   5
   0  -4   8 18393.1 1473.00   5
   0  -4   9 10434.2 1169.23   5
   0  -4  10 4407.58 863.793   5
   0  -4  11 1488.44 563.370   5
   0  -4  12 500.289 423.889   5
   0  -3  -7 1017.50 248.651   6
   0  -3  -6 2333.46 357.383   5
   0  -3  -6 2200.06 343.416   6
   0  -3  -5 31014.9 1151.92   5
   0  -3  -5 29529.6 1290.84   6
   0  -3  -4 13316.0 621.502   5
   0  -3  -3 42386.6 1601.05   4
   0  -3  -3 39389.3 990.921   1
   0  -3  -3 42560.7 992.499   5
   0  -3  -2 93435.4 1732.87   1
   0  -3  -2 93512.6 2524.05   4
   0  -3  -1 885.873 292.896   4
   0  -3  -1 506.376 134.447   1
   0  -3  -1 812.542 255.414   3
   0  -3   0 173051. 3805.94   4
   0  -3   0 171826. 2924.36   5
   0  -3   0 172630. 3782.89   3
   0  -3   1 181289. 3389.28   5
   0  -3   1 186269. 4059.78   4
   0  -3   1 187592. 4016.66   3
   0  -3   2 238506. 4943.88   4
   0  -3   2 238291. 4722.90   7
   0  -3   2 238496. 4508.28   5
   0  -3   3 61165.3 1879.09   5
   0  -3   4 14500.3 941.030   5
   0  -3   5 81711.4 2610.08   5
   0  -3   5 78039.6 2240.69   6
   0  -3   6 46313.0 2026.37   5
   0  -3   6 45080.1 1588.76   6
   0  -3   7 48716.7 2208.96   5
   0  -3   7 42989.2 1535.37   6
   0  -3   8 38035.2 2076.46   5
   0  -3   9 4273.41 740.782   5
   0  -3  10 348.846 319.980   5
   0  -3  11 18681.0 1726.08   5
   0  -3  12 1582.08 585.975   5
   0  -3  13 5599.72 1075.67   5
   0  -2  -7 2871.26 292.765   6
   0  -2  -6 15205.4 726.276   6
   0  -2  -5 160784. 3257.29   6
   0  -2  -5 157749. 3489.18   5
   0  -2  -4 26878.9 1008.88   5
   0  -2  -3 96132.0 2006.51   5
   0  -2  -2 1838.17 344.934   3
   0  -2  -2 1478.87 140.708   5
   0  -2  -2 1436.48 303.027   4
   0  -2  -2 1311.56 155.629   1
   0  -2  -1 6927.91 490.477   4
   0  -2  -1 7414.72 530.763   3
   0  -2  -1 7355.92 289.870   1
   0  -2   0 931550. 14802.5   3
   0  -2   0 952879. 14851.5   4
   0  -2   0 939401. 14123.2   5
   0  -2   1 7569.94 531.245   4
   0  -2   1 7653.11 415.014   5
   0  -2   2 52876.7 1472.02   5
   0  -2   3 58087.3 1754.91   5
   0  -2   4 20303.2 1069.74   5
   0  -2   5 82966.6 2588.41   5
   0  -2   5 83611.3 1989.77   6
   0  -2   6 39090.2 1189.38   6
   0  -2   6 37487.2 1762.15   5
   0  -2   7 47218.9 2114.39   5
   0  -2   8 2711.92 532.102   5
   0  -2   9 8801.74 1029.50   5
   0  -2  10 9059.96 1103.48   5
   0  -2  11 1416.69 486.868   5
   0  -2  12 5575.21 983.558   5
   0  -2  13 989.186 565.477   5
   0  -1  -5 174934. 3033.41   6
   0  -1  -5 174980. 3847.33   5
   0  -1  -4 71488.8 1917.31   5
   0  -1  -4 70204.4 1474.17   6
   0  -1  -3 34226.7 1084.96   5
   0  -1  -2 41719.4 1011.76   5
   0  -1  -1 108165. 2036.30   4
   0  -1  -1 102064. 2089.63   3
   0  -1   2 536.446 200.184   5
   0  -1   3 2179.36 317.496   5
   0  -1   4 39152.1 936.694   6
   0  -1   4 41219.3 1496.12   5
   0  -1   5 82051.2 2471.48   5
   0  -1   6 3968.48 545.103   5
   0  -1   7 6009.28 718.765   5
   0  -1   8 4694.74 673.312   5
   0  -1   9 8455.92 983.820   5
   0  -1  10 895.349 407.680   5
   0  -1  11 42189.8 2486.72   5
   0  -1  12 6267.82 1019.25   5
   0  -1  13 1943.22 695.761   5
   0   0   2 36947.0 1018.08   5
   0   0   3 21679.1 880.091   5
   0   0   4 81056.1 2179.52   5
   0   0   5 248013. 5111.91   5
   0   0   6 53415.5 1997.59   5
   0   0   7 4902.19 649.152   5
   0   0   8 241.385 260.957   5
   0   0   9 6635.71 865.237   5
   0   0  10 5723.03 828.568   5
   0   0  11 3029.93 661.504   5
   0   0  12 7624.54 1079.27   5
   0   0  13 5804.82 1018.65   5
   0   0  14 2309.43 707.226   5
   0   1   1 109607. 2126.97   7
   0   1   2 40855.9 999.809   5
   0   1   2 41701.3 981.680   1
   0   1   2 39681.9 1123.96   7
   0   1   3 34701.2 1070.34   1
   0   1   3 35458.3 1093.59   5
   0   1   4 65281.1 1838.59   5
   0   1   4 69432.4 1840.00   1
   0   1   5 173692. 3832.30   5
   0   1   5 177235. 3820.73   1
   0   1   6 1126.00 336.351   5
   0   1   7 1603.05 412.015   5
   0   1   8 1512.42 420.800   5
   0   1   9 3018.78 605.899   5
   0   1   9 2855.83 453.953   7
   0   1  10 675.214 344.547   5
   0   1  10 457.133 240.454   7
   0   1  11 11230.2 1217.02   5
   0   1  12 120.343 288.993   5
   0   1  13 710.561 407.331   5
   0   1  14 476.625 368.674   2
   0   2  -2 53460.0 1481.27   5
   0   2  -1 6948.22 385.699   5
   0   2   0 927037. 13991.4   5
   0   2   0 932288. 14700.1   7
   0   2   1 7300.64 520.359   7
   0   2   2 1540.52 289.153   7
   0   2   2 1281.59 253.431   4
   0   2   2 1345.93 141.571   1
   0   2   3 97892.0 2017.51   5
   0   2   3 90943.7 1946.44   1
   0   2   3 99986.8 2354.66   4
   0   2   3 96875.5 2419.13   7
   0   2   4 27542.9 1032.33   5
   0   2   4 27381.8 992.756   1
   0   2   4 28487.2 1148.79   4
   0   2   4 30245.6 1242.24   7
   0   2   5 156915. 3483.95   5
   0   2   5 157080. 3644.06   7
   0   2   5 158102. 3413.13   1
   0   2   5 162264. 3562.38   4
   0   2   6 15952.8 973.275   5
   0   2   6 15568.6 914.594   1
   0   2   6 15384.3 971.233   7
   0   2   7 3421.97 492.022   5
   0   2   7 3365.70 495.051   7
   0   2   8 708.101 256.954   5
   0   2   8 827.090 274.076   7
   0   2   9 48008.5 2222.87   5
   0   2   9 48452.8 2004.14   7
   0   2  10 25104.6 1694.19   5
   0   2  10 26411.7 1474.59   7
   0   2  11 11719.4 1227.86   5
   0   2  12 583.757 448.668   5
   0   2  13 2736.06 774.662   2
   0   2  14 2073.30 708.381   2
   0   3  -3 67815.5 1999.98   5
   0   3  -2 239344. 4517.21   5
   0   3  -1 176495. 3301.61   5
   0   3   1 510.743 253.728   7
   0   3   2 101215. 2564.15   4
   0   3   2 95391.3 2607.14   7
   0   3   3 40593.9 1606.13   7
   0   3   3 41740.4 1110.77   2
   0   3   3 38028.1 993.793   1
   0   3   4 14221.2 946.223   7
   0   3   4 12678.2 591.538   1
   0   3   5 30634.7 1094.19   1
   0   3   5 31363.3 1486.75   7
   0   3   5 31172.0 1617.42   3
   0   3   6 1887.82 475.668   3
   0   3   6 2305.73 372.382   5
   0   3   6 2726.50 479.863   7
   0   3   6 2556.13 345.801   1
   0   3   7 1321.12 463.826   3
   0   3   7 1059.71 297.950   5
   0   3   7 760.412 330.887   7
   0   3   8 276.784 173.707   5
   0   3   8 362.972 258.308   7
   0   3   9 437.660 402.098   3
   0   3   9 496.618 276.328   5
   0   3   9 482.324 309.035   7
   0   3  10 2675.62 691.717   3
   0   3  10 3034.30 571.175   7
   0   3  11 15950.5 1446.89   2
   0   3  11 13570.1 1181.75   7
   0   3  11 15179.8 1558.25   3
   0   3  12 2908.40 791.655   3
   0   3  12 4532.85 834.011   2
   0   3  13 978.617 556.522   3
   0   3  13 1316.27 492.169   2
   0   3  14 1726.76 596.537   2
   0   4  -2 22090.9 976.310   5
   0   4   2 8010.46 787.181   3
   0   4   2 7894.80 788.869   7
   0   4   3 104613. 3136.21   3
   0   4   3 105824. 1999.85   2
   0   4   3 103364. 3154.68   7
   0   4   4 9366.13 519.590   2
   0   4   4 9474.63 868.517   7
   0   4   4 9156.49 887.139   3
   0   4   5 11589.6 998.698   7
   0   4   5 13627.1 754.318   2
   0   4   5 12935.2 1101.82   3
   0   4   5 12111.5 595.250   1
   0   4   6 532.532 152.390   1
   0   4   6 589.191 239.170   2
   0   4   6 512.419 306.957   7
   0   4   6 867.526 326.722   3
   0   4   7 3751.98 727.586   3
   0   4   7 4618.36 570.687   2
   0   4   7 4019.07 635.916   7
   0   4   8-15.6621 332.986   3
   0   4   8 343.782 233.321   2
   0   4   8-68.5827 271.678   7
   0   4   9 12280.7 1077.37   2
   0   4   9 10060.3 1069.25   7
   0   4   9 11458.8 1274.53   3
   0   4  10 1654.86 578.009   3
   0   4  10 859.874 306.192   2
   0   4  10 1121.33 410.917   7
   0   4  11 1666.31 636.136   3
   0   4  11 1076.29 418.407   2
   0   4  11 1067.32 384.731   7
   0   4  12-179.268 475.741   3
   0   4  12 1427.87 474.861   2
   0   5   1 15.2129 299.880   3
   0   5   2 88974.6 3026.33   3
   0   5   3 7945.03 867.523   7
   0   5   3 8344.12 881.791   3
   0   5   4 22297.5 696.081   2
   0   5   4 20356.7 1426.48   7
   0   5   4 21783.7 1467.95   3
   0   5   5 17872.2 792.508   2
   0   5   5 16561.8 1342.78   3
   0   5   5 16331.0 1300.02   7
   0   5   6-54.5263 133.472   2
   0   5   6 103.661 305.252   7
   0   5   6 246.489 361.713   3
   0   5   7 11474.7 1156.30   7
   0   5   7 11641.3 848.069   2
   0   5   7 10231.4 1168.16   3
   0   5   8 14182.9 1311.65   7
   0   5   8 15031.3 1439.14   3
   0   5   9 2443.92 663.726   3
   0   5   9 1731.24 577.753   7
   0   5  10 932.168 399.596   7
   0   5  10 1407.46 561.033   3
   0   5  11 6549.49 1003.46   7
   0   5  11 7701.27 1165.58   3
   0   6   2 1125.09 399.833   3
   0   6   3 10575.3 1119.13   3
   0   6   4 8157.59 1015.90   3
   0   6   5 850.559 379.796   7
   0   6   5 1187.21 469.733   3
   0   6   6 682.121 353.705   7
   0   6   6 793.094 497.037   3
   0   6   7 2123.51 549.959   7
   0   6   7 1684.84 521.173   3
   0   6   8 961.812 465.619   7
   0   6   8 3169.75 774.271   3
   0   6   9 2864.31 689.066   7
   0   6   9 3380.22 779.771   3
   0   6  10 2248.03 633.936   7
   0   6  10 1870.89 640.091   3
   0   7   3 925.224 467.485   3
   0   7   4-454.999 447.452   3
   0   7   5 2702.96 734.926   3
   0   7   6-144.595 285.574   3
   0   7   7 5812.63 1019.61   3
   0   7   8 4066.27 890.904   3
   0   7   9-96.0405 440.663   3
   0   8   4 3822.52 815.525   3
   0   8   5 54.0707 454.797   3
   0   8   6 324.456 356.548   3
   0   8   7 1904.16 687.322   3
   0   8   8 1947.54 744.866   3
   0   9   5 5613.45 1070.09   3
   1  -9  -5 1110.58 517.934   4
   1  -9  -4 4145.69 948.081   4
   1  -9  -3-168.795 318.129   4
   1  -9  -2 1570.01 646.767   4
   1  -9  -1 386.428 372.625   4
   1  -9   0 925.930 502.755   4
   1  -9   1-526.238 415.116   4
   1  -9   2 1174.89 501.185   4
   1  -9   3 1100.77 579.554   4
   1  -8  -5 1481.76 559.478   4
   1  -8  -4 572.261 394.140   4
   1  -8  -3 8621.94 1167.63   4
   1  -8  -2 4662.57 893.377   4
   1  -8  -1 556.484 371.637   4
   1  -8   0 11038.3 1333.06   4
   1  -8   1 125.638 335.910   4
   1  -8   2 629.261 448.142   4
   1  -8   3 2506.60 699.764   4
   1  -8   4 1091.33 495.645   4
   1  -8   5 8668.32 1268.67   4
   1  -8   6 427.974 426.156   4
   1  -8   7 957.140 567.346   4
   1  -7  -5 1064.99 445.186   4
   1  -7  -4 3421.71 705.605   4
   1  -7  -3 6521.54 930.512   4
   1  -7  -2 25219.7 1858.42   4
   1  -7  -1 10337.4 1202.17   4
   1  -7   0 1412.67 498.078   4
   1  -7   1 770.229 356.690   4
   1  -7   2 7973.23 1071.41   4
   1  -7   3 12220.0 1339.20   4
   1  -7   4 10208.0 1256.29   4
   1  -7   5 11357.9 1042.99   5
   1  -7   5 10745.3 1315.44   4
   1  -7   6 1690.21 493.230   5
   1  -7   6 2128.27 628.985   4
   1  -7   7 1085.90 414.348   5
   1  -7   7 355.624 348.585   4
   1  -7   8 3153.46 736.069   5
   1  -7   8 3993.60 883.995   4
   1  -7   9 13000.9 1424.15   5
   1  -7   9 11432.4 1443.14   4
   1  -7  10 499.745 399.085   5
   1  -7  10 828.045 532.340   4
   1  -6  -5 3591.18 697.462   4
   1  -6  -4 175.528 345.827   4
   1  -6  -3 682.743 415.109   4
   1  -6  -2 3775.67 672.151   4
   1  -6  -1 14040.8 1247.49   4
   1  -6   0 23117.0 1632.64   4
   1  -6   1 187.077 123.721   5
   1  -6   1 264.434 344.551   4
   1  -6   2 10265.4 712.398   5
   1  -6   2 9767.54 1092.47   4
   1  -6   3 19236.8 1108.26   5
   1  -6   3 16297.8 1432.96   4
   1  -6   4 5547.40 667.038   5
   1  -6   4 5181.63 857.174   4
   1  -6   5 6869.95 779.978   5
   1  -6   5 7879.75 1027.19   4
   1  -6   6 4398.05 676.036   5
   1  -6   6 4208.37 795.594   4
   1  -6   7 12555.7 1225.93   5
   1  -6   7 12823.4 1370.66   4
   1  -6   8 22304.8 1738.76   5
   1  -6   8 24032.6 1904.33   4
   1  -6   9 6890.92 1030.10   5
   1  -6   9 9872.60 1248.75   4
   1  -6  10 8712.09 1213.16   5
   1  -6  10 10130.0 1327.48   4
   1  -6  11-578.990 467.712   5
   1  -6  11 663.966 464.312   4
   1  -6  12 79.1028 349.053   4
   1  -5  -5 8448.63 913.325   4
   1  -5  -4 9136.40 940.211   4
   1  -5  -3 18477.2 1324.36   4
   1  -5  -2 14994.1 1161.51   4
   1  -5  -1 16668.6 1231.34   4
   1  -5  -1 15885.4 491.898   1
   1  -5   0 77.2479 96.4895   1
   1  -5   0 219.563 73.6245   5
   1  -5   0 276.536 224.203   4
   1  -5   0 118.632 61.7753   2
   1  -5   1 3911.42 634.061   4
   1  -5   1 4395.99 394.832   5
   1  -5   2 21550.3 1478.23   4
   1  -5   2 23397.4 1083.11   5
   1  -5   3 33446.5 1871.94   4
   1  -5   3 33111.3 1442.31   5
   1  -5   4 15256.8 1270.42   4
   1  -5   4 15659.6 1068.38   5
   1  -5   5 7738.57 951.929   4
   1  -5   5 8718.91 866.672   5
   1  -5   6 610.038 329.257   5
   1  -5   7 20045.8 1481.31   5
   1  -5   8 37308.7 2160.29   5
   1  -5   9 28718.4 2003.42   5
   1  -5  10 389.180 367.299   5
   1  -5  11 7260.57 1129.99   5
   1  -5  12 5256.60 1005.62   5
   1  -4  -5 24459.9 1391.07   4
   1  -4  -5 19899.2 881.354   5
   1  -4  -4 13176.3 597.488   5
   1  -4  -4 15469.1 1071.92   4
   1  -4  -3 4530.01 275.985   5
   1  -4  -3 6261.73 687.434   4
   1  -4  -2 16560.1 502.653   5
   1  -4  -2 38177.1 1629.70   4
   1  -4  -1 4336.38 291.890   2
   1  -4  -1 3419.24 222.361   1
   1  -4  -1 6375.33 690.375   4
   1  -4  -1 6299.85 260.351   1
   1  -4  -1 5457.66 287.554   5
   1  -4   0 85227.6 2775.53   4
   1  -4   0 87925.0 1822.57   2
   1  -4   0 86721.1 1950.64   1
   1  -4   0 89275.1 1890.01   5
   1  -4   1 274.166 127.353   5
   1  -4   1 269.963 267.141   4
   1  -4   2 168.965 189.896   5
   1  -4   2 233.735 257.952   4
   1  -4   3 62132.4 2407.99   4
   1  -4   3 64459.5 2051.97   5
   1  -4   4 31898.0 1505.38   5
   1  -4   5 12184.2 986.821   5
   1  -4   6-252.699 302.159   5
   1  -4   7 5911.72 794.806   5
   1  -4   8 34162.5 2004.06   5
   1  -4   9 19711.3 1616.21   5
   1  -4  10 11598.7 1293.18   5
   1  -4  11 6150.05 1034.99   5
   1  -4  12 4670.65 936.626   5
   1  -3  -5 12804.8 753.102   5
   1  -3  -4 617.360 171.610   5
   1  -3  -4 1372.59 346.683   4
   1  -3  -3 3158.71 284.687   5
   1  -3  -3 2285.33 329.955   4
   1  -3  -2 904.412 262.459   4
   1  -3  -1 33640.8 907.761   2
   1  -3  -1 31503.4 1371.12   4
   1  -3   0 91925.8 2630.45   4
   1  -3   0 91867.7 1906.11   1
   1  -3   0 96891.0 1959.52   5
   1  -3   1 2451.93 274.835   5
   1  -3   1 2665.15 449.906   4
   1  -3   2 121936. 2785.00   5
   1  -3   3 13131.3 836.955   5
   1  -3   4 35822.1 1530.07   5
   1  -3   5 36872.7 1688.61   5
   1  -3   6 9487.27 892.715   5
   1  -3   7 30783.4 1759.44   5
   1  -3   8 52280.6 2474.39   5
   1  -3   9 8804.05 1052.14   5
   1  -3  10 952.635 459.668   5
   1  -3  11 1106.46 538.121   5
   1  -3  12 9823.93 1305.19   5
   1  -3  13 11550.9 1498.64   5
   1  -2  -5 37382.8 1363.45   6
   1  -2  -5 37389.7 1447.46   5
   1  -2  -4 26497.3 1073.01   5
   1  -2  -4 27569.3 1149.41   6
   1  -2  -3 9869.33 565.093   5
   1  -2  -3 9758.51 717.235   7
   1  -2  -3 9170.69 601.151   4
   1  -2  -3 9502.04 657.498   6
   1  -2  -2 696.545 274.824   3
   1  -2  -2 582.778 204.390   4
   1  -2  -2 423.388 234.479   6
   1  -2  -1 72373.2 1580.54   2
   1  -2  -1 74089.1 2120.64   3
   1  -2  -1 73387.2 1930.80   4
   1  -2  -1 75311.6 2063.77   6
   1  -2   0 139249. 3043.02   4
   1  -2   0 138958. 2471.89   1
   1  -2   0 135671. 3128.49   3
   1  -2   0 141266. 3157.20   6
   1  -2   1 40861.0 1164.71   1
   1  -2   1 41126.7 1441.61   3
   1  -2   1 42232.7 1451.89   6
   1  -2   1 40183.4 1152.99   5
   1  -2   2 9937.00 668.087   6
   1  -2   2 9384.02 590.821   5
   1  -2   3 134471. 3060.05   6
   1  -2   3 129259. 3033.81   5
   1  -2   4 107236. 2640.71   6
   1  -2   4 111134. 2895.72   5
   1  -2   5 105053. 2572.16   6
   1  -2   5 106319. 3014.20   5
   1  -2   6 17647.1 1183.95   5
   1  -2   7 28727.3 1632.27   5
   1  -2   8 48050.4 2301.71   5
   1  -2   9 50828.0 2487.02   5
   1  -2  10 14760.2 1400.70   5
   1  -2  11 7286.75 1050.82   5
   1  -2  12 2429.35 656.078   5
   1  -2  13 19738.0 1903.24   5
   1  -1  -4 6181.65 536.854   5
   1  -1  -3 7998.71 534.548   5
   1  -1  -3 7953.85 527.534   7
   1  -1  -3 8043.24 503.352   6
   1  -1  -2 6613.57 441.723   2
   1  -1  -2 6501.34 362.415   4
   1  -1  -2 5713.67 431.824   7
   1  -1  -2 6103.30 433.068   6
   1  -1  -1 322.545 186.389   3
   1  -1  -1 903.322 181.747   4
   1  -1  -1 233.960 121.610   2
   1  -1  -1 572.159 181.708   6
   1  -1   0 169741. 2830.55   1
   1  -1   0 173825. 3307.52   6
   1  -1   0 168135. 3261.22   3
   1  -1   1 38758.8 1177.25   6
   1  -1   2 270005. 4809.86   6
   1  -1   2 270765. 4835.59   5
   1  -1   3 1482.91 286.216   5
   1  -1   3 1915.78 265.948   6
   1  -1   4 28299.5 1229.75   5
   1  -1   5 113109. 3047.99   5
   1  -1   6 30326.4 1512.71   5
   1  -1   7 12702.5 1044.32   5
   1  -1   8 46390.2 2176.34   5
   1  -1   9 25927.5 1694.62   5
   1  -1  10 15055.9 1371.51   5
   1  -1  11 12671.5 1333.96   5
   1  -1  12 6020.44 1001.55   5
   1  -1  13 3033.20 769.712   5
   1  -1  14 236.417 369.406   5
   1   0  -2 67728.8 1349.94   7
   1   0   3 21695.9 900.826   5
   1   0   4 61206.4 1838.01   5
   1   0   5 124188. 3156.46   5
   1   0   6 44251.8 1795.59   5
   1   0   7 10840.3 930.228   5
   1   0   8 1394.75 391.213   5
   1   0   9 4299.63 676.620   5
   1   0  10 16935.4 1405.18   5
   1   0  11 7164.39 1005.53   5
   1   0  12 7415.81 1047.83   5
   1   0  13 11564.1 1409.37   5
   1   0  14 3394.68 842.515   5
   1   1   3 276801. 4934.63   5
   1   1   4 72057.6 2017.37   1
   1   1   4 74082.1 1973.85   5
   1   1   5 152757. 3540.23   1
   1   1   5 146343. 3447.85   5
   1   1   6 43239.8 1715.72   5
   1   1   7 38765.5 1750.46   5
   1   1   8 32557.6 1691.52   5
   1   1   9 13775.6 1174.86   5
   1   1  10 7184.57 908.480   5
   1   1  11 16396.4 1443.97   5
   1   1  12 841.376 455.757   5
   1   1  13 556.724 376.259   5
   1   1  14 537.745 342.121   5
   1   2  -1 141069. 2659.00   7
   1   2   0 173345. 2994.80   2
   1   2   0 176628. 3294.72   7
   1   2   1 72413.3 1600.03   3
   1   2   2 7889.23 483.958   3
   1   2   2 8090.03 470.629   1
   1   2   3 84420.5 2030.34   1
   1   2   3 86853.2 2177.93   3
   1   2   3 88495.7 1922.05   5
   1   2   4 265997. 4951.25   1
   1   2   4 257417. 4810.54   5
   1   2   5 23603.2 1100.44   1
   1   2   5 23981.6 1080.89   5
   1   2   6 12241.9 844.784   5
   1   2   7 11018.4 870.788   5
   1   2   8 26844.2 1500.24   5
   1   2   9 6478.17 801.910   5
   1   2  10 22020.2 1547.43   5
   1   2  11 621.329 351.697   5
   1   2  12 235.926 419.211   5
   1   2  13 914.488 509.814   5
   1   2  14 969.884 505.475   5
   1   3  -3 531.026 214.840   5
   1   3  -2 68863.4 1880.68   5
   1   3  -1 252662. 4499.22   5
   1   3  -1 245562. 4692.14   7
   1   3   0 96295.7 1943.70   5
   1   3   0 94065.6 2368.67   7
   1   3   1 40413.2 1455.63   7
   1   3   1 40677.3 871.481   2
   1   3   1 42560.2 1367.41   3
   1   3   2 2265.80 392.577   7
   1   3   2 2123.83 276.450   1
   1   3   2 2691.59 391.115   3
   1   3   3 106888. 2707.95   3
   1   3   3 105659. 2883.52   7
   1   3   3 107453. 2405.96   1
   1   3   3 110328. 2121.89   5
   1   3   4 69340.6 2239.84   7
   1   3   4 66888.2 2135.94   3
   1   3   4 63067.5 1805.92   1
   1   3   4 66773.5 1664.66   5
   1   3   5 146754. 3349.50   1
   1   3   5 150359. 3829.00   3
   1   3   5 154781. 3261.80   5
   1   3   6 5163.26 671.104   3
   1   3   6 5203.54 520.360   5
   1   3   7 9445.13 766.484   5
   1   3   7 9095.34 864.380   7
   1   3   8 19434.8 1207.14   5
   1   3   8 19349.0 1305.05   7
   1   3   9 15952.1 1188.30   5
   1   3   9 15980.2 1240.68   7
   1   3  10 9016.79 964.768   5
   1   3  10 9278.49 991.330   7
   1   3  11 34351.6 2007.23   5
   1   3  11 30648.0 1852.71   7
   1   3  12 9009.06 1107.05   5
   1   3  12 6616.17 877.162   7
   1   3  13 3229.14 705.868   5
   1   4  -2 30222.7 1202.60   5
   1   4  -1 102882. 2763.84   7
   1   4  -1 105231. 2359.34   5
   1   4   0 244933. 5075.53   7
   1   4   0 236330. 4152.91   5
   1   4   1 6725.34 610.715   3
   1   4   1 6716.28 656.635   7
   1   4   2 16485.9 987.708   3
   1   4   2 16615.8 1058.63   7
   1   4   3 66121.6 2176.12   7
   1   4   3 61658.8 1974.59   3
   1   4   4 124430. 2390.56   5
   1   4   4 125322. 3383.97   3
   1   4   4 127392. 3520.34   7
   1   4   4 119741. 2752.06   1
   1   4   5 3263.66 321.612   5
   1   4   5 4203.45 616.878   7
   1   4   5 3314.44 373.022   1
   1   4   5 2292.56 431.007   3
   1   4   6 635.901 356.983   3
   1   4   6 404.536 164.718   1
   1   4   6 837.639 220.732   5
   1   4   6 1212.62 372.186   7
   1   4   7 1011.45 400.992   3
   1   4   7 929.651 267.548   5
   1   4   7 928.323 397.227   7
   1   4   8 17071.2 1085.36   5
   1   4   8 15621.4 1277.59   7
   1   4   8 15831.1 1346.02   3
   1   4   9 2087.04 576.667   3
   1   4   9 2099.71 436.807   5
   1   4   9 2360.87 531.548   7
   1   4  10 4411.40 829.248   3
   1   4  10 5536.59 736.335   5
   1   4  10 4477.81 765.116   7
   1   4  11 905.480 512.687   3
   1   4  11 488.278 259.546   5
   1   4  11 1403.66 492.166   7
   1   4  12 401.775 480.539   3
   1   4  12 715.825 366.461   7
   1   4  13 3136.72 818.879   3
   1   5  -2 18771.3 968.509   5
   1   5  -1 27956.6 1056.98   5
   1   5   0 20791.3 1247.19   7
   1   5   0 17888.6 681.565   5
   1   5   1-196.200 277.129   7
   1   5   2 27090.4 1426.50   3
   1   5   2 27042.8 1526.47   7
   1   5   3 39480.7 1914.92   7
   1   5   3 39251.2 1788.15   3
   1   5   4 30828.5 897.189   2
   1   5   4 35369.6 1751.26   3
   1   5   4 35622.0 1835.02   7
   1   5   5 53987.2 2337.69   7
   1   5   5 49038.2 2162.33   3
   1   5   6 4578.62 717.058   7
   1   5   6 4201.95 667.480   3
   1   5   7 2036.17 501.920   7
   1   5   7 1572.91 516.994   3
   1   5   8 13542.1 1255.51   7
   1   5   8 12059.2 1240.79   3
   1   5   9 6397.01 896.039   7
   1   5   9 4111.18 776.298   3
   1   5  10 4430.23 854.307   3
   1   5  10 3209.56 685.071   7
   1   5  11 428.126 455.113   3
   1   5  11 528.502 397.896   7
   1   5  12 988.180 476.276   3
   1   5  12 948.323 499.257   7
   1   6  -1 17031.7 821.822   5
   1   6   1 2338.86 494.159   7
   1   6   2 11425.1 1038.43   3
   1   6   2 11001.8 1060.32   7
   1   6   3 50438.0 2256.30   3
   1   6   3 47760.8 2318.90   7
   1   6   4 44242.4 2147.92   3
   1   6   4 40258.0 2168.44   7
   1   6   5 17092.6 1376.76   3
   1   6   5 17711.6 1446.07   7
   1   6   6 2922.38 625.239   7
   1   6   6 2225.72 594.183   3
   1   6   7 4903.55 831.864   7
   1   6   7 6346.56 938.774   3
   1   6   8 9183.24 1122.42   7
   1   6   8 9062.36 1134.56   3
   1   6   9 5308.52 881.326   7
   1   6   9 4387.46 862.397   3
   1   6  10 5092.23 900.525   7
   1   6  10 6905.72 1072.32   3
   1   6  11 2103.05 665.016   7
   1   6  11 1630.24 635.221   3
   1   6  12-164.087 316.657   7
   1   7   3-55.5935 279.835   7
   1   7   3 71.4063 298.807   3
   1   7   4 480.674 383.651   7
   1   7   4 518.107 342.999   3
   1   7   5 1115.69 495.576   7
   1   7   5 726.008 420.678   3
   1   7   6 793.348 410.323   7
   1   7   6-15.7042 315.487   3
   1   7   7 1267.02 484.602   7
   1   7   7 856.061 477.809   3
   1   7   8 4354.57 868.301   7
   1   7   8 3204.80 786.869   3
   1   7   9 507.151 476.539   7
   1   7   9 132.718 359.604   3
   1   7  10 2713.46 726.723   7
   1   7  10 1121.72 614.402   3
   1   7  11 76.2268 340.505   7
   1   8   4 7834.18 1065.66   3
   1   8   5 3098.26 757.388   3
   1   8   6 519.024 419.618   7
   1   8   6 1606.87 595.681   3
   1   8   7 4101.34 904.676   7
   1   8   7 3018.47 747.894   3
   1   8   8 3991.09 889.706   7
   1   8   8 3669.04 828.793   3
   1   8   9 511.859 470.278   3
   1   9   6 173.685 403.113   3
   1   9   7 557.441 486.304   3
   2  -8  -5 4712.51 960.402   4
   2  -8  -4 4687.33 930.992   4
   2  -8  -3 5368.45 1008.91   4
   2  -8  -2 9549.61 1268.12   4
   2  -8  -1 2043.27 720.807   4
   2  -8   0 2817.81 722.209   4
   2  -8   1 367.880 314.201   4
   2  -8   2 596.218 424.893   4
   2  -8   3 4493.72 875.842   4
   2  -8   4 1322.46 568.182   4
   2  -8   5 2038.21 682.009   4
   2  -7  -5 2018.17 600.768   4
   2  -7  -4 1681.48 567.415   4
   2  -7  -3 6658.42 992.228   4
   2  -7  -2 4865.44 862.875   4
   2  -7  -1 2085.93 604.152   4
   2  -7   0 11210.1 1288.59   4
   2  -7   1 891.824 488.035   4
   2  -7   2 7984.48 1102.49   4
   2  -7   3 8019.31 1167.89   4
   2  -7   4 4731.67 895.587   4
   2  -7   5-537.347 341.365   4
   2  -7   6 114.793 363.238   4
   2  -7   7 1238.06 555.995   4
   2  -7   8 8266.64 1118.60   5
   2  -7   8 10688.7 1429.74   4
   2  -7   9 471.530 388.280   5
   2  -7  10 2053.45 656.263   5
   2  -6  -5 11766.8 1211.74   4
   2  -6  -4 8399.81 1014.22   4
   2  -6  -3 9018.25 1037.04   4
   2  -6  -2 5711.00 839.509   4
   2  -6  -1 12469.3 1230.35   4
   2  -6   0 16683.9 1437.34   4
   2  -6   1 27246.5 1868.54   4
   2  -6   2 1395.46 314.798   5
   2  -6   2 1069.04 429.737   4
   2  -6   3 14194.2 1407.63   4
   2  -6   3 15279.1 1030.22   5
   2  -6   4 9724.32 1199.95   4
   2  -6   4 9368.72 896.025   5
   2  -6   5 5493.96 738.771   5
   2  -6   5 6300.15 967.096   4
   2  -6   6 3205.97 604.489   5
   2  -6   6 3830.03 810.675   4
   2  -6   7 3669.81 680.158   5
   2  -6   7 3235.60 721.386   4
   2  -6   8 19899.9 1664.16   5
   2  -6   8 17199.0 1680.82   4
   2  -6   9 4312.43 859.725   5
   2  -6   9 5492.37 992.817   4
   2  -6  10 310.348 358.211   5
   2  -6  10 575.046 456.744   4
   2  -6  11-456.349 375.941   5
   2  -5  -5 5095.50 722.100   4
   2  -5  -4 16569.3 1287.24   4
   2  -5  -3 22174.1 1482.48   4
   2  -5  -2 4482.99 693.931   4
   2  -5  -1 8360.95 915.808   4
   2  -5  -1 7191.03 456.859   5
   2  -5   0 1189.66 210.102   5
   2  -5   0 1585.83 479.480   4
   2  -5   1 5579.89 787.942   4
   2  -5   1 3874.58 414.265   5
   2  -5   2 10417.1 1081.49   4
   2  -5   2 11556.3 809.043   5
   2  -5   3 15708.7 1330.95   4
   2  -5   3 15885.5 1045.43   5
   2  -5   4 928.675 314.603   5
   2  -5   4 1002.22 408.180   4
   2  -5   5 1805.58 447.325   5
   2  -5   6 72.1367 248.332   5
   2  -5   7 1564.28 407.682   5
   2  -5   8 34647.3 2150.90   5
   2  -5   9 6562.02 972.942   5
   2  -5  10 2758.19 670.158   5
   2  -5  11 1460.40 583.529   5
   2  -4  -5 18668.5 1224.66   4
   2  -4  -4 27731.1 1469.61   4
   2  -4  -3 49148.8 1460.41   5
   2  -4  -3 55935.3 2148.26   4
   2  -4  -2 11502.5 659.697   2
   2  -4  -2 13122.0 1003.95   4
   2  -4  -1 9621.10 580.611   2
   2  -4  -1 9998.46 882.111   4
   2  -4   0 12415.4 556.263   1
   2  -4   0 12637.4 1022.11   4
   2  -4   0 11939.3 674.419   2
   2  -4   1 37139.2 1290.94   1
   2  -4   1 34998.7 1784.17   4
   2  -4   1 37408.5 1364.88   5
   2  -4   2 16353.6 1222.38   4
   2  -4   2 16616.1 939.561   1
   2  -4   2 14664.8 881.309   5
   2  -4   3 6168.63 630.747   5
   2  -4   4 16082.6 1091.89   5
   2  -4   5 1851.03 455.351   5
   2  -4   6 7175.85 837.159   5
   2  -4   7 4810.32 719.067   5
   2  -4   8 39292.7 2219.54   5
   2  -4   9 13146.4 1326.24   5
   2  -4  10 15559.9 1519.25   5
   2  -4  11 4027.64 855.851   5
   2  -4  12 11892.1 1474.25   5
   2  -3  -4 27562.9 1180.36   5
   2  -3  -4 29201.2 1324.64   4
   2  -3  -3 64305.3 2109.06   4
   2  -3  -2 30230.7 1136.01   2
   2  -3  -2 30588.0 1382.10   4
   2  -3  -1 1073.73 334.218   4
   2  -3  -1 921.634 181.989   2
   2  -3   0 9292.21 467.057   1
   2  -3   0 8760.36 770.580   4
   2  -3   0 10285.9 620.073   2
   2  -3   1 10901.9 618.359   1
   2  -3   2 29093.6 1232.45   1
   2  -3   2 29968.5 1247.66   5
   2  -3   3 26700.4 1282.17   5
   2  -3   4 35155.0 1593.87   5
   2  -3   5 897.134 327.213   5
   2  -3   6 8833.81 908.197   5
   2  -3   7 18827.1 1389.11   5
   2  -3   8 12310.2 1203.44   5
   2  -3   9 1281.43 453.483   5
   2  -3  10 669.840 483.974   5
   2  -3  11 5281.80 903.560   5
   2  -3  12 14236.7 1564.19   5
   2  -3  13 20830.0 1983.51   5
   2  -2  -4 11873.8 791.544   5
   2  -2  -4 14019.3 755.652   4
   2  -2  -3 16392.5 898.175   2
   2  -2  -3 15020.1 798.900   4
   2  -2  -2 236.203 117.032   2
   2  -2  -2 200.838 158.364   4
   2  -2  -1 6153.32 477.285   2
   2  -2  -1 6066.97 526.022   4
   2  -2   0 95.4798 74.7030   1
   2  -2   1 16355.2 735.702   1
   2  -2   2 139750. 3134.47   1
   2  -2   3 52599.6 1792.87   1
   2  -2   3 52021.3 1779.11   5
   2  -2   4 24766.1 1266.09   5
   2  -2   5 295.572 242.767   5
   2  -2   6 25362.7 1477.35   5
   2  -2   7 40830.3 2019.73   5
   2  -2   8 88731.9 3296.05   5
   2  -2   9 4749.36 793.782   5
   2  -2  10 13708.1 1363.84   5
   2  -2  11 5736.81 937.705   5
   2  -2  12 11769.9 1412.17   5
   2  -2  13 17540.7 1773.62   5
   2  -1  -4 42779.8 1481.80   7
   2  -1  -3 44084.2 1557.09   2
   2  -1  -3 42994.8 1141.44   4
   2  -1  -3 43441.3 1455.32   7
   2  -1  -2 36420.1 1304.65   2
   2  -1  -2 37605.1 1079.90   4
   2  -1  -1 62948.3 1732.34   2
   2  -1  -1 63847.2 1920.82   3
   2  -1   0 394.817 122.898   1
   2  -1   0 583.185 227.465   3
   2  -1   1 269.403 165.407   1
   2  -1   1 187.171 177.621   3
   2  -1   2 4646.79 446.071   1
   2  -1   4 7860.95 681.246   5
   2  -1   5 455.461 248.172   5
   2  -1   6 35204.1 1693.24   5
   2  -1   7 77157.8 2794.14   5
   2  -1   8 52385.6 2382.12   5
   2  -1   9 1017.71 372.484   5
   2  -1  10 10677.0 1164.64   5
   2  -1  11 19864.7 1671.68   5
   2  -1  12 29355.7 2154.48   5
   2  -1  13 8812.31 1233.31   5
   2   0  -4 698.807 169.801   7
   2   0  -3 7553.95 447.009   7
   2   0   0 23484.5 836.223   3
   2   0   0 23872.5 850.796   1
   2   0   1 66722.7 1550.82   3
   2   0   4 4777.35 510.297   5
   2   0   5 2231.61 396.776   5
   2   0   6 2769.91 461.639   5
   2   0   7 12160.9 1014.60   5
   2   0   8 53364.7 2343.17   5
   2   0   9 299.388 285.594   5
   2   0  10 5392.17 813.154   5
   2   0  11 26005.2 1874.28   5
   2   0  12 22560.8 1849.74   5
   2   0  13 24810.5 2027.56   5
   2   0  14-24.8340 398.781   5
   2   1  -1 93156.7 1763.75   4
   2   1   4 27320.8 1171.93   5
   2   1   5 13158.1 869.584   5
   2   1   6 28048.9 1399.58   5
   2   1   7 49834.9 2049.78   5
   2   1   8 79274.4 2860.83   5
   2   1   9 1693.84 482.984   5
   2   1  10 17949.7 1428.08   5
   2   1  11 1937.77 524.066   5
   2   1  12 23668.5 1843.11   5
   2   1  13 6463.20 1023.11   5
   2   1  14 1701.41 634.968   5
   2   2  -2 1223.61 207.540   4
   2   2  -1 11966.6 596.309   4
   2   2   2 87141.4 1681.26   3
   2   2   4 63171.3 1939.85   1
   2   2   4 58273.3 1778.47   5
   2   2   5 66807.2 2059.62   5
   2   2   6 5393.48 589.279   5
   2   2   7 8107.85 773.070   5
   2   2   8 49811.1 2118.75   5
   2   2   9 16135.5 1263.51   5
   2   2  10 10497.7 1084.60   5
   2   2  11 9925.98 1097.80   5
   2   2  12 2695.11 646.694   5
   2   2  13 5835.84 941.346   5
   2   2  14 359.841 495.454   5
   2   3  -2 11221.5 741.359   5
   2   3  -2 10882.0 680.841   4
   2   3  -2 9989.19 530.158   7
   2   3  -1 15728.5 773.006   2
   2   3  -1 15569.6 849.272   4
   2   3  -1 16086.5 760.303   7
   2   3   0 608.037 203.132   2
   2   3   1 3600.80 321.888   2
   2   3   2 16387.9 697.527   3
   2   3   2 16967.8 878.695   1
   2   3   3 23726.7 954.956   3
   2   3   3 23428.8 1073.88   1
   2   3   4 16594.5 883.550   3
   2   3   4 17983.4 837.836   5
   2   3   4 16987.7 940.004   1
   2   3   5 60823.4 1992.49   3
   2   3   5 60826.5 1862.14   5
   2   3   6 31918.8 1388.43   5
   2   3   7 10074.4 812.192   5
   2   3   8 42768.3 1888.36   5
   2   3   9 4930.05 676.329   5
   2   3  10 61054.3 2605.85   5
   2   3  11 7071.12 895.281   5
   2   3  12 11350.9 1231.58   5
   2   3  13 3809.63 790.277   5
   2   3  14 417.559 418.990   5
   2   4  -2 89207.5 2313.39   7
   2   4  -1 51702.0 1628.57   5
   2   4  -1 47786.9 1641.81   7
   2   4   0 2387.22 293.064   2
   2   4   0 2178.77 400.130   7
   2   4   1 9946.46 514.432   2
   2   4   1 10189.9 791.854   7
   2   4   2 13201.1 945.425   7
   2   4   2 13502.3 769.925   3
   2   4   3 36971.9 1392.03   3
   2   4   3 35653.2 1396.28   1
   2   4   4 6855.29 632.927   3
   2   4   4 7217.38 626.360   1
   2   4   4 8188.85 519.131   5
   2   4   5 1902.12 297.833   5
   2   4   5 1541.45 363.617   3
   2   4   6 5947.07 689.246   3
   2   4   6 5032.42 513.313   5
   2   4   7 15534.5 1157.57   3
   2   4   7 13731.0 923.052   5
   2   4   8 31943.4 1826.27   3
   2   4   8 34744.3 1610.06   5
   2   4   9 7896.31 969.163   3
   2   4   9 6339.35 722.565   5
   2   4  10 8788.44 916.295   5
   2   4  10 6628.72 935.763   3
   2   4  10 7412.42 958.848   7
   2   4  11 2771.32 700.217   3
   2   4  11 2562.53 577.574   5
   2   4  11 1684.51 522.598   7
   2   4  12 5382.33 951.510   3
   2   4  12 4131.65 736.483   5
   2   4  12 4698.98 828.862   7
   2   4  13 6941.94 1125.48   3
   2   5  -1 14554.5 819.479   5
   2   5  -1 15550.3 1008.93   7
   2   5   0 11738.5 662.709   5
   2   5   0 11643.9 924.394   7
   2   5   1 469.457 117.644   2
   2   5   1 393.459 124.203   5
   2   5   1 522.998 257.067   7
   2   5   2 32356.1 910.669   2
   2   5   2 36341.2 1505.28   3
   2   5   2 35833.7 1711.62   7
   2   5   3 110393. 3017.17   3
   2   5   3 106735. 3338.77   7
   2   5   4 6579.17 779.515   7
   2   5   4 5655.69 647.446   3
   2   5   4 6261.47 394.855   5
   2   5   5 23194.7 1513.78   7
   2   5   5 25500.6 1416.19   3
   2   5   5 23828.6 922.220   5
   2   5   6 4352.65 665.900   7
   2   5   6 4640.92 654.187   3
   2   5   6 5268.67 463.906   5
   2   5   7 5074.96 759.059   7
   2   5   7 5827.20 763.458   3
   2   5   7 5279.62 526.285   5
   2   5   8 20420.4 1142.34   5
   2   5   8 18722.4 1501.69   7
   2   5   8 18320.5 1426.83   3
   2   5   9 968.959 443.196   3
   2   5   9 543.809 259.231   5
   2   5   9 166.630 301.314   7
   2   5  10 16528.9 1495.43   7
   2   5  10 19953.3 1654.62   3
   2   5  11 1036.63 502.357   3
   2   5  11 1080.16 445.573   7
   2   5  12-554.513 535.650   3
   2   5  12 168.209 332.831   7
   2   5  13 2783.64 858.980   3
   2   5  13 2122.59 668.786   7
   2   6  -1 19364.8 1284.09   7
   2   6  -1 18892.6 962.514   5
   2   6   0-122.881 107.895   5
   2   6   0 52.1823 261.862   7
   2   6   1 321.893 114.888   5
   2   6   1-6.27383 230.405   7
   2   6   2 22648.1 1453.98   7
   2   6   2 7171.38 329.608   5
   2   6   3 48923.3 2056.09   3
   2   6   3 47792.7 2251.56   7
   2   6   4 27513.4 788.048   2
   2   6   4 32463.6 1677.47   3
   2   6   4 30913.1 1837.88   7
   2   6   5 1403.01 470.762   7
   2   6   5 1612.42 429.528   3
   2   6   6 5994.90 903.949   7
   2   6   6 6026.88 807.587   3
   2   6   7 16122.8 1440.27   7
   2   6   7 16453.9 1341.99   3
   2   6   8 26224.6 1884.71   7
   2   6   8 28033.5 1864.45   3
   2   6   9 4158.86 795.929   7
   2   6   9 3639.32 732.437   3
   2   6  10 11432.9 1302.58   7
   2   6  10 7864.61 1126.86   3
   2   6  11 124.332 446.567   7
   2   6  11 183.290 347.214   3
   2   6  12 2962.34 758.747   7
   2   6  12 2548.65 746.069   3
   2   6  13 234.719 319.093   7
   2   7   0 87.8184 279.235   7
   2   7   1 112.118 242.795   7
   2   7   2 1902.14 529.276   7
   2   7   3 21524.3 1616.96   7
   2   7   4 55.3917 336.629   7
   2   7   4 513.269 376.329   3
   2   7   5 8090.61 1061.56   7
   2   7   5 8443.88 975.095   3
   2   7   6 6049.12 941.267   7
   2   7   6 4470.83 752.461   3
   2   7   7 8135.23 1116.57   7
   2   7   7 8487.98 1054.01   3
   2   7   8 14675.7 1523.01   7
   2   7   8 17435.4 1557.71   3
   2   7   9 160.762 289.057   7
   2   7   9 578.286 422.030   3
   2   7  10 5695.90 1025.11   7
   2   7  10 5973.27 1036.09   3
   2   7  11 1487.78 560.170   7
   2   7  11 206.992 406.608   3
   2   8   2 19208.3 1636.66   7
   2   8   3 17958.4 1614.93   7
   2   8   4 5673.09 924.793   7
   2   8   5 103.480 330.043   7
   2   8   5 735.999 451.406   3
   2   8   6 186.308 307.916   7
   2   8   6 998.061 548.721   3
   2   8   7 4809.81 925.655   7
   2   8   7 6319.33 999.036   3
   2   8   8 5135.99 1001.23   7
   2   8   8 6901.01 1057.76   3
   2   8   9-117.598 359.566   7
   2   8   9 847.396 476.223   3
   2   8  10 2910.88 858.976   3
   2   9   4 1494.55 608.909   7
   2   9   5 3459.02 795.226   7
   2   9   6 6396.74 1126.43   7
   2   9   6 5571.88 947.006   3
   2   9   7 176.827 394.679   3
   2   9   8 4393.37 936.485   3
   2   9   9-490.659 410.242   3
   3  -8  -3 2755.49 738.311   4
   3  -8  -2-639.563 475.154   4
   3  -8  -1 3848.69 864.239   4
   3  -8   0 2336.98 662.670   4
   3  -8   1 511.363 404.457   4
   3  -8   2 385.990 364.925   4
   3  -7  -4 757.736 406.960   4
   3  -7  -3 2268.29 601.800   4
   3  -7  -2 4554.23 864.552   4
   3  -7  -1 6973.60 1050.88   4
   3  -7   0 4353.64 860.777   4
   3  -7   1 11891.6 1364.59   4
   3  -7   2-5.76222 319.218   4
   3  -7   3 8749.72 1275.25   4
   3  -7   4 966.482 536.746   4
   3  -7   5 5280.00 994.124   4
   3  -7   6 1613.54 595.577   4
   3  -7   7-43.1785 417.066   4
   3  -6  -4 3082.58 637.255   4
   3  -6  -3 6895.68 944.475   4
   3  -6  -2 3963.28 731.839   4
   3  -6  -1 12638.3 1295.91   4
   3  -6   0 20181.7 1649.92   4
   3  -6   1 5460.00 878.843   4
   3  -6   2 9709.37 1192.48   4
   3  -6   3 7556.24 1062.05   4
   3  -6   4 6620.57 803.021   5
   3  -6   4 7465.38 1088.69   4
   3  -6   5 9846.77 1230.30   4
   3  -6   5 9179.55 995.710   5
   3  -6   6 7491.99 940.714   5
   3  -6   6 11166.5 1359.76   4
   3  -6   7-139.584 276.485   5
   3  -6   7 44.8253 317.124   4
   3  -6   8 4666.63 885.140   5
   3  -6   8 6248.27 1081.43   4
   3  -6   9 878.672 506.165   5
   3  -6  10 759.885 457.014   5
   3  -5  -5 2287.59 522.301   4
   3  -5  -4 9128.11 952.771   4
   3  -5  -3 8255.46 921.915   4
   3  -5  -2 2341.44 507.769   4
   3  -5  -1 2467.13 546.194   4
   3  -5   0 65.8802 114.206   5
   3  -5   0 190.223 292.477   4
   3  -5   1 19700.4 1515.37   4
   3  -5   1 19316.5 1077.83   5
   3  -5   2 18057.3 1487.71   4
   3  -5   2 20977.4 1182.56   5
   3  -5   3 41185.7 2287.15   4
   3  -5   3 38150.2 1760.89   5
   3  -5   4 4974.19 663.244   5
   3  -5   4 3674.78 674.613   4
   3  -5   5 1961.38 479.060   5
   3  -5   6 5474.48 787.381   5
   3  -5   7 8745.14 1063.51   5
   3  -5   8 24950.1 1844.31   5
   3  -5   9 186.079 272.610   5
   3  -5  10 8951.72 1221.23   5
   3  -5  11 1379.15 606.575   5
   3  -4  -5 23320.7 1375.38   4
   3  -4  -4 5264.88 643.864   4
   3  -4  -3 19783.4 1280.57   4
   3  -4  -2 11466.5 985.512   4
   3  -4  -1 34138.9 1784.39   4
   3  -4   0 16273.6 1242.88   4
   3  -4   0 15044.7 655.083   1
   3  -4   1 3603.34 383.015   1
   3  -4   1 3679.79 607.257   4
   3  -4   2 4843.71 562.377   5
   3  -4   2 4667.37 711.683   4
   3  -4   3 26928.0 1428.94   5
   3  -4   4 129.050 223.574   5
   3  -4   5 4333.00 639.441   5
   3  -4   6 6409.26 846.796   5
   3  -4   7 5640.85 820.955   5
   3  -4   8 14054.0 1349.84   5
   3  -4   9 900.907 446.832   5
   3  -4  10 2435.01 658.629   5
   3  -4  11 5239.36 919.647   5
   3  -4  12 6551.48 1077.27   5
   3  -3  -5 11557.0 838.333   4
   3  -3  -4 51879.1 1885.76   4
   3  -3  -3 27594.9 1344.77   4
   3  -3  -2 12847.8 925.642   4
   3  -3  -1 32595.2 1559.34   4
   3  -3   0 28955.9 1497.57   4
   3  -3   0 31142.6 1036.34   1
   3  -3   1 49606.8 1559.22   1
   3  -3   2 33975.5 1383.54   1
   3  -3   3 31528.7 1518.59   5
   3  -3   4 4722.02 629.774   5
   3  -3   5 376.794 285.216   5
   3  -3   6 14355.8 1186.31   5
   3  -3   7 18111.2 1418.31   5
   3  -3   8 30226.6 1944.08   5
   3  -3   9 16278.4 1476.26   5
   3  -3  10 7487.42 1060.45   5
   3  -3  11 8804.24 1195.00   5
   3  -3  12 19221.7 1860.67   5
   3  -2  -4 29077.5 1154.82   4
   3  -2  -3 12586.0 764.336   4
   3  -2  -2 975.419 259.382   4
   3  -2  -1 51031.0 1760.96   4
   3  -2   0 68621.7 1770.57   1
   3  -2   1 95918.8 2370.98   1
   3  -2   2 30271.8 1261.17   1
   3  -2   4 342.375 232.581   5
   3  -2   5 2849.17 488.951   5
   3  -2   6 3930.57 596.547   5
   3  -2   7 9243.47 957.172   5
   3  -2   8 26171.1 1754.65   5
   3  -2   9 962.129 437.580   5
   3  -2  10 1588.68 586.156   5
   3  -2  11 807.898 479.139   5
   3  -2  12 8785.58 1220.12   5
   3  -2  13 5101.20 1041.76   5
   3  -1  -3 56773.9 1443.14   4
   3  -1  -2 120.902 179.783   4
   3  -1   0 36577.6 1432.53   2
   3  -1   0 35115.2 1209.28   1
   3  -1   1 80928.6 2275.26   3
   3  -1   1 76361.4 2074.78   1
   3  -1   2 5782.00 539.154   1
   3  -1   2 5588.46 548.262   3
   3  -1   5 51344.2 2067.81   5
   3  -1   6 35111.2 1772.95   5
   3  -1   7 24558.7 1555.39   5
   3  -1   8 34807.3 1951.52   5
   3  -1   9 4714.86 764.183   5
   3  -1  10 24976.0 1838.58   5
   3  -1  11 21988.8 1803.87   5
   3  -1  12 11586.4 1372.92   5
   3  -1  13 12764.7 1539.98   5
   3   0  -5 103902. 2456.02   7
   3   0  -4 91856.0 2263.82   7
   3   0   0 114124. 2654.10   3
   3   0   0 112583. 2636.66   1
   3   0   1 150362. 3143.89   3
   3   0   1 151158. 3326.34   1
   3   0   2 23083.7 948.411   3
   3   0   2 23404.5 1093.47   1
   3   0   5 18727.2 1171.64   5
   3   0   6 32676.0 1653.68   5
   3   0   7 4063.98 617.729   5
   3   0   8 10844.5 1045.77   5
   3   0   9-89.9641 273.730   5
   3   0  10 15216.4 1373.67   5
   3   0  11 5774.25 916.987   5
   3   0  12 40618.1 2548.35   5
   3   0  13 4976.53 963.747   5
   3   0  14 1383.04 594.703   5
   3   1  -4 40915.7 1071.02   7
   3   1  -2 438.280 86.0248   4
   3   1   1 330406. 5409.51   3
   3   1   2 8829.49 422.194   3
   3   1   6 32934.2 1603.87   5
   3   1   7 14650.5 1117.53   5
   3   1   8 2584.49 536.645   5
   3   1   9 19781.5 1462.96   5
   3   1  10 13149.1 1271.63   5
   3   1  11 17183.8 1516.75   5
   3   1  12 2688.27 663.211   5
   3   1  13 13890.1 1487.98   5
   3   1  14 1330.47 549.033   5
   3   2  -2 160119. 2999.77   4
   3   2  -1 104945. 2293.40   4
   3   2   6 40584.4 1741.56   5
   3   2   7 18266.6 1214.33   5
   3   2   8 12286.4 1066.94   5
   3   2   9 326.452 302.442   5
   3   2  10 37436.0 2115.20   5
   3   2  11 5905.28 900.734   5
   3   2  12 21063.1 1734.22   5
   3   2  13-13.2505 295.132   5
   3   2  14-63.5095 374.278   5
   3   3  -3 21837.3 709.493   7
   3   3  -2 1548.52 266.507   4
   3   3  -1 73514.8 2001.21   4
   3   3   0 407.960 182.699   2
   3   3   0 97.9736 155.370   4
   3   3   1 33484.5 1282.68   2
   3   3   1 31779.9 1380.00   4
   3   3   3 7387.06 399.411   3
   3   3   4 12882.3 671.447   3
   3   3   6 22723.6 1227.48   5
   3   3   7 8273.47 799.650   5
   3   3   8 7651.19 809.544   5
   3   3   9 3641.80 620.265   5
   3   3  10 24252.3 1634.33   5
   3   3  11 21651.8 1637.55   5
   3   3  12 1629.81 552.098   5
   3   3  13 863.261 455.044   5
   3   3  14 77.0954 369.708   5
   3   4  -3 12809.1 656.973   7
   3   4  -2 38621.6 1334.81   7
   3   4  -1 113740. 2812.64   7
   3   4   0 7921.27 600.001   2
   3   4   1 138.256 147.640   2
   3   4   3 32834.5 1119.38   3
   3   4   4 1297.41 245.967   3
   3   4   5 15673.6 909.067   3
   3   4   6 1213.53 344.907   3
   3   4   6 1636.22 329.812   5
   3   4   7 32580.3 1606.26   3
   3   4   7 31312.7 1517.67   5
   3   4   8 21409.7 1392.47   3
   3   4   8 20304.0 1279.78   5
   3   4   9 472.306 275.540   5
   3   4  10 20296.3 1450.59   5
   3   4  11 4692.24 760.648   5
   3   4  12 28528.5 1932.34   5
   3   4  13 10339.4 1232.59   5
   3   5  -3 51013.4 1717.38   7
   3   5  -2 20838.1 1096.95   7
   3   5  -1 28326.9 1345.65   7
   3   5   0 9752.63 661.690   2
   3   5   0 10078.5 812.445   7
   3   5   1 34443.1 1259.75   2
   3   5   1 36920.2 1678.54   7
   3   5   2 25722.4 1055.58   2
   3   5   3 35196.8 1387.24   3
   3   5   4 14298.5 889.739   3
   3   5   5 292.111 184.439   5
   3   5   5 251.613 216.419   3
   3   5   6 1875.78 322.170   5
   3   5   6 2581.41 462.185   3
   3   5   7 207.094 231.496   5
   3   5   7-48.8878 229.658   3
   3   5   8 8965.59 935.034   3
   3   5   8 9227.39 823.390   5
   3   5   9 148.043 250.164   3
   3   5   9 263.607 257.628   5
   3   5  10 13487.5 1300.79   3
   3   5  10 13313.9 1121.47   5
   3   5  11 2033.81 583.388   3
   3   5  11 535.470 334.643   7
   3   5  12 41.5186 364.822   3
   3   5  12 984.777 511.621   7
   3   5  13-567.032 451.320   3
   3   5  13 331.560 381.478   7
   3   5  14 2895.28 774.172   3
   3   6  -2 4543.93 574.601   7
   3   6  -1 12997.3 1016.29   7
   3   6   0 1201.55 390.109   7
   3   6   1 1539.46 246.039   2
   3   6   1 637.247 326.777   7
   3   6   2 642.541 162.940   2
   3   6   2 1457.56 481.424   7
   3   6   3 21165.1 894.639   2
   3   6   3 24486.3 1573.22   7
   3   6   4 456.407 303.704   7
   3   6   4 513.764 294.434   3
   3   6   5 17826.5 1438.18   7
   3   6   5 19256.9 1211.29   3
   3   6   5 19748.5 899.028   5
   3   6   6 562.259 191.918   5
   3   6   6 403.645 329.598   7
   3   6   6 425.109 324.207   3
   3   6   7 11970.2 1258.56   7
   3   6   7 12553.7 1086.82   3
   3   6   7 12559.7 820.385   5
   3   6   8 12722.6 1323.06   7
   3   6   8 14884.1 1262.79   3
   3   6   9 708.595 506.257   7
   3   6   9 282.471 395.036   3
   3   6  10 8531.29 1178.73   7
   3   6  10 10728.1 1173.77   3
   3   6  11 782.655 414.079   7
   3   6  11 403.411 403.909   3
   3   6  12 3686.51 845.471   7
   3   6  12 4419.02 884.660   3
   3   6  13 2134.88 675.249   7
   3   6  13 1841.53 661.518   3
   3   7  -1 3977.45 669.181   7
   3   7   0 374.456 298.040   7
   3   7   1 15724.0 1296.33   7
   3   7   2 10335.7 1078.46   7
   3   7   3 2534.40 600.426   7
   3   7   4 4593.81 645.093   3
   3   7   4 5615.01 839.683   7
   3   7   5 7532.85 986.879   7
   3   7   5 5806.25 767.484   3
   3   7   6 12500.9 1120.48   3
   3   7   6 11793.8 1296.64   7
   3   7   7 10592.9 1100.63   3
   3   7   7 12698.8 1351.11   7
   3   7   8 8236.05 1141.86   7
   3   7   8 7033.96 934.943   3
   3   7   9 2033.74 647.138   7
   3   7   9 2586.75 640.639   3
   3   7  10 9988.47 1332.11   7
   3   7  10 9599.30 1179.28   3
   3   7  11 2127.16 659.744   7
   3   7  11 883.948 480.577   3
   3   8   0 2233.04 583.789   7
   3   8   1 7228.55 956.504   7
   3   8   2 6697.85 947.675   7
   3   8   3 6409.32 957.905   7
   3   8   4 11332.9 1280.58   7
   3   8   5-234.970 375.112   7
   3   8   5 462.239 351.558   3
   3   8   6 407.671 346.984   7
   3   8   6 18.0509 296.251   3
   3   8   7 148.797 315.072   7
   3   8   7 704.034 398.239   3
   3   8   8 8847.51 1238.31   7
   3   8   8 7283.33 1029.51   3
   3   8   9-304.557 371.806   7
   3   8   9 58.3295 316.987   3
   3   9   1 8008.49 1098.47   7
   3   9   2 8300.32 1149.11   7
   3   9   3 4161.25 852.194   7
   3   9   4 1068.21 461.790   7
   3   9   5 8102.03 1201.64   7
   3   9   6 3444.23 826.857   7
   3   9   7 7825.87 1212.92   7
   3  10   4 807.841 551.527   7
   4  -7  -2 3560.64 776.272   4
   4  -7  -1 11468.1 1359.03   4
   4  -7   0 794.366 478.462   4
   4  -7   1 204.454 318.686   4
   4  -7   2 53.8729 369.069   4
   4  -7   3 764.472 458.094   4
   4  -7   4 3772.31 881.172   4
   4  -6  -3-441.557 375.253   4
   4  -6  -2 173.117 204.005   4
   4  -6  -1 7518.39 1034.38   4
   4  -6   0 3540.65 744.234   4
   4  -6   1 489.864 334.610   4
   4  -6   2 6.55824 292.232   4
   4  -6   3 22754.6 1915.62   4
   4  -6   4 8727.60 1194.77   4
   4  -6   5 3405.43 791.305   4
   4  -6   6 1812.87 655.490   4
   4  -6   7 1767.12 560.312   5
   4  -6   7 2937.62 796.513   4
   4  -6   8 5083.29 914.348   5
   4  -6   9 1267.31 605.933   5
   4  -6  10 2693.24 733.687   5
   4  -5  -3 5483.93 783.933   4
   4  -5  -2 1309.11 405.354   4
   4  -5  -1 15868.0 1375.73   4
   4  -5   0 3644.85 683.522   4
   4  -5   1 13286.3 1310.86   4
   4  -5   2 16472.6 1493.21   4
   4  -5   2 14383.9 1086.98   5
   4  -5   3 26485.2 1911.29   4
   4  -5   3 28349.8 1620.65   5
   4  -5   4 13238.8 1387.42   4
   4  -5   4 11617.2 1075.72   5
   4  -5   5 12557.1 1178.54   5
   4  -5   6 1537.13 509.373   5
   4  -5   7 8531.64 1090.98   5
   4  -5   8 34464.4 2272.86   5
   4  -5   9 685.377 398.926   5
   4  -5  10 1092.91 470.933   5
   4  -4  -4 2613.33 493.508   4
   4  -4  -3 253.562 179.662   4
   4  -4  -2 1679.24 479.495   4
   4  -4  -1 8129.39 901.023   4
   4  -4   0 2596.19 541.849   4
   4  -4   1 1059.82 418.036   4
   4  -4   2 458.964 303.546   4
   4  -4   3 19902.5 1326.18   5
   4  -4   4 17597.4 1295.41   5
   4  -4   5 10795.6 1079.79   5
   4  -4   6 4960.89 803.193   5
   4  -4   7 1071.51 469.119   5
   4  -4   8 12308.2 1305.20   5
   4  -4   9 4554.57 854.132   5
   4  -4  10 15704.8 1623.51   5
   4  -4  11 82.8704 295.752   5
   4  -3  -4 7631.14 709.649   4
   4  -3  -3 17448.8 1107.20   4
   4  -3  -2 1733.70 371.542   4
   4  -3  -1 24409.0 1418.88   4
   4  -3   0 11394.0 978.937   4
   4  -3   0 9757.13 622.181   1
   4  -3   1 54279.0 1779.30   1
   4  -3   4 5195.46 712.768   5
   4  -3   5 33703.4 1858.55   5
   4  -3   6 10475.7 1085.76   5
   4  -3   7 7611.56 935.642   5
   4  -3   8 22262.1 1721.00   5
   4  -3   9 1633.27 499.280   5
   4  -3  10 6866.53 1054.58   5
   4  -3  11 18895.1 1798.16   5
   4  -3  12 896.131 484.374   5
   4  -2  -4 14520.4 818.294   4
   4  -2  -3 8447.03 659.421   4
   4  -2  -2 4994.32 567.633   4
   4  -2  -1 30167.9 1416.37   4
   4  -2   0 34973.2 1308.99   1
   4  -2   1 39281.1 1513.54   1
   4  -2   5 13693.7 1134.89   5
   4  -2   6 17830.5 1347.99   5
   4  -2   7 11479.9 1135.94   5
   4  -2   8 6986.60 929.075   5
   4  -2   9-344.361 314.849   5
   4  -2  10 8828.51 1143.62   5
   4  -2  11 2860.42 718.588   5
   4  -2  12 2754.84 834.359   5
   4  -1  -4 2063.81 224.854   4
   4  -1  -3 7936.28 513.080   4
   4  -1  -2 2352.71 335.620   4
   4  -1   0 37.6502 140.124   1
   4  -1   6 55870.5 2412.79   5
   4  -1   7 17079.4 1362.81   5
   4  -1   8 10784.2 1132.41   5
   4  -1   9 185.922 337.454   5
   4  -1  10 19092.9 1650.30   5
   4  -1  11 24583.9 1948.26   5
   4  -1  12 627.408 410.726   5
   4  -1  13 679.462 478.361   5
   4   0  -5 24783.5 1132.44   7
   4   0  -4 5566.81 552.851   7
   4   0  -3 4572.78 271.394   4
   4   0   0 85183.4 2421.47   3
   4   0   1 33679.9 1331.68   3
   4   0   2 13088.1 786.699   3
   4   0   3 89921.7 2402.19   3
   4   0   6 56399.2 2352.21   5
   4   0   7 38562.8 2016.26   5
   4   0   8 7357.27 923.292   5
   4   0   9-123.672 323.394   5
   4   0  10 24187.1 1808.66   5
   4   0  11 8515.76 1147.67   5
   4   0  12 9287.69 1236.80   5
   4   0  13 7485.20 1154.10   5
   4   1  -5 19626.6 798.303   7
   4   1   1 65093.8 1685.21   3
   4   1   2 40199.4 1189.57   3
   4   1   3 2694.86 306.592   3
   4   1   7 15072.7 1209.69   5
   4   1   8 983.260 400.298   5
   4   1   9 5426.73 813.270   5
   4   1  10 10754.9 1188.96   5
   4   1  11 17227.9 1573.36   5
   4   1  12 5460.32 955.591   5
   4   1  13 4.83210 346.945   5
   4   1  14 4513.40 949.931   5
   4   2  -3 17691.5 583.943   4
   4   2  -2 8102.40 459.428   4
   4   2  -1 169397. 3465.41   4
   4   2   3 286109. 4654.94   3
   4   2   7 2932.51 545.426   5
   4   2   8 6280.25 805.568   5
   4   2   9 339.296 337.506   5
   4   2  10 16841.3 1431.80   5
   4   2  11 2742.04 660.596   5
   4   2  12 607.500 378.259   5
   4   2  13 1248.59 488.859   5
   4   2  14 879.261 542.100   5
   4   3  -4 7658.30 350.650   7
   4   3  -3 920.164 187.088   4
   4   3  -2 325.427 160.933   4
   4   3  -1 117697. 2835.10   4
   4   3   0 70500.7 2113.17   4
   4   3   4 48484.8 1198.62   3
   4   3   7 12142.7 1043.43   5
   4   3   8-213.984 282.543   5
   4   3   9 512.459 298.688   5
   4   3  10 19022.2 1509.45   5
   4   3  11 12057.8 1264.28   5
   4   3  12 897.784 453.693   5
   4   3  13-558.058 544.066   5
   4   3  14 729.554 439.819   5
   4   4  -4 33154.5 951.612   7
   4   4  -3 29208.9 1253.32   4
   4   4  -3 28595.3 1043.81   7
   4   4   4 7200.19 427.094   3
   4   4   5 18837.1 855.302   3
   4   4   6 36706.6 1427.83   3
   4   4   7 298.012 239.902   5
   4   4   7 633.778 290.915   3
   4   4   8 2571.09 507.535   5
   4   4   9 1393.22 448.632   5
   4   4  10 18855.2 1469.91   5
   4   4  11 1993.25 579.379   5
   4   4  12 4339.10 802.400   5
   4   4  13 2529.08 677.485   5
   4   4  14 576.268 440.527   5
   4   5  -3 49710.0 1637.41   7
   4   5  -2 23979.3 1161.17   7
   4   5  -1 58473.4 2040.55   7
   4   5   4 2074.58 306.545   3
   4   5   5 55596.7 1755.85   3
   4   5   6 1588.75 339.312   3
   4   5   7 4101.88 566.612   5
   4   5   7 4556.11 566.859   3
   4   5   8 391.135 348.183   3
   4   5   8 49.7588 194.875   5
   4   5   9 2194.26 482.982   3
   4   5   9 2606.69 514.183   5
   4   5  10 20317.9 1493.14   3
   4   5  10 19468.4 1428.07   5
   4   5  11 2275.76 597.201   3
   4   5  11 4160.50 704.570   5
   4   5  12 900.105 454.536   3
   4   5  14 3824.61 862.152   7
   4   6  -3 12660.6 886.319   7
   4   6  -2 45643.1 1858.50   7
   4   6  -1 37493.2 1732.37   7
   4   6   0 2966.65 535.915   7
   4   6   1 12241.1 1039.94   7
   4   6   5 7013.98 662.459   3
   4   6   6 27760.1 1409.77   3
   4   6   6 25869.7 1301.32   5
   4   6   7 579.549 236.794   5
   4   6   7 542.942 277.981   3
   4   6   8-101.372 165.672   5
   4   6   8-106.645 207.612   3
   4   6   9 112.904 228.020   3
   4   6  10 4541.54 767.224   3
   4   6  11 415.829 363.610   7
   4   6  12-249.129 317.275   7
   4   7  -2 7918.91 801.303   7
   4   7  -1 9469.23 938.760   7
   4   7   0 2940.13 567.156   7
   4   7   1 10692.0 1052.24   7
   4   7   2 14509.3 1270.75   7
   4   7   3 4048.84 721.523   7
   4   7   4 379.705 301.673   7
   4   7   5 19089.3 1231.42   3
   4   7   5 20284.6 1635.84   7
   4   7   6 583.191 367.772   7
   4   7   6 135.951 249.007   3
   4   7   7 3994.27 800.751   7
   4   7   7 5678.20 732.704   3
   4   7   8 4475.84 900.978   7
   4   7   8 4436.79 694.402   3
   4   7   9 74.5414 304.461   7
   4   7  10 10156.1 1322.42   7
   4   7  11 683.256 437.990   7
   4   8  -1 15852.5 1326.96   7
   4   8   0 15.2259 320.924   7
   4   8   1 10716.1 1148.49   7
   4   8   2 7202.10 975.945   7
   4   8   3 6564.88 969.974   7
   4   8   4-50.7183 338.546   7
   4   8   5-283.515 380.505   7
   4   8   6 3642.53 801.229   7
   4   8   7 6530.90 1063.09   7
   4   8   8 720.545 443.834   7
   4   8   9 4222.42 918.072   7
   4   9   0 6125.02 935.294   7
   4   9   1 3199.75 737.816   7
   4   9   2 3994.08 779.072   7
   4   9   3 1875.24 539.416   7
   4   9   4 1964.10 609.135   7
   4   9   5 5730.05 1012.17   7
   4   9   6-145.052 465.434   7
   4   9   7-286.252 386.001   7
   4  10   1 11142.1 1347.03   7
   4  10   2 4553.77 894.688   7
   4  10   3 1033.23 440.902   7
   4  10   4 318.981 414.407   7
   4  10   5 2401.88 696.941   7
   5  -7   0-270.160 295.465   4
   5  -7   1 1120.15 523.442   4
   5  -6  -1 4193.03 784.087   4
   5  -6   0 3139.57 731.256   4
   5  -6   1 1598.10 511.514   4
   5  -6   2 105.519 286.100   4
   5  -6   3 7757.68 1234.52   4
   5  -6   4 1639.86 595.260   4
   5  -6   5 429.462 489.577   4
   5  -5  -2 5498.81 818.520   4
   5  -5  -1 2977.51 631.975   4
   5  -5   0-169.500 340.158   4
   5  -5   1-35.6795 282.751   4
   5  -5   2 14716.5 1467.15   4
   5  -5   3 1771.25 563.115   4
   5  -5   4 1662.26 468.113   5
   5  -5   4 1694.01 526.029   4
   5  -5   5 3380.26 685.298   5
   5  -5   6 1657.67 524.410   5
   5  -5   7 3765.66 798.550   5
   5  -5   8 9350.98 1229.16   5
   5  -5   9 3326.25 819.013   5
   5  -4  -2 5521.87 749.086   4
   5  -4  -1 4015.01 671.170   4
   5  -4   0 1717.04 481.480   4
   5  -4   1 89.9965 211.430   4
   5  -4   2 1909.42 492.721   4
   5  -4   4 7314.78 922.089   5
   5  -4   5 1580.96 490.024   5
   5  -4   6 3752.21 744.302   5
   5  -4   7 9202.98 1157.85   5
   5  -4   8 10223.0 1234.44   5
   5  -4   9 9094.33 1249.30   5
   5  -4  10 14058.4 1597.06   5
   5  -3  -3 1361.89 321.414   4
   5  -3  -2 6894.60 769.870   4
   5  -3  -1 8271.58 878.598   4
   5  -3   0-232.726 246.602   4
   5  -3   5 2594.23 621.549   5
   5  -3   6 1866.79 561.031   5
   5  -3   7 18865.5 1589.42   5
   5  -3   8 10718.1 1240.22   5
   5  -3   9 3112.42 736.969   5
   5  -3  10 3777.14 849.904   5
   5  -3  11 8589.49 1270.83   5
   5  -2  -3 16565.1 996.581   4
   5  -2  -2 13473.6 956.164   4
   5  -2  -1 12925.9 994.811   4
   5  -2   6 12978.1 1222.54   5
   5  -2   7 28838.8 1946.98   5
   5  -2   8 25704.2 1872.62   5
   5  -2   9 6075.64 955.703   5
   5  -2  10 4421.72 855.306   5
   5  -2  11 5074.80 960.104   5
   5  -2  12 3639.41 822.473   5
   5  -1  -3 2211.23 308.369   4
   5  -1  -2 904.130 257.362   4
   5  -1   7 19774.6 1552.68   5
   5  -1   8 16449.1 1475.52   5
   5  -1   9 7160.91 1004.07   5
   5  -1  10 5190.60 930.597   5
   5  -1  11 4675.77 964.714   5
   5  -1  12 1063.13 610.661   5
   5   0  -3 374.843 111.421   4
   5   0   7 44283.8 2302.54   5
   5   0   8 22384.0 1688.40   5
   5   0   9 15215.1 1437.79   5
   5   0  10 11602.9 1300.27   5
   5   0  11 10828.4 1350.60   5
   5   0  12 9033.97 1257.69   5
   5   0  13 14638.0 1676.90   5
   5   1  -3 9731.00 415.545   4
   5   1  -3 15498.2 439.742   4
   5   1   2 44852.0 1477.23   3
   5   1   3 4095.46 409.027   3
   5   1   4 1906.30 305.179   3
   5   1   8 16324.4 1410.52   5
   5   1   9 9739.99 1156.37   5
   5   1  10 15437.2 1498.17   5
   5   1  11 10513.4 1283.63   5
   5   1  12 2758.87 772.392   5
   5   1  13 5564.81 1034.67   5
   5   2  -3 13874.0 510.419   4
   5   2  -2 6572.44 447.321   4
   5   2   3 5832.62 355.189   3
   5   2   4 38341.6 1115.42   3
   5   2   8-161.521 266.480   5
   5   2   9 18828.4 1524.70   5
   5   2  10 10043.6 1191.88   5
   5   2  11 2492.26 622.958   5
   5   2  12 454.435 453.470   5
   5   2  13 5329.14 1008.21   5
   5   3  -3 305.395 135.141   4
   5   3  -2 45361.8 1478.05   4
   5   3  -1 54134.8 1778.23   4
   5   3   8 13913.5 1224.70   5
   5   3   9 7101.06 912.965   5
   5   3  10 27628.5 1902.20   5
   5   3  11 14562.3 1443.60   5
   5   3  12-164.871 291.393   5
   5   3  13 721.777 515.530   5
   5   3  14 1615.06 566.176   5
   5   4  -4 3267.85 297.866   7
   5   4  -3 15398.9 872.541   4
   5   4   5 3197.32 255.838   3
   5   4   6 7284.40 517.315   3
   5   4   7 35377.5 1412.74   3
   5   4   8 632.347 362.407   5
   5   4   9 16574.7 1375.69   5
   5   4  10 11828.5 1221.04   5
   5   4  11 3092.98 644.725   5
   5   4  12-456.403 405.588   5
   5   4  13 3129.70 742.021   5
   5   4  14-1.24573 569.494   5
   5   5  -4 8782.39 549.564   7
   5   5  -3 873.304 228.863   7
   5   5   5 27179.6 944.192   3
   5   5   6 9206.19 598.946   3
   5   5   7 135.346 147.601   3
   5   5   8 18929.5 1142.50   3
   5   5   8 18480.3 1380.04   5
   5   5   9 15376.4 1294.19   5
   5   5  10 10317.4 1117.10   5
   5   5  11 5650.87 897.222   5
   5   5  12-168.279 299.974   5
   5   6  -3 47458.1 1765.05   7
   5   6  -2 21401.5 1229.56   7
   5   6  -1 39629.1 1802.30   7
   5   6   6 1298.58 293.440   3
   5   6   7 8791.35 871.249   5
   5   6   8 322.309 262.088   5
   5   6   9 4464.85 695.828   5
   5   7  -3 5888.70 656.371   7
   5   7  -2 652.683 310.829   7
   5   7  -1 13537.0 1088.98   7
   5   7   0 1696.56 471.790   7
   5   7   1 8758.37 986.125   7
   5   7   2 2934.41 630.778   7
   5   7  11 458.591 464.402   7
   5   8  -2 12087.2 1089.91   7
   5   8  -1 312.090 222.858   7
   5   8   0 12745.5 1208.48   7
   5   8   1 3469.30 679.862   7
   5   8   2 19077.6 1571.31   7
   5   8   3 4077.61 761.326   7
   5   8   4 14820.0 1458.52   7
   5   8   5 3780.34 818.407   7
   5   8   6 5359.24 931.154   7
   5   8   7 8647.16 1206.09   7
   5   8   8 1053.39 501.742   7
   5   8   9 6951.32 1152.97   7
   5   9  -1 13394.2 1323.73   7
   5   9   0-28.6524 321.862   7
   5   9   1 5921.65 924.120   7
   5   9   2 5748.16 922.535   7
   5   9   3 1003.08 460.690   7
   5   9   4 3849.83 785.585   7
   5   9   5 3457.06 808.608   7
   5   9   6 112.740 343.082   7
   5   9   7 74.2661 312.344   7
   5  10   0 12751.3 1417.06   7
   5  10   1 6523.87 1027.67   7
   5  10   2 9763.93 1299.34   7
   5  10   3 492.204 404.929   7
   5  10   4 3857.61 900.021   7
   5  10   5 2208.52 753.605   7
   6  -6   1 376.079 346.018   4
   6  -6   2 2403.96 698.375   4
   6  -5   0-73.1867 269.731   4
   6  -5   1 309.267 354.690   4
   6  -5   2 12686.6 1436.51   4
   6  -5   3 8942.49 1227.25   4
   6  -5   4-333.322 416.438   4
   6  -5   8 576.131 348.657   5
   6  -4   0 1652.93 488.623   4
   6  -4   1 982.923 430.911   4
   6  -4   2 20168.9 1678.02   4
   6  -4   4 18281.7 1537.67   5
   6  -4   5-2.86077 314.091   5
   6  -4   6-269.353 438.851   5
   6  -4   7 14152.5 1501.66   5
   6  -4   8 3672.67 808.188   5
   6  -4   9 5485.48 1044.08   5
   6  -3  -1 3424.69 629.432   4
   6  -3   0 3586.38 644.945   4
   6  -3   6 4159.12 796.851   5
   6  -3   7 3208.87 745.793   5
   6  -3   8 8504.00 1185.49   5
   6  -3   9 2355.01 706.246   5
   6  -3  10 982.050 505.250   5
   6  -2  -1 1407.87 385.086   4
   6  -2   7 27817.1 2025.32   5
   6  -2   8 2078.85 646.887   5
   6  -2   9 6954.21 1099.26   5
   6  -2  10 815.963 448.080   5
   6  -2  11 2703.59 760.058   5
   6  -1  -2 5602.24 593.727   4
   6  -1   7 892.562 426.959   5
   6  -1   8 6653.85 1014.69   5
   6  -1   9 6799.31 1057.50   5
   6  -1  10 1244.69 523.328   5
   6  -1  11 4296.35 974.078   5
   6   0   8 163.778 292.256   5
   6   0   9 1687.16 557.859   5
   6   0  10 5672.16 999.890   5
   6   0  11 12663.1 1508.38   5
   6   0  12 4532.06 936.357   5
   6   1   3-47.1481 148.905   3
   6   1   8 7420.98 1027.73   5
   6   1   9 15817.0 1500.21   5
   6   1  10 3014.24 777.797   5
   6   1  11 20576.6 1870.97   5
   6   1  12 7081.82 1142.35   5
   6   2   3 2181.03 286.851   3
   6   2   4 4799.46 398.105   3
   6   2   5 29.7390 110.890   3
   6   2   9 351.014 351.722   5
   6   2  10 8546.70 1143.03   5
   6   2  11 8440.78 1187.86   5
   6   2  12 3816.93 834.229   5
   6   2  13 8952.88 1318.57   5
   6   3   5 21471.2 638.699   3
   6   3   9 19869.1 1632.10   5
   6   3  10 2813.96 696.709   5
   6   3  11 12043.6 1377.90   5
   6   3  12 1951.24 594.253   5
   6   3  13 4411.43 960.325   5
   6   4   9 10977.2 1187.58   5
   6   4  10 9938.67 1159.56   5
   6   4  11 6561.24 995.600   5
   6   4  12 2166.72 598.454   5
   6   4  13 9323.00 1314.05   5
   6   5   9 27341.8 1859.61   5
   6   5  10 2037.84 568.421   5
   6   5  11 1477.63 551.234   5
   6   5  12-301.153 402.287   5
   6   5  13 6685.12 1085.75   5
   6   6   8 884.310 407.546   5
   6   6   9 13572.9 1272.61   5
   6   6  10 7386.60 995.361   5
   6   7  -2 292.101 269.190   7
   6   7  -1 11978.0 1063.90   7
   6   7   0 5505.89 771.823   7
   6   8  -2 5377.71 721.913   7
   6   8  -1 780.117 323.879   7
   6   8   0 4242.10 730.507   7
   6   8   1 5091.30 817.719   7
   6   8   2 4398.97 779.412   7
   6   8   3 2484.81 662.901   7
   6   8   4 8615.55 1141.85   7
   6   9  -1 7239.25 939.904   7
   6   9   0 2795.00 663.536   7
   6   9   1 973.633 470.881   7
   6   9   2 18587.9 1660.74   7
   6   9   3 1523.48 569.849   7
   6   9   4 8472.80 1206.83   7
   6   9   5 987.819 523.184   7
   6   9   6 711.882 416.995   7
   6   9   7 1511.07 577.136   7
   6  10   0 395.730 369.559   7
   6  10   1 6193.67 1010.30   7
   6  10   2 1218.44 604.784   7
   6  10   3-20.7330 338.382   7
   6  10   4 8461.12 1235.14   7
   6  10   5 164.593 328.481   7
   6  11   0 408.561 311.058   7
   6  11   1 680.582 443.136   7
   7  -5   2 10282.2 1351.64   4
   7  -5   3 396.203 334.058   4
   7  -4   1 1713.03 523.925   4
   7  -4   2 10308.8 1254.03   4
   7  -4   3 1036.92 423.909   4
   7  -4   5 5463.28 961.343   5
   7  -4   6 525.325 405.668   5
   7  -4   7 3433.85 762.584   5
   7  -4   8-178.971 333.636   5
   7  -3   1 4411.73 796.466   4
   7  -3   6 12540.2 1409.51   5
   7  -3   7 6116.08 1046.36   5
   7  -3   8-437.973 411.967   5
   7  -3   9 4770.85 991.947   5
   7  -2   7 6293.45 1031.58   5
   7  -2   8 2416.23 712.811   5
   7  -2   9-411.957 381.912   5
   7  -1   8 249.483 297.575   5
   7  -1   9 4856.21 994.346   5
   7  -1  10 1136.83 564.871   5
   7   0   9 1111.24 526.977   5
   7   0  10 270.513 380.670   5
   7   0  11 4702.25 1031.20   5
   7   1   9 6096.29 1000.75   5
   7   1  10 2909.75 798.584   5
   7   1  11 3198.67 816.640   5
   7   2   9 1616.67 577.225   5
   7   2  10 2153.02 655.216   5
   7   2  11 8428.65 1231.09   5
   7   2  12 2839.73 780.579   5
   7   3  10 3226.40 762.587   5
   7   3  11 1760.91 605.055   5
   7   3  12 1329.22 528.573   5
   7   4  10 3603.10 792.000   5
   7   4  11 6297.28 1050.96   5
   7   4  12 3269.22 810.359   5
   7   5   9 12119.2 1320.71   5
   7   5  10 2771.17 684.581   5
   7   5  11 2902.08 711.224   5
   7   5  12 31.1418 390.905   5
   7   5  13 1475.08 616.511   5
   7   6   9 241.802 356.288   5
   7   6  10 5878.97 980.371   5
   7   6  11 1853.08 592.192   5
   7   8  -1 767.754 326.356   7
   7   8   0 143.012 231.961   7
   7   8   1 3354.55 723.476   7
   7   9   0 2727.34 640.159   7
   7   9   1 340.727 362.320   7
   7   9   2 1712.75 531.561   7
   7   9   3 684.981 401.958   7
   7   9   4 4892.54 950.674   7
   7   9   5 757.390 430.514   7
   7   9   6 647.894 504.977   7
   7  10   1 4920.22 882.353   7
   7  10   2 830.580 492.270   7
   7  10   3 515.485 479.122   7
   7  10   4 2504.36 766.857   7
   7  11   1-126.018 289.311   7
   8  -3   6 2306.53 726.844   5
   8  -2   7 7551.45 1193.17   5
   8  -1   8 3202.03 839.430   5
   8   0   9 3191.75 823.007   5
   8   1   9 5462.94 1040.64   5
   8   1  10 2307.06 734.990   5
   8   2  10 12051.7 1520.01   5
   8   3  10 4941.49 1011.22   5
   8   3  11 1310.52 562.830   5
   8   4  10 1137.15 588.197   5
   8   4  11 1726.79 667.926   5
   8   5  10 8691.14 1235.31   5
   8   5  11-204.513 331.829   5
   8   6  10 1216.73 535.448   5
   8   6  11 1042.83 597.236   5
   8   6  12 279.493 370.912   5
   8   9   1 385.047 420.720   7
   8   9   2 782.390 463.939   7
   8   9   3 2792.04 757.509   7
   8  10   2 5339.50 998.829   7
   8  10   3 1809.89 641.300   7
   9   6  10 10357.3 1416.18   5
   9   7  10-137.749 350.612   5
   0   0   0    0.00    0.00   0
TITL 1374af29 in P1
REM P1 (#1 in standard setting)
CELL 0.71073   8.219925   8.350754  11.224438  86.8489  78.0135  66.2150
ZERR    2.00   0.000939   0.000983   0.001341   0.0096   0.0099   0.0111
LATT -1
SFAC C H N O Zn
UNIT 36.00 60.00 8.00 8.00 2.00
TREF
HKLF 4
END
;
loop_
_symmetry_equiv_pos_as_xyz
'x, y, z'
'-x, -y, -z'
loop_
_atom_site_label
_atom_site_type_symbol
_atom_site_fract_x
_atom_site_fract_y
_atom_site_fract_z
_atom_site_U_iso_or_equiv
_atom_site_adp_type
_atom_site_occupancy
_atom_site_calc_flag
C1 C 0.2435(3) -0.3960(3) -0.0078(2) 0.0267(5) Uani 1 d
C2 C 0.3061(4) -0.5653(3) 0.0307(2) 0.0365(6) Uani 1 d
C3 C 0.2211(3) -0.6044(3) 0.1408(2) 0.0330(6) Uani 1 d
C4 C 0.0730(3) -0.4722(3) 0.2102(2) 0.0228(5) Uani 1 d
C5 C 0.0205(3) -0.3061(3) 0.16382(19) 0.0215(5) Uani 1 d
C6 C -0.0350(3) -0.5028(3) 0.3286(2) 0.0266(5) Uani 1 d
C7 C -0.3207(3) -0.5365(3) 0.4192(2) 0.0234(5) Uani 1 d
C8 C -0.4080(3) -0.3847(3) 0.5128(2) 0.0269(5) Uani 1 d
C9 C -0.4662(3) -0.5771(3) 0.3793(2) 0.0280(5) Uani 1 d
C10 C 0.0971(3) 0.0279(3) 0.23792(19) 0.0192(5) Uani 1 d
C11 C 0.0459(3) 0.0135(3) 0.37393(18) 0.0197(5) Uani 1 d
C12 C 0.1613(3) 0.0155(3) 0.44868(19) 0.0211(5) Uani 1 d
C13 C -0.1158(3) -0.0015(3) 0.42628(19) 0.0207(5) Uani 1 d
N1 N 0.1014(2) -0.2658(2) 0.05803(16) 0.0216(4) Uani 1 d
N2 N -0.2094(3) -0.4966(3) 0.31040(17) 0.0249(4) Uani 1 d
O1 O -0.0311(2) 0.08141(19) 0.18068(13) 0.0239(3) Uani 1 d
O2 O 0.2611(2) -0.0139(2) 0.19077(13) 0.0290(4) Uani 1 d
O3 O -0.2761(2) 0.0312(2) 0.04906(17) 0.0256(4) Uani 1 d
O4 O -0.4004(3) -0.1413(3) 0.23653(18) 0.0396(5) Uani 1 d
Zn1 Zn 0 0 0 0.02085(12) Uani 1 d
H1 H 0.300(3) -0.361(3) -0.081(2) 0.026(6) Uiso 1 d
H1N H -0.185(3) -0.571(3) 0.258(2) 0.030(7) Uiso 1 d
H1O3 H -0.313(4) -0.022(3) 0.098(3) 0.045(9) Uiso 1 d
H1O4 H -0.510(5) -0.113(4) 0.238(3) 0.060(10) Uiso 1 d
H2 H 0.412(3) -0.656(3) -0.021(2) 0.039(7) Uiso 1 d
H2O3 H -0.292(5) 0.012(4) -0.024(4) 0.096(14) Uiso 1 d
H2O4 H -0.357(5) -0.250(4) 0.248(3) 0.077(12) Uiso 1 d
H3 H 0.265(3) -0.720(3) 0.168(2) 0.031(7) Uiso 1 d
H5 H -0.082(3) -0.213(3) 0.209(2) 0.023(6) Uiso 1 d
H6A H -0.067(3) -0.407(3) 0.388(2) 0.027(6) Uiso 1 d
H6B H 0.039(3) -0.615(3) 0.364(2) 0.027(6) Uiso 1 d
H7B H -0.245(3) -0.640(3) 0.4582(19) 0.020(6) Uiso 1 d
H8A H -0.320(4) -0.359(3) 0.541(2) 0.042(8) Uiso 1 d
H8B H -0.482(3) -0.279(3) 0.474(2) 0.028(6) Uiso 1 d
H9 H -0.411(3) -0.673(3) 0.320(2) 0.037(7) Uiso 1 d
H9A H -0.538(3) -0.482(3) 0.340(2) 0.026(6) Uiso 1 d
H12 H 0.268(3) 0.025(3) 0.418(2) 0.023(6) Uiso 1 d
H13 H -0.194(3) -0.004(3) 0.377(2) 0.032(7) Uiso 1 d
loop_
_atom_site_aniso_label
_atom_site_aniso_U_11
_atom_site_aniso_U_22
_atom_site_aniso_U_33
_atom_site_aniso_U_23
_atom_site_aniso_U_13
_atom_site_aniso_U_12
C1 0.0265(12) 0.0342(13) 0.0199(13) -0.0011(10) 0.0018(10) -0.0154(11)
C2 0.0307(14) 0.0316(14) 0.0396(16) -0.0052(11) 0.0064(12) -0.0104(12)
C3 0.0299(13) 0.0247(13) 0.0416(16) 0.0054(11) -0.0013(11) -0.0115(11)
C4 0.0207(11) 0.0268(12) 0.0224(12) 0.0058(9) -0.0031(9) -0.0122(10)
C5 0.0190(11) 0.0284(12) 0.0170(11) 0.0023(9) -0.0010(9) -0.0107(10)
C6 0.0264(12) 0.0292(13) 0.0257(13) 0.0099(10) -0.0067(10) -0.0130(11)
C7 0.0238(12) 0.0247(12) 0.0209(12) 0.0058(9) -0.0018(9) -0.0110(10)
C8 0.0277(13) 0.0302(13) 0.0246(13) 0.0012(10) -0.0007(10) -0.0157(11)
C9 0.0289(13) 0.0342(14) 0.0216(13) 0.0011(10) 0.0004(10) -0.0161(12)
C10 0.0230(11) 0.0181(11) 0.0177(11) 0.0034(8) -0.0052(9) -0.0092(9)
C11 0.0230(11) 0.0183(11) 0.0152(11) 0.0017(8) -0.0032(8) -0.0060(9)
C12 0.0226(12) 0.0225(12) 0.0171(11) 0.0009(8) -0.0004(9) -0.0095(10)
C13 0.0232(11) 0.0234(11) 0.0166(11) 0.0009(8) -0.0062(9) -0.0095(10)
N1 0.0218(9) 0.0266(10) 0.0162(10) 0.0039(7) -0.0030(7) -0.0105(8)
N2 0.0240(10) 0.0332(12) 0.0179(10) 0.0044(8) 0.0001(8) -0.0144(9)
O1 0.0238(8) 0.0307(9) 0.0150(8) 0.0048(6) -0.0058(6) -0.0083(7)
O2 0.0239(8) 0.0468(10) 0.0172(9) 0.0082(7) -0.0046(7) -0.0160(8)
O3 0.0230(8) 0.0376(10) 0.0188(9) 0.0083(7) -0.0031(7) -0.0160(8)
O4 0.0229(10) 0.0508(13) 0.0434(12) 0.0224(9) -0.0079(8) -0.0150(9)
Zn1 0.0208(2) 0.0280(2) 0.0136(2) 0.00669(14) -0.00347(14) -0.01035(16)
loop_
_atom_type_symbol
_atom_type_description
_atom_type_scat_dispersion_real
_atom_type_scat_dispersion_imag
_atom_type_scat_source
C C 0.0033 0.0016 'International Tables Vol C Tables 4.2.6.8 and 6.1.1.4'
H H 0 0 'International Tables Vol C Tables 4.2.6.8 and 6.1.1.4'
N N 0.0061 0.0033 'International Tables Vol C Tables 4.2.6.8 and 6.1.1.4'
O O 0.0106 0.006 'International Tables Vol C Tables 4.2.6.8 and 6.1.1.4'
Zn Zn 0.2839 1.4301 'International Tables Vol C Tables 4.2.6.8 and 6.1.1.4'
loop_
_geom_angle_atom_site_label_1
_geom_angle_atom_site_label_2
_geom_angle_atom_site_label_3
_geom_angle
_geom_angle_site_symmetry_1
_geom_angle_site_symmetry_3
N1 C1 C2 122.3(2) . .
N1 C1 H1 114.8(13) . .
C2 C1 H1 122.9(13) . .
C1 C2 C3 119.5(2) . .
C1 C2 H2 119.0(15) . .
C3 C2 H2 121.6(15) . .
C2 C3 C4 119.4(2) . .
C2 C3 H3 119.7(14) . .
C4 C3 H3 120.9(14) . .
C5 C4 C3 116.9(2) . .
C5 C4 C6 119.56(19) . .
C3 C4 C6 123.5(2) . .
N1 C5 C4 124.58(19) . .
N1 C5 H5 116.6(13) . .
C4 C5 H5 118.8(13) . .
N2 C6 C4 110.23(19) . .
N2 C6 H6A 105.2(13) . .
C4 C6 H6A 110.2(13) . .
N2 C6 H6B 112.8(13) . .
C4 C6 H6B 110.1(13) . .
H6A C6 H6B 108.1(19) . .
N2 C7 C9 108.52(19) . .
N2 C7 C8 111.65(18) . .
C9 C7 C8 110.2(2) . .
N2 C7 H7B 110.1(12) . .
C9 C7 H7B 108.3(12) . .
C8 C7 H7B 108.0(12) . .
C7 C8 C9 110.95(19) . 2_446
C7 C8 H8A 112.0(14) . .
C9 C8 H8A 109.7(16) 2_446 .
C7 C8 H8B 108.7(13) . .
C9 C8 H8B 108.2(13) 2_446 .
H8A C8 H8B 107.2(19) . .
C7 C9 C8 112.1(2) . 2_446
C7 C9 H9 110.2(15) . .
C8 C9 H9 111.1(14) 2_446 .
C7 C9 H9A 110.1(14) . .
C8 C9 H9A 107.6(14) 2_446 .
H9 C9 H9A 106(2) . .
O2 C10 O1 125.20(19) . .
O2 C10 C11 118.24(19) . .
O1 C10 C11 116.55(18) . .
C13 C11 C12 119.3(2) . .
C13 C11 C10 120.7(2) . .
C12 C11 C10 119.98(19) . .
C13 C12 C11 120.4(2) 2_556 .
C13 C12 H12 117.6(15) 2_556 .
C11 C12 H12 122.0(15) . .
C12 C13 C11 120.3(2) 2_556 .
C12 C13 H13 119.5(15) 2_556 .
C11 C13 H13 120.2(15) . .
C5 N1 C1 117.44(19) . .
C5 N1 Zn1 119.42(14) . .
C1 N1 Zn1 123.14(15) . .
C6 N2 C7 114.55(19) . .
C6 N2 H1N 106.3(18) . .
C7 N2 H1N 107.4(17) . .
C10 O1 Zn1 123.03(13) . .
Zn1 O3 H1O3 125(2) . .
Zn1 O3 H2O3 99(2) . .
H1O3 O3 H2O3 111(3) . .
H1O4 O4 H2O4 105(3) . .
O1 Zn1 O1 180.00(8) . 2
O1 Zn1 O3 86.31(7) . .
O1 Zn1 O3 93.68(7) 2 .
O1 Zn1 O3 93.69(7) . 2
O1 Zn1 O3 86.32(7) 2 2
O3 Zn1 O3 180 . 2
O1 Zn1 N1 88.11(6) . .
O1 Zn1 N1 91.89(6) 2 .
O3 Zn1 N1 93.27(7) . .
O3 Zn1 N1 86.73(7) 2 .
O1 Zn1 N1 91.89(6) . 2
O1 Zn1 N1 88.11(6) 2 2
O3 Zn1 N1 86.73(7) . 2
O3 Zn1 N1 93.27(7) 2 2
N1 Zn1 N1 180 . 2
loop_
_geom_bond_atom_site_label_1
_geom_bond_atom_site_label_2
_geom_bond_distance
_geom_bond_site_symmetry_2
C1 N1 1.341(3) .
C1 C2 1.374(3) .
C1 H1 0.95(2) .
C2 C3 1.379(3) .
C2 H2 0.98(2) .
C3 C4 1.387(3) .
C3 H3 0.94(2) .
C4 C5 1.383(3) .
C4 C6 1.508(3) .
C5 N1 1.332(3) .
C5 H5 0.95(2) .
C6 N2 1.470(3) .
C6 H6A 0.99(2) .
C6 H6B 1.00(2) .
C7 N2 1.476(3) .
C7 C9 1.521(3) .
C7 C8 1.524(3) .
C7 H7B 0.98(2) .
C8 C9 1.530(3) 2_446
C8 H8A 0.95(3) .
C8 H8B 0.99(2) .
C9 C8 1.530(3) 2_446
C9 H9 0.97(2) .
C9 H9A 0.93(2) .
C10 O2 1.250(2) .
C10 O1 1.262(2) .
C10 C11 1.509(3) .
C11 C13 1.389(3) .
C11 C12 1.397(3) .
C12 C13 1.387(3) 2_556
C12 H12 0.90(2) .
C13 C12 1.387(3) 2_556
C13 H13 0.94(3) .
N1 Zn1 2.1495(18) .
N2 H1N 0.82(2) .
O1 Zn1 2.1063(14) .
O3 Zn1 2.1315(17) .
O3 H1O3 0.77(3) .
O3 H2O3 0.89(4) .
O4 H1O4 0.83(3) .
O4 H2O4 0.84(3) .
Zn1 O1 2.1063(14) 2
Zn1 O3 2.1315(17) 2
Zn1 N1 2.1496(18) 2
loop_
_geom_torsion_atom_site_label_1
_geom_torsion_atom_site_label_2
_geom_torsion_atom_site_label_3
_geom_torsion_atom_site_label_4
_geom_torsion
_geom_torsion_site_symmetry_4
N1 C1 C2 C3 0.0(4) .
C1 C2 C3 C4 0.5(4) .
C2 C3 C4 C5 -0.6(4) .
C2 C3 C4 C6 176.8(2) .
C3 C4 C5 N1 0.3(3) .
C6 C4 C5 N1 -177.2(2) .
C5 C4 C6 N2 72.9(3) .
C3 C4 C6 N2 -104.5(3) .
N2 C7 C8 C9 175.9(2) 2_446
C9 C7 C8 C9 55.2(3) 2_446
N2 C7 C9 C8 -178.41(19) 2_446
C8 C7 C9 C8 -55.9(3) 2_446
O2 C10 C11 C13 -157.7(2) .
O1 C10 C11 C13 22.1(3) .
O2 C10 C11 C12 22.4(3) .
O1 C10 C11 C12 -157.78(19) .
C13 C11 C12 C13 0.5(3) 2_556
C10 C11 C12 C13 -179.70(18) 2_556
C12 C11 C13 C12 -0.5(3) 2_556
C10 C11 C13 C12 179.70(18) 2_556
C4 C5 N1 C1 0.1(3) .
C4 C5 N1 Zn1 179.72(17) .
C2 C1 N1 C5 -0.3(3) .
C2 C1 N1 Zn1 -179.83(19) .
C4 C6 N2 C7 176.18(18) .
C9 C7 N2 C6 -163.8(2) .
C8 C7 N2 C6 74.5(3) .
O2 C10 O1 Zn1 31.4(3) .
C11 C10 O1 Zn1 -148.37(13) .
