#------------------------------------------------------------------------------
#$Date: 2019-11-17 13:32:49 +0200 (Sun, 17 Nov 2019) $
#$Revision: 230185 $
#$URL: file:///home/coder/svn-repositories/cod/cif/7/05/70/7057005.cif $
#------------------------------------------------------------------------------
#
# This file is available in the Crystallography Open Database (COD),
# http://www.crystallography.net/
#
# All data on this site have been placed in the public domain by the
# contributors.
#
data_7057005
loop_
_publ_author_name
'Moreno-Alc\'antar, Guillermo'
'Romo-Islas, Guillermo'
'Flores-\'Alamo, Marcos'
'Torrens, Hugo'
_publ_section_title
;
 Aurophilicity vs. thiophilicity: directing the crystalline supramolecular
 arrangement in luminescent gold compounds
;
_journal_issue                   10
_journal_name_full               'New Journal of Chemistry'
_journal_page_first              7845
_journal_paper_doi               10.1039/C7NJ04354F
_journal_volume                  42
_journal_year                    2018
_chemical_formula_moiety         'C38 H30 Au2 F4 P2 S2'
_chemical_formula_sum            'C38 H30 Au2 F4 P2 S2'
_chemical_formula_weight         1082.61
_space_group_IT_number           2
_space_group_name_Hall           '-P 1'
_space_group_name_H-M_alt        'P -1'
_symmetry_cell_setting           triclinic
_symmetry_Int_Tables_number      2
_symmetry_space_group_name_Hall  '-P 1'
_symmetry_space_group_name_H-M   'P -1'
_atom_sites_solution_hydrogens   geom
_audit_conform_dict_location     ftp://ftp.iucr.org/pub/cif_core.dic
_audit_conform_dict_name         cif_core.dic
_audit_conform_dict_version      2.4.3
_audit_creation_date             2017-08-31T17:51:10-00:00
_audit_creation_method           'WinGX routine CIF_UPDATE'
_audit_update_record
;
2017-11-07 deposited with the CCDC.
2018-02-12 downloaded from the CCDC.
;
_cell_angle_alpha                76.038(4)
_cell_angle_beta                 67.746(5)
_cell_angle_gamma                75.977(4)
_cell_formula_units_Z            1
_cell_length_a                   8.9850(5)
_cell_length_b                   10.8789(5)
_cell_length_c                   11.1836(6)
_cell_measurement_reflns_used    5393
_cell_measurement_temperature    130(2)
_cell_measurement_theta_max      29.4609
_cell_measurement_theta_min      3.4123
_cell_volume                     967.88(9)
_computing_cell_refinement
;
        CrysAlisPro, Agilent Technologies,
        Version 1.171.36.32 (release 02-08-2013 CrysAlis171 .NET)
        (compiled Aug  2 2013,16:46:58)
;
_computing_data_collection
;
        CrysAlisPro, Agilent Technologies,
        Version 1.171.36.32 (release 02-08-2013 CrysAlis171 .NET)
        (compiled Aug  2 2013,16:46:58)
;
_computing_data_reduction
;
        CrysAlisPro, Agilent Technologies,
        Version 1.171.36.32 (release 02-08-2013 CrysAlis171 .NET)
        (compiled Aug  2 2013,16:46:58)
;
_computing_molecular_graphics
;
          'Ortep-3 for Windows (Farrugia, 1997)'
      L. J. Farrugia, J. Appl. Crystallogr., 1997, 30, 565.
;
_computing_publication_material
;    
        'WinGX publication routines (Farrugia, 1999)'                 
    L. J. Farrugia, J. Appl. Crystallogr., 1999, 32, 837-838.
;
_computing_structure_refinement
;
      'SHELXS-2014 (Sheldrick, 2015)'
      Sheldrick, G. M. (2015). Acta Cryst. C71, 3--8.
;
_computing_structure_solution
;
      'SHELXS-2014 (Sheldrick, 2015)'
      Sheldrick, G. M. (2015). Acta Cryst. A71, 3--8.
;
_diffrn_ambient_temperature      130(2)
_diffrn_detector_area_resol_mean 10.4685
_diffrn_measured_fraction_theta_full 0.998
_diffrn_measured_fraction_theta_max 0.855
_diffrn_measurement_device_type  'Xcalibur, Atlas, Gemini'
_diffrn_measurement_method       '\w scans'
_diffrn_orient_matrix_UB_11      0.0453987
_diffrn_orient_matrix_UB_12      -0.0025903
_diffrn_orient_matrix_UB_13      0.0406904
_diffrn_orient_matrix_UB_21      0.072899
_diffrn_orient_matrix_UB_22      -0.0021164
_diffrn_orient_matrix_UB_23      -0.055101
_diffrn_orient_matrix_UB_31      -0.0105648
_diffrn_orient_matrix_UB_32      0.0680715
_diffrn_orient_matrix_UB_33      -0.0117507
_diffrn_radiation_monochromator  graphite
_diffrn_radiation_type           MoK\a
_diffrn_radiation_wavelength     0.71073
_diffrn_reflns_av_R_equivalents  0.0326
_diffrn_reflns_av_unetI/netI     0.0515
_diffrn_reflns_Laue_measured_fraction_full 0.998
_diffrn_reflns_Laue_measured_fraction_max 0.855
_diffrn_reflns_limit_h_max       11
_diffrn_reflns_limit_h_min       -11
_diffrn_reflns_limit_k_max       14
_diffrn_reflns_limit_k_min       -15
_diffrn_reflns_limit_l_max       15
_diffrn_reflns_limit_l_min       -15
_diffrn_reflns_number            10742
_diffrn_reflns_point_group_measured_fraction_full 0.998
_diffrn_reflns_point_group_measured_fraction_max 0.855
_diffrn_reflns_theta_full        25.242
_diffrn_reflns_theta_max         29.461
_diffrn_reflns_theta_min         3.412
_exptl_absorpt_coefficient_mu    7.805
_exptl_absorpt_correction_T_max  0.406
_exptl_absorpt_correction_T_min  0.102
_exptl_absorpt_correction_type   analytical
_exptl_absorpt_process_details
;
        CrysAlisPro, Agilent Technologies,
        Version 1.171.36.32 (release 02-08-2013 CrysAlis171 .NET)
        (compiled Aug  2 2013,16:46:58)
Analytical numeric absorption correction using a multifaceted crystal
                        model based on expressions derived by R.C. Clark & J.S.
        (Clark, R. C. & Reid, J. S. (1995). Acta Cryst. A51, 887-897)
;
_exptl_crystal_colour            colourless
_exptl_crystal_density_diffrn    1.857
_exptl_crystal_description       plate
_exptl_crystal_F_000             514
_exptl_crystal_size_max          0.51
_exptl_crystal_size_mid          0.24
_exptl_crystal_size_min          0.12
_refine_diff_density_max         0.738
_refine_diff_density_min         -1.652
_refine_diff_density_rms         0.145
_refine_ls_extinction_method     none
_refine_ls_goodness_of_fit_ref   1.045
_refine_ls_hydrogen_treatment    constr
_refine_ls_matrix_type           full
_refine_ls_number_parameters     217
_refine_ls_number_reflns         4596
_refine_ls_number_restraints     0
_refine_ls_restrained_S_all      1.045
_refine_ls_R_factor_all          0.0288
_refine_ls_R_factor_gt           0.0247
_refine_ls_shift/su_max          0.001
_refine_ls_shift/su_mean         0
_refine_ls_structure_factor_coef Fsqd
_refine_ls_weighting_details
'w=1/[\s^2^(Fo^2^)+(0.0169P)^2^] where P=(Fo^2^+2Fc^2^)/3'
_refine_ls_weighting_scheme      calc
_refine_ls_wR_factor_gt          0.0486
_refine_ls_wR_factor_ref         0.0507
_reflns_Friedel_coverage         0
_reflns_number_gt                4214
_reflns_number_total             4596
_reflns_threshold_expression     'I > 2\s(I)'
_cod_data_source_file            c7nj04354f2.cif
_cod_data_source_block           3-gmeauf2a-sq
_cod_depositor_comments
'Adding full bibliography for 7057004--7057010.cif.'
_cod_original_cell_volume        967.88(10)
_cod_database_code               7057005
_shelx_estimated_absorpt_t_min   0.109
_shelx_estimated_absorpt_t_max   0.454
_shelx_fab_file
;
    0    0    2      6.52      0.00
    0    0    3     -4.30      0.00
    0    0    4     -3.14      0.00
    0    0    5      0.74      0.00
    0    0    6      2.55      0.00
    0    0    7      1.76      0.00
    0    0    8     -0.32      0.00
    0    0    9     -1.66      0.00
    0    0   10     -1.89      0.00
    0    0   11     -1.53      0.00
    0    0   12     -0.87      0.00
    0    0   13     -0.47      0.00
    0   -1   13     -0.15      0.00
    0   -1   12     -0.45      0.00
    0   -1   11     -1.31      0.00
    0   -1   10     -1.88      0.00
    0   -1    9     -1.75      0.00
    0   -1    8     -0.46      0.00
    0   -1    7      2.00      0.00
    0   -1    6      3.70      0.00
    0   -1    5      2.72      0.00
    0   -1    4     -0.78      0.00
    0   -1    3     -3.04      0.00
    0   -1    2      4.13      0.00
    0    1    2      5.87      0.00
    0    1    3     -6.13      0.00
    0    1    4     -5.71      0.00
    0    1    5     -1.65      0.00
    0    1    6      0.86      0.00
    0    1    7      1.09      0.00
    0    1    8     -0.33      0.00
    0    1    9     -1.49      0.00
    0    1   10     -1.58      0.00
    0    1   11     -1.21      0.00
    0    1   12     -0.70      0.00
    0    1   13     -0.35      0.00
    0   -2   12      0.25      0.00
    0   -2   11     -0.73      0.00
    0   -2   10     -1.75      0.00
    0   -2    9     -2.07      0.00
    0   -2    8     -1.05      0.00
    0   -2    7      1.74      0.00
    0   -2    6      4.38      0.00
    0   -2    5      4.10      0.00
    0   -2    4      0.67      0.00
    0   -2    3     -2.74      0.00
    0   -2    2      0.34      0.00
    0   -2    1     13.00      0.00
    0    2    0     24.50      0.00
    0    2    1     20.26      0.00
    0    2    2      4.25      0.00
    0    2    3     -6.66      0.00
    0    2    4     -7.01      0.00
    0    2    5     -3.61      0.00
    0    2    6     -1.05      0.00
    0    2    7      0.04      0.00
    0    2    8     -0.40      0.00
    0    2    9     -1.09      0.00
    0    2   10     -1.02      0.00
    0    2   11     -0.73      0.00
    0    2   12     -0.50      0.00
    0    2   13     -0.21      0.00
    0   -3   12      0.49      0.00
    0   -3   11     -0.35      0.00
    0   -3   10     -1.58      0.00
    0   -3    9     -2.42      0.00
    0   -3    8     -1.89      0.00
    0   -3    7      1.00      0.00
    0   -3    6      4.57      0.00
    0   -3    5      5.13      0.00
    0   -3    4      1.72      0.00
    0   -3    3     -2.42      0.00
    0   -3    2     -1.98      0.00
    0   -3    1      6.14      0.00
    0    3    0     15.67      0.00
    0    3    1     15.01      0.00
    0    3    2      4.03      0.00
    0    3    3     -5.29      0.00
    0    3    4     -6.81      0.00
    0    3    5     -4.68      0.00
    0    3    6     -2.56      0.00
    0    3    7     -1.03      0.00
    0    3    8     -0.62      0.00
    0    3    9     -0.75      0.00
    0    3   10     -0.54      0.00
    0    3   11     -0.49      0.00
    0    3   12     -0.65      0.00
    0    3   13     -0.42      0.00
    0   -4   11     -0.27      0.00
    0   -4   10     -1.22      0.00
    0   -4    9     -2.26      0.00
    0   -4    8     -2.33      0.00
    0   -4    7      0.11      0.00
    0   -4    6      4.12      0.00
    0   -4    5      5.61      0.00
    0   -4    4      2.65      0.00
    0   -4    3     -1.71      0.00
    0   -4    2     -2.57      0.00
    0   -4    1      2.63      0.00
    0    4    0     10.15      0.00
    0    4    1     11.53      0.00
    0    4    2      4.43      0.00
    0    4    3     -3.54      0.00
    0    4    4     -6.19      0.00
    0    4    5     -5.10      0.00
    0    4    6     -3.26      0.00
    0    4    7     -1.59      0.00
    0    4    8     -0.80      0.00
    0    4    9     -0.62      0.00
    0    4   10     -0.35      0.00
    0    4   11     -0.47      0.00
    0    4   12     -0.95      0.00
    0    4   13     -0.76      0.00
    0   -5   11     -0.12      0.00
    0   -5   10     -0.62      0.00
    0   -5    9     -1.62      0.00
    0   -5    8     -2.19      0.00
    0   -5    7     -0.58      0.00
    0   -5    6      3.09      0.00
    0   -5    5      5.23      0.00
    0   -5    4      3.13      0.00
    0   -5    3     -1.03      0.00
    0   -5    2     -2.74      0.00
    0   -5    1      0.22      0.00
    0    5    0      5.63      0.00
    0    5    1      7.83      0.00
    0    5    2      3.78      0.00
    0    5    3     -2.48      0.00
    0    5    4     -5.51      0.00
    0    5    5     -4.98      0.00
    0    5    6     -3.22      0.00
    0    5    7     -1.62      0.00
    0    5    8     -0.80      0.00
    0    5    9     -0.53      0.00
    0    5   10     -0.27      0.00
    0    5   11     -0.47      0.00
    0    5   12     -1.08      0.00
    0    5   13     -0.93      0.00
    0    5   14     -0.11      0.00
    0   -6   10     -0.07      0.00
    0   -6    9     -1.07      0.00
    0   -6    8     -1.98      0.00
    0   -6    7     -1.09      0.00
    0   -6    6      1.85      0.00
    0   -6    5      4.20      0.00
    0   -6    4      3.10      0.00
    0   -6    3     -0.46      0.00
    0   -6    2     -2.79      0.00
    0   -6    1     -1.72      0.00
    0    6    0      1.69      0.00
    0    6    1      4.07      0.00
    0    6    2      2.60      0.00
    0    6    3     -1.47      0.00
    0    6    4     -4.22      0.00
    0    6    5     -4.18      0.00
    0    6    6     -2.85      0.00
    0    6    7     -1.64      0.00
    0    6    8     -0.85      0.00
    0    6    9     -0.32      0.00
    0    6   10      0.03      0.00
    0    6   11     -0.25      0.00
    0    6   12     -0.96      0.00
    0    6   13     -0.87      0.00
    0   -7    9     -0.87      0.00
    0   -7    8     -1.97      0.00
    0   -7    7     -1.54      0.00
    0   -7    6      0.70      0.00
    0   -7    5      2.93      0.00
    0   -7    4      2.77      0.00
    0   -7    3      0.17      0.00
    0   -7    2     -2.26      0.00
    0   -7    1     -2.37      0.00
    0    7    0     -0.35      0.00
    0    7    1      1.92      0.00
    0    7    2      2.16      0.00
    0    7    3     -0.09      0.00
    0    7    4     -2.49      0.00
    0    7    5     -3.04      0.00
    0    7    6     -2.43      0.00
    0    7    7     -1.84      0.00
    0    7    8     -1.12      0.00
    0    7    9     -0.11      0.00
    0    7   10      0.54      0.00
    0    7   11      0.19      0.00
    0    7   12     -0.66      0.00
    0    7   13     -0.71      0.00
    0   -8    8     -1.77      0.00
    0   -8    7     -1.65      0.00
    0   -8    6     -0.14      0.00
    0   -8    5      1.64      0.00
    0   -8    4      2.15      0.00
    0   -8    3      0.71      0.00
    0   -8    2     -1.30      0.00
    0   -8    1     -1.90      0.00
    0    8    0     -0.66      0.00
    0    8    1      1.32      0.00
    0    8    2      2.21      0.00
    0    8    3      0.88      0.00
    0    8    4     -1.32      0.00
    0    8    5     -2.17      0.00
    0    8    6     -1.88      0.00
    0    8    7     -1.71      0.00
    0    8    8     -1.31      0.00
    0    8    9     -0.13      0.00
    0    8   10      0.81      0.00
    0    8   11      0.53      0.00
    0    8   12     -0.36      0.00
    0   -9    7     -1.11      0.00
    0   -9    6     -0.37      0.00
    0   -9    5      0.63      0.00
    0   -9    4      1.34      0.00
    0   -9    3      0.93      0.00
    0   -9    2     -0.44      0.00
    0   -9    1     -1.24      0.00
    0    9    0     -0.56      0.00
    0    9    1      0.95      0.00
    0    9    2      1.85      0.00
    0    9    3      0.97      0.00
    0    9    4     -0.89      0.00
    0    9    5     -1.60      0.00
    0    9    6     -1.09      0.00
    0    9    7     -0.98      0.00
    0    9    8     -1.10      0.00
    0    9    9     -0.37      0.00
    0    9   10      0.54      0.00
    0    9   11      0.45      0.00
    0  -10    6      0.00      0.00
    0  -10    5      0.20      0.00
    0  -10    4      0.64      0.00
    0  -10    3      0.78      0.00
    0  -10    2     -0.03      0.00
    0  -10    1     -0.88      0.00
    0   10    0     -0.65      0.00
    0   10    1      0.36      0.00
    0   10    2      1.13      0.00
    0   10    3      0.73      0.00
    0   10    4     -0.53      0.00
    0   10    5     -0.99      0.00
    0   10    6     -0.36      0.00
    0   10    7     -0.22      0.00
    0   10    8     -0.74      0.00
    0   10    9     -0.60      0.00
    0   10   10      0.06      0.00
    0  -11    5      0.16      0.00
    0  -11    4      0.15      0.00
    0  -11    3      0.30      0.00
    0  -11    2     -0.21      0.00
    0  -11    1     -0.93      0.00
    0   11    0     -0.80      0.00
    0   11    1     -0.02      0.00
    0   11    2      0.64      0.00
    0   11    3      0.67      0.00
    0   11    4      0.05      0.00
    0   11    5     -0.36      0.00
    0   11    6     -0.07      0.00
    0   11    7     -0.03      0.00
    0   11    8     -0.55      0.00
    0   11    9     -0.60      0.00
    0  -12    3     -0.20      0.00
    0  -12    2     -0.62      0.00
    0  -12    1     -1.15      0.00
    0   12    0     -0.85      0.00
    0   12    1     -0.02      0.00
    0   12    2      0.56      0.00
    0   12    3      0.73      0.00
    0   12    4      0.48      0.00
    0   12    5      0.04      0.00
    0   12    6     -0.14      0.00
    0   12    7     -0.22      0.00
    0   13    0     -0.60      0.00
    0   13    1      0.23      0.00
    0   13    2      0.66      0.00
    0   13    3      0.70      0.00
    0   13    4      0.56      0.00
    0   13    5      0.17      0.00
    0   13    6     -0.20      0.00
    0   14    2      0.61      0.00
    0   14    3      0.51      0.00
    0   14    4      0.41      0.00
   -1   14    3     -0.27      0.00
   -1   14    2     -0.28      0.00
   -1   13    5      0.19      0.00
   -1   13    4     -0.03      0.00
   -1   13    3     -0.23      0.00
   -1   13    2     -0.26      0.00
   -1   13    1     -0.02      0.00
   -1   13    0      0.60      0.00
   -1   12    6      0.39      0.00
   -1   12    5      0.58      0.00
   -1   12    4      0.44      0.00
   -1   12    3      0.02      0.00
   -1   12    2     -0.19      0.00
   -1   12    1     -0.03      0.00
   -1   12    0      0.54      0.00
    1  -12    1      1.05      0.00
    1  -12    2      0.74      0.00
    1  -12    3      0.01      0.00
   -1   11    8      0.66      0.00
   -1   11    7      0.51      0.00
   -1   11    6      0.55      0.00
   -1   11    5      1.10      0.00
   -1   11    4      1.15      0.00
   -1   11    3      0.40      0.00
   -1   11    2     -0.24      0.00
   -1   11    1     -0.27      0.00
   -1   11    0      0.17      0.00
    1  -11    1      0.65      0.00
    1  -11    2      0.41      0.00
    1  -11    3     -0.35      0.00
    1  -11    4     -0.60      0.00
    1  -11    5     -0.34      0.00
   -1   10    9      0.14      0.00
   -1   10    8      0.91      0.00
   -1   10    7      1.02      0.00
   -1   10    6      1.06      0.00
   -1   10    5      1.65      0.00
   -1   10    4      1.67      0.00
   -1   10    3      0.51      0.00
   -1   10    2     -0.63      0.00
   -1   10    1     -0.79      0.00
   -1   10    0     -0.22      0.00
    1  -10    1      0.45      0.00
    1  -10    2      0.38      0.00
    1  -10    3     -0.48      0.00
    1  -10    4     -0.94      0.00
    1  -10    5     -0.55      0.00
    1  -10    6     -0.04      0.00
   -1    9   10     -0.82      0.00
   -1    9    9     -0.09      0.00
   -1    9    8      1.28      0.00
   -1    9    7      1.92      0.00
   -1    9    6      1.86      0.00
   -1    9    5      1.95      0.00
   -1    9    4      1.62      0.00
   -1    9    3      0.15      0.00
   -1    9    2     -1.31      0.00
   -1    9    1     -1.46      0.00
   -1    9    0     -0.54      0.00
    1   -9    1      0.55      0.00
    1   -9    2      0.73      0.00
    1   -9    3     -0.35      0.00
    1   -9    4     -1.40      0.00
    1   -9    5     -1.21      0.00
    1   -9    6     -0.22      0.00
    1   -9    7      0.65      0.00
   -1    8   11     -0.27      0.00
   -1    8   10     -0.85      0.00
   -1    8    9     -0.11      0.00
   -1    8    8      1.52      0.00
   -1    8    7      2.53      0.00
   -1    8    6      2.43      0.00
   -1    8    5      2.04      0.00
   -1    8    4      1.43      0.00
   -1    8    3     -0.05      0.00
   -1    8    2     -1.68      0.00
   -1    8    1     -1.98      0.00
   -1    8    0     -0.83      0.00
    1   -8    1      0.71      0.00
    1   -8    2      1.24      0.00
    1   -8    3      0.00      0.00
    1   -8    4     -1.79      0.00
    1   -8    5     -2.15      0.00
    1   -8    6     -0.94      0.00
    1   -8    7      0.54      0.00
    1   -8    8      1.20      0.00
    1   -8    9      0.77      0.00
   -1    7   12      0.77      0.00
   -1    7   11      0.12      0.00
   -1    7   10     -0.44      0.00
   -1    7    9      0.12      0.00
   -1    7    8      1.41      0.00
   -1    7    7      2.38      0.00
   -1    7    6      2.49      0.00
   -1    7    5      2.24      0.00
   -1    7    4      1.85      0.00
   -1    7    3      0.56      0.00
   -1    7    2     -1.58      0.00
   -1    7    1     -2.77      0.00
   -1    7    0     -1.80      0.00
    1   -7    1      0.38      0.00
    1   -7    2      1.63      0.00
    1   -7    3      0.55      0.00
    1   -7    4     -1.81      0.00
    1   -7    5     -2.90      0.00
    1   -7    6     -1.76      0.00
    1   -7    7      0.15      0.00
    1   -7    8      1.21      0.00
    1   -7    9      0.96      0.00
   -1    6   12      0.95      0.00
   -1    6   11      0.46      0.00
   -1    6   10      0.00      0.00
   -1    6    9      0.36      0.00
   -1    6    8      1.12      0.00
   -1    6    7      1.80      0.00
   -1    6    6      2.25      0.00
   -1    6    5      2.53      0.00
   -1    6    4      2.64      0.00
   -1    6    3      1.49      0.00
   -1    6    2     -1.71      0.00
   -1    6    1     -4.74      0.00
   -1    6    0     -4.45      0.00
    1   -6    1     -1.18      0.00
    1   -6    2      1.57      0.00
    1   -6    3      1.19      0.00
    1   -6    4     -1.51      0.00
    1   -6    5     -3.38      0.00
    1   -6    6     -2.51      0.00
    1   -6    7     -0.15      0.00
    1   -6    8      1.43      0.00
    1   -6    9      1.44      0.00
    1   -6   10      0.53      0.00
   -1    5   13      0.57      0.00
   -1    5   12      0.96      0.00
   -1    5   11      0.55      0.00
   -1    5   10      0.10      0.00
   -1    5    9      0.36      0.00
   -1    5    8      0.84      0.00
   -1    5    7      1.32      0.00
   -1    5    6      1.95      0.00
   -1    5    5      2.54      0.00
   -1    5    4      2.98      0.00
   -1    5    3      2.06      0.00
   -1    5    2     -2.08      0.00
   -1    5    1     -7.36      0.00
   -1    5    0     -8.27      0.00
    1   -5    1     -3.74      0.00
    1   -5    2      1.12      0.00
    1   -5    3      1.87      0.00
    1   -5    4     -0.99      0.00
    1   -5    5     -3.72      0.00
    1   -5    6     -3.35      0.00
    1   -5    7     -0.51      0.00
    1   -5    8      1.91      0.00
    1   -5    9      2.32      0.00
    1   -5   10      1.27      0.00
    1   -5   11      0.04      0.00
   -1    4   13      0.53      0.00
   -1    4   12      0.80      0.00
   -1    4   11      0.46      0.00
   -1    4   10     -0.02      0.00
   -1    4    9      0.15      0.00
   -1    4    8      0.56      0.00
   -1    4    7      0.93      0.00
   -1    4    6      1.54      0.00
   -1    4    5      2.15      0.00
   -1    4    4      2.82      0.00
   -1    4    3      2.57      0.00
   -1    4    2     -1.72      0.00
   -1    4    1     -9.05      0.00
   -1    4    0    -11.80      0.00
    1   -4    1     -6.50      0.00
    1   -4    2      0.58      0.00
    1   -4    3      2.67      0.00
    1   -4    4     -0.13      0.00
    1   -4    5     -3.62      0.00
    1   -4    6     -4.12      0.00
    1   -4    7     -1.25      0.00
    1   -4    8      2.04      0.00
    1   -4    9      3.09      0.00
    1   -4   10      1.92      0.00
    1   -4   11      0.10      0.00
   -1    3   13      0.44      0.00
   -1    3   12      0.62      0.00
   -1    3   11      0.46      0.00
   -1    3   10      0.07      0.00
   -1    3    9      0.10      0.00
   -1    3    8      0.31      0.00
   -1    3    7      0.36      0.00
   -1    3    6      0.73      0.00
   -1    3    5      1.41      0.00
   -1    3    4      2.55      0.00
   -1    3    3      3.23      0.00
   -1    3    2     -0.88      0.00
   -1    3    1    -10.34      0.00
   -1    3    0    -15.77      0.00
    1   -3    1    -10.28      0.00
    1   -3    2     -0.65      0.00
    1   -3    3      3.38      0.00
    1   -3    4      1.10      0.00
    1   -3    5     -2.74      0.00
    1   -3    6     -4.25      0.00
    1   -3    7     -2.15      0.00
    1   -3    8      1.40      0.00
    1   -3    9      3.17      0.00
    1   -3   10      2.31      0.00
    1   -3   11      0.26      0.00
    1   -3   12     -1.13      0.00
   -1    2   13      0.49      0.00
   -1    2   12      0.65      0.00
   -1    2   11      0.76      0.00
   -1    2   10      0.53      0.00
   -1    2    9      0.39      0.00
   -1    2    8      0.23      0.00
   -1    2    7     -0.37      0.00
   -1    2    6     -0.60      0.00
   -1    2    5      0.12      0.00
   -1    2    4      1.79      0.00
   -1    2    3      3.07      0.00
   -1    2    2     -1.29      0.00
   -1    2    1    -13.26      0.00
   -1    2    0    -22.04      0.00
    1   -2    1    -16.63      0.00
    1   -2    2     -3.45      0.00
    1   -2    3      3.89      0.00
    1   -2    4      2.78      0.00
    1   -2    5     -1.12      0.00
    1   -2    6     -3.50      0.00
    1   -2    7     -2.67      0.00
    1   -2    8      0.40      0.00
    1   -2    9      2.64      0.00
    1   -2   10      2.46      0.00
    1   -2   11      0.82      0.00
    1   -2   12     -0.62      0.00
   -1    1   13      0.64      0.00
   -1    1   12      0.85      0.00
   -1    1   11      1.17      0.00
   -1    1   10      1.04      0.00
   -1    1    9      0.70      0.00
   -1    1    8      0.21      0.00
   -1    1    7     -1.01      0.00
   -1    1    6     -2.10      0.00
   -1    1    5     -1.71      0.00
   -1    1    4      0.13      0.00
   -1    1    3      1.62      0.00
   -1    1    2     -2.87      0.00
   -1    1    1    -16.51      0.00
   -1    1    0    -28.32      0.00
    1   -1    1    -23.55      0.00
    1   -1    2     -6.75      0.00
    1   -1    3      4.85      0.00
    1   -1    4      5.35      0.00
    1   -1    5      1.17      0.00
    1   -1    6     -2.16      0.00
    1   -1    7     -2.62      0.00
    1   -1    8     -0.34      0.00
    1   -1    9      2.03      0.00
    1   -1   10      2.44      0.00
    1   -1   11      1.43      0.00
    1   -1   12      0.28      0.00
    1   -1   13     -0.15      0.00
   -1    0   13      0.57      0.00
   -1    0   12      0.77      0.00
   -1    0   11      1.23      0.00
   -1    0   10      1.17      0.00
   -1    0    9      0.70      0.00
   -1    0    8      0.12      0.00
   -1    0    7     -1.36      0.00
   -1    0    6     -3.16      0.00
   -1    0    5     -3.36      0.00
   -1    0    4     -1.61      0.00
   -1    0    3      0.23      0.00
   -1    0    2     -3.00      0.00
   -1    0    1    -15.57      0.00
    1    0    2     -8.14      0.00
    1    0    3      6.58      0.00
    1    0    4      8.66      0.00
    1    0    5      4.01      0.00
    1    0    6     -0.44      0.00
    1    0    7     -2.11      0.00
    1    0    8     -0.67      0.00
    1    0    9      1.59      0.00
    1    0   10      2.23      0.00
    1    0   11      1.53      0.00
    1    0   12      0.68      0.00
    1    0   13      0.23      0.00
   -1   -1   12      0.25      0.00
   -1   -1   11      0.78      0.00
   -1   -1   10      0.97      0.00
   -1   -1    9      0.62      0.00
   -1   -1    8      0.17      0.00
   -1   -1    7     -1.27      0.00
   -1   -1    6     -3.52      0.00
   -1   -1    5     -4.22      0.00
   -1   -1    4     -2.43      0.00
   -1   -1    3      0.19      0.00
   -1   -1    2     -0.52      0.00
   -1   -1    1     -9.36      0.00
    1    1    2     -7.40      0.00
    1    1    3      7.64      0.00
    1    1    4     11.13      0.00
    1    1    5      6.75      0.00
    1    1    6      1.64      0.00
    1    1    7     -1.13      0.00
    1    1    8     -0.70      0.00
    1    1    9      1.17      0.00
    1    1   10      1.81      0.00
    1    1   11      1.22      0.00
    1    1   12      0.58      0.00
    1    1   13      0.22      0.00
   -1   -2   12     -0.21      0.00
   -1   -2   11      0.25      0.00
   -1   -2   10      0.71      0.00
   -1   -2    9      0.76      0.00
   -1   -2    8      0.62      0.00
   -1   -2    7     -0.72      0.00
   -1   -2    6     -3.41      0.00
   -1   -2    5     -4.61      0.00
   -1   -2    4     -2.62      0.00
   -1   -2    3      0.89      0.00
   -1   -2    2      2.45      0.00
   -1   -2    1     -2.34      0.00
    1    2    0    -12.32      0.00
    1    2    1    -16.16      0.00
    1    2    2     -6.78      0.00
    1    2    3      6.36      0.00
    1    2    4     11.35      0.00
    1    2    5      8.54      0.00
    1    2    6      3.77      0.00
    1    2    7      0.29      0.00
    1    2    8     -0.48      0.00
    1    2    9      0.64      0.00
    1    2   10      1.21      0.00
    1    2   11      0.87      0.00
    1    2   12      0.56      0.00
    1    2   13      0.32      0.00
   -1   -3   12     -0.17      0.00
   -1   -3   11      0.06      0.00
   -1   -3   10      0.50      0.00
   -1   -3    9      0.90      0.00
   -1   -3    8      1.19      0.00
   -1   -3    7      0.06      0.00
   -1   -3    6     -3.01      0.00
   -1   -3    5     -4.90      0.00
   -1   -3    4     -2.92      0.00
   -1   -3    3      1.21      0.00
   -1   -3    2      3.89      0.00
   -1   -3    1      1.61      0.00
    1    3    0     -6.10      0.00
    1    3    1    -11.76      0.00
    1    3    2     -7.21      0.00
    1    3    3      3.48      0.00
    1    3    4      9.84      0.00
    1    3    5      9.16      0.00
    1    3    6      5.29      0.00
    1    3    7      1.54      0.00
    1    3    8     -0.19      0.00
    1    3    9      0.11      0.00
    1    3   10      0.55      0.00
    1    3   11      0.58      0.00
    1    3   12      0.76      0.00
    1    3   13      0.69      0.00
   -1   -4   11      0.10      0.00
   -1   -4   10      0.23      0.00
   -1   -4    9      0.72      0.00
   -1   -4    8      1.40      0.00
   -1   -4    7      0.75      0.00
   -1   -4    6     -2.27      0.00
   -1   -4    5     -4.79      0.00
   -1   -4    4     -3.27      0.00
   -1   -4    3      1.09      0.00
   -1   -4    2      4.26      0.00
   -1   -4    1      3.26      0.00
    1    4    0     -2.52      0.00
    1    4    1     -8.40      0.00
    1    4    2     -7.03      0.00
    1    4    3      1.20      0.00
    1    4    4      8.07      0.00
    1    4    5      8.86      0.00
    1    4    6      5.67      0.00
    1    4    7      1.91      0.00
    1    4    8     -0.17      0.00
    1    4    9     -0.27      0.00
    1    4   10      0.13      0.00
    1    4   11      0.41      0.00
    1    4   12      0.93      0.00
    1    4   13      1.03      0.00
    1    4   14      0.35      0.00
   -1   -5   11      0.05      0.00
   -1   -5   10     -0.06      0.00
   -1   -5    9      0.42      0.00
   -1   -5    8      1.38      0.00
   -1   -5    7      1.27      0.00
   -1   -5    6     -1.24      0.00
   -1   -5    5     -4.00      0.00
   -1   -5    4     -3.24      0.00
   -1   -5    3      0.86      0.00
   -1   -5    2      4.42      0.00
   -1   -5    1      4.47      0.00
    1    5    0      0.50      0.00
    1    5    1     -4.62      0.00
    1    5    2     -5.27      0.00
    1    5    3      0.23      0.00
    1    5    4      6.31      0.00
    1    5    5      7.71      0.00
    1    5    6      5.02      0.00
    1    5    7      1.57      0.00
    1    5    8     -0.36      0.00
    1    5    9     -0.45      0.00
    1    5   10      0.04      0.00
    1    5   11      0.44      0.00
    1    5   12      0.98      0.00
    1    5   13      1.11      0.00
    1    5   14      0.37      0.00
   -1   -6   10     -0.22      0.00
   -1   -6    9      0.39      0.00
   -1   -6    8      1.52      0.00
   -1   -6    7      1.71      0.00
   -1   -6    6     -0.21      0.00
   -1   -6    5     -2.84      0.00
   -1   -6    4     -2.92      0.00
   -1   -6    3      0.37      0.00
   -1   -6    2      4.03      0.00
   -1   -6    1      5.00      0.00
    1    6    0      2.58      0.00
    1    6    1     -1.48      0.00
    1    6    2     -3.29      0.00
    1    6    3     -0.43      0.00
    1    6    4      4.19      0.00
    1    6    5      5.86      0.00
    1    6    6      4.02      0.00
    1    6    7      1.30      0.00
    1    6    8     -0.29      0.00
    1    6    9     -0.47      0.00
    1    6   10     -0.04      0.00
    1    6   11      0.41      0.00
    1    6   12      0.88      0.00
    1    6   13      0.95      0.00
    1    6   14      0.30      0.00
   -1   -7    9      0.49      0.00
   -1   -7    8      1.73      0.00
   -1   -7    7      2.03      0.00
   -1   -7    6      0.56      0.00
   -1   -7    5     -1.73      0.00
   -1   -7    4     -2.50      0.00
   -1   -7    3     -0.41      0.00
   -1   -7    2      2.81      0.00
   -1   -7    1      4.24      0.00
    1    7    0      2.78      0.00
    1    7    1     -0.33      0.00
    1    7    2     -2.43      0.00
    1    7    3     -1.21      0.00
    1    7    4      2.15      0.00
    1    7    5      4.01      0.00
    1    7    6      3.11      0.00
    1    7    7      1.31      0.00
    1    7    8      0.12      0.00
    1    7    9     -0.34      0.00
    1    7   10     -0.29      0.00
    1    7   11      0.12      0.00
    1    7   12      0.60      0.00
    1    7   13      0.70      0.00
    1    7   14      0.19      0.00
   -1   -8    8      1.53      0.00
   -1   -8    7      1.88      0.00
   -1   -8    6      0.90      0.00
   -1   -8    5     -0.78      0.00
   -1   -8    4     -1.86      0.00
   -1   -8    3     -1.01      0.00
   -1   -8    2      1.38      0.00
   -1   -8    1      2.89      0.00
    1    8    0      1.99      0.00
    1    8    1     -0.43      0.00
    1    8    2     -2.23      0.00
    1    8    3     -1.65      0.00
    1    8    4      0.89      0.00
    1    8    5      2.64      0.00
    1    8    6      2.22      0.00
    1    8    7      1.05      0.00
    1    8    8      0.36      0.00
    1    8    9     -0.09      0.00
    1    8   10     -0.37      0.00
    1    8   11     -0.15      0.00
    1    8   12      0.32      0.00
    1    8   13      0.47      0.00
   -1   -9    7      1.16      0.00
   -1   -9    6      0.68      0.00
   -1   -9    5     -0.14      0.00
   -1   -9    4     -1.02      0.00
   -1   -9    3     -1.09      0.00
   -1   -9    2      0.33      0.00
   -1   -9    1      1.80      0.00
    1    9    0      1.45      0.00
    1    9    1     -0.32      0.00
    1    9    2     -1.76      0.00
    1    9    3     -1.56      0.00
    1    9    4      0.18      0.00
    1    9    5      1.56      0.00
    1    9    6      1.23      0.00
    1    9    7      0.35      0.00
    1    9    8      0.18      0.00
    1    9    9      0.17      0.00
    1    9   10     -0.08      0.00
    1    9   11     -0.06      0.00
    1    9   12      0.22      0.00
   -1  -10    6      0.08      0.00
   -1  -10    5      0.04      0.00
   -1  -10    4     -0.24      0.00
   -1  -10    3     -0.68      0.00
   -1  -10    2     -0.12      0.00
   -1  -10    1      1.10      0.00
    1   10    0      1.25      0.00
    1   10    1      0.18      0.00
    1   10    2     -0.93      0.00
    1   10    3     -1.23      0.00
    1   10    4     -0.48      0.00
    1   10    5      0.47      0.00
    1   10    6      0.42      0.00
    1   10    7     -0.13      0.00
    1   10    8     -0.03      0.00
    1   10    9      0.29      0.00
    1   10   10      0.20      0.00
    1   10   11      0.10      0.00
   -1  -11    5      0.01      0.00
   -1  -11    4      0.29      0.00
   -1  -11    3     -0.04      0.00
   -1  -11    2     -0.02      0.00
   -1  -11    1      0.73      0.00
    1   11    0      1.01      0.00
    1   11    1      0.46      0.00
    1   11    2     -0.24      0.00
    1   11    3     -0.82      0.00
    1   11    4     -0.93      0.00
    1   11    5     -0.35      0.00
    1   11    6      0.12      0.00
    1   11    7      0.04      0.00
    1   11    8      0.07      0.00
    1   11    9      0.24      0.00
    1   11   10      0.12      0.00
   -1  -12    3      0.41      0.00
   -1  -12    2      0.22      0.00
   -1  -12    1      0.52      0.00
    1   12    0      0.61      0.00
    1   12    1      0.24      0.00
    1   12    2     -0.04      0.00
    1   12    3     -0.41      0.00
    1   12    4     -0.85      0.00
    1   12    5     -0.59      0.00
    1   12    6      0.17      0.00
    1   12    7      0.46      0.00
    1   12    8      0.31      0.00
    1   13    0      0.14      0.00
    1   13    1     -0.17      0.00
    1   13    2     -0.18      0.00
    1   13    3     -0.14      0.00
    1   13    4     -0.44      0.00
    1   13    5     -0.42      0.00
    1   13    6      0.22      0.00
    1   13    7      0.58      0.00
    1   14    2     -0.25      0.00
    1   14    3     -0.01      0.00
    1   14    4     -0.10      0.00
    1   14    5     -0.20      0.00
   -2   13    3     -0.07      0.00
   -2   13    2     -0.24      0.00
   -2   13    1     -0.31      0.00
   -2   13    0     -0.24      0.00
   -2   12    5     -0.60      0.00
   -2   12    4     -0.45      0.00
   -2   12    3     -0.22      0.00
   -2   12    2     -0.30      0.00
   -2   12    1     -0.34      0.00
   -2   12    0     -0.14      0.00
    2  -12    1     -0.14      0.00
    2  -12    2     -0.14      0.00
    2  -12    3      0.26      0.00
   -2   11    6     -0.76      0.00
   -2   11    5     -1.11      0.00
   -2   11    4     -1.05      0.00
   -2   11    3     -0.55      0.00
   -2   11    2     -0.27      0.00
   -2   11    1     -0.16      0.00
   -2   11    0      0.09      0.00
    2  -11    1      0.09      0.00
    2  -11    2     -0.04      0.00
    2  -11    3      0.40      0.00
    2  -11    4      0.85      0.00
    2  -11    5      0.48      0.00
   -2   10    8     -0.25      0.00
   -2   10    7     -0.99      0.00
   -2   10    6     -1.51      0.00
   -2   10    5     -1.80      0.00
   -2   10    4     -1.57      0.00
   -2   10    3     -0.69      0.00
   -2   10    2      0.07      0.00
   -2   10    1      0.34      0.00
   -2   10    0      0.42      0.00
    2  -10    1      0.15      0.00
    2  -10    2     -0.22      0.00
    2  -10    3      0.27      0.00
    2  -10    4      1.18      0.00
    2  -10    5      1.05      0.00
    2  -10    6      0.14      0.00
   -2    9    9      0.56      0.00
   -2    9    8     -0.42      0.00
   -2    9    7     -1.75      0.00
   -2    9    6     -2.42      0.00
   -2    9    5     -2.24      0.00
   -2    9    4     -1.48      0.00
   -2    9    3     -0.29      0.00
   -2    9    2      0.74      0.00
   -2    9    1      1.09      0.00
   -2    9    0      0.88      0.00
    2   -9    1      0.21      0.00
    2   -9    2     -0.49      0.00
    2   -9    3      0.02      0.00
    2   -9    4      1.49      0.00
    2   -9    5      1.95      0.00
    2   -9    6      0.95      0.00
    2   -9    7     -0.13      0.00
   -2    8   10      0.50      0.00
   -2    8    9      0.60      0.00
   -2    8    8     -0.47      0.00
   -2    8    7     -2.07      0.00
   -2    8    6     -2.80      0.00
   -2    8    5     -2.23      0.00
   -2    8    4     -1.08      0.00
   -2    8    3      0.14      0.00
   -2    8    2      1.21      0.00
   -2    8    1      1.71      0.00
   -2    8    0      1.42      0.00
    2   -8    1      0.40      0.00
    2   -8    2     -0.66      0.00
    2   -8    3     -0.35      0.00
    2   -8    4      1.43      0.00
    2   -8    5      2.57      0.00
    2   -8    6      1.89      0.00
    2   -8    7      0.51      0.00
    2   -8    8     -0.37      0.00
    2   -8    9     -0.49      0.00
   -2    7   11     -0.53      0.00
   -2    7   10      0.27      0.00
   -2    7    9      0.57      0.00
   -2    7    8     -0.24      0.00
   -2    7    7     -1.68      0.00
   -2    7    6     -2.52      0.00
   -2    7    5     -2.09      0.00
   -2    7    4     -1.06      0.00
   -2    7    3     -0.01      0.00
   -2    7    2      1.27      0.00
   -2    7    1      2.47      0.00
   -2    7    0      2.54      0.00
    2   -7    1      1.14      0.00
    2   -7    2     -0.60      0.00
    2   -7    3     -0.87      0.00
    2   -7    4      0.77      0.00
    2   -7    5      2.41      0.00
    2   -7    6      2.32      0.00
    2   -7    7      1.03      0.00
    2   -7    8     -0.18      0.00
    2   -7    9     -0.69      0.00
   -2    6   11     -0.67      0.00
   -2    6   10      0.20      0.00
   -2    6    9      0.68      0.00
   -2    6    8      0.16      0.00
   -2    6    7     -1.02      0.00
   -2    6    6     -2.00      0.00
   -2    6    5     -2.01      0.00
   -2    6    4     -1.32      0.00
   -2    6    3     -0.34      0.00
   -2    6    2      1.52      0.00
   -2    6    1      4.02      0.00
   -2    6    0      4.91      0.00
    2   -6    1      2.95      0.00
    2   -6    2     -0.10      0.00
    2   -6    3     -1.42      0.00
    2   -6    4     -0.15      0.00
    2   -6    5      1.88      0.00
    2   -6    6      2.43      0.00
    2   -6    7      1.28      0.00
    2   -6    8     -0.30      0.00
    2   -6    9     -1.19      0.00
    2   -6   10     -0.96      0.00
   -2    5   12     -0.81      0.00
   -2    5   11     -0.66      0.00
   -2    5   10      0.32      0.00
   -2    5    9      0.97      0.00
   -2    5    8      0.54      0.00
   -2    5    7     -0.57      0.00
   -2    5    6     -1.61      0.00
   -2    5    5     -1.85      0.00
   -2    5    4     -1.31      0.00
   -2    5    3     -0.35      0.00
   -2    5    2      1.94      0.00
   -2    5    1      5.71      0.00
   -2    5    0      7.79      0.00
    2   -5    1      5.43      0.00
    2   -5    2      0.79      0.00
    2   -5    3     -1.88      0.00
    2   -5    4     -1.05      0.00
    2   -5    5      1.47      0.00
    2   -5    6      2.79      0.00
    2   -5    7      1.70      0.00
    2   -5    8     -0.52      0.00
    2   -5    9     -1.92      0.00
    2   -5   10     -1.64      0.00
    2   -5   11     -0.43      0.00
   -2    4   12     -0.70      0.00
   -2    4   11     -0.61      0.00
   -2    4   10      0.40      0.00
   -2    4    9      1.21      0.00
   -2    4    8      0.81      0.00
   -2    4    7     -0.30      0.00
   -2    4    6     -1.26      0.00
   -2    4    5     -1.50      0.00
   -2    4    4     -1.04      0.00
   -2    4    3     -0.35      0.00
   -2    4    2      1.65      0.00
   -2    4    1      6.11      0.00
   -2    4    0      9.69      0.00
    2   -4    1      7.77      0.00
    2   -4    2      1.92      0.00
    2   -4    3     -2.23      0.00
    2   -4    4     -2.05      0.00
    2   -4    5      0.83      0.00
    2   -4    6      3.14      0.00
    2   -4    7      2.49      0.00
    2   -4    8     -0.35      0.00
    2   -4    9     -2.45      0.00
    2   -4   10     -2.13      0.00
    2   -4   11     -0.40      0.00
    2   -4   12      0.73      0.00
   -2    3   12     -0.63      0.00
   -2    3   11     -0.65      0.00
   -2    3   10      0.20      0.00
   -2    3    9      1.11      0.00
   -2    3    8      0.88      0.00
   -2    3    7      0.01      0.00
   -2    3    6     -0.62      0.00
   -2    3    5     -0.80      0.00
   -2    3    4     -0.63      0.00
   -2    3    3     -0.50      0.00
   -2    3    2      0.81      0.00
   -2    3    1      5.55      0.00
   -2    3    0     10.89      0.00
    2   -3    1     10.30      0.00
    2   -3    2      3.67      0.00
    2   -3    3     -2.26      0.00
    2   -3    4     -3.30      0.00
    2   -3    5     -0.56      0.00
    2   -3    6      2.69      0.00
    2   -3    7      3.14      0.00
    2   -3    8      0.33      0.00
    2   -3    9     -2.46      0.00
    2   -3   10     -2.50      0.00
    2   -3   11     -0.56      0.00
    2   -3   12      0.95      0.00
   -2    2   13     -0.51      0.00
   -2    2   12     -0.65      0.00
   -2    2   11     -0.79      0.00
   -2    2   10     -0.20      0.00
   -2    2    9      0.75      0.00
   -2    2    8      0.83      0.00
   -2    2    7      0.46      0.00
   -2    2    6      0.46      0.00
   -2    2    5      0.47      0.00
   -2    2    4      0.24      0.00
   -2    2    3     -0.18      0.00
   -2    2    2      0.59      0.00
   -2    2    1      5.46      0.00
   -2    2    0     12.46      0.00
    2   -2    1     13.50      0.00
    2   -2    2      6.14      0.00
    2   -2    3     -2.16      0.00
    2   -2    4     -4.99      0.00
    2   -2    5     -2.72      0.00
    2   -2    6      1.28      0.00
    2   -2    7      3.17      0.00
    2   -2    8      1.14      0.00
    2   -2    9     -2.03      0.00
    2   -2   10     -2.75      0.00
    2   -2   11     -1.16      0.00
    2   -2   12      0.44      0.00
   -2    1   13     -0.47      0.00
   -2    1   12     -0.60      0.00
   -2    1   11     -0.86      0.00
   -2    1   10     -0.50      0.00
   -2    1    9      0.49      0.00
   -2    1    8      0.87      0.00
   -2    1    7      0.97      0.00
   -2    1    6      1.64      0.00
   -2    1    5      2.04      0.00
   -2    1    4      1.54      0.00
   -2    1    3      0.66      0.00
   -2    1    2      0.80      0.00
   -2    1    1      5.09      0.00
   -2    1    0     12.88      0.00
    2   -1    1     15.58      0.00
    2   -1    2      8.00      0.00
    2   -1    3     -2.63      0.00
    2   -1    4     -7.34      0.00
    2   -1    5     -5.33      0.00
    2   -1    6     -0.51      0.00
    2   -1    7      2.74      0.00
    2   -1    8      1.75      0.00
    2   -1    9     -1.44      0.00
    2   -1   10     -2.79      0.00
    2   -1   11     -1.73      0.00
    2   -1   12     -0.31      0.00
    2   -1   13      0.26      0.00
   -2    0   13     -0.18      0.00
   -2    0   12     -0.24      0.00
   -2    0   11     -0.60      0.00
   -2    0   10     -0.52      0.00
   -2    0    9      0.39      0.00
   -2    0    8      0.95      0.00
   -2    0    7      1.25      0.00
   -2    0    6      2.33      0.00
   -2    0    5      3.11      0.00
   -2    0    4      2.46      0.00
   -2    0    3      0.98      0.00
   -2    0    2     -0.07      0.00
   -2    0    1      2.33      0.00
    2    0    0      9.46      0.00
    2    0    1     13.97      0.00
    2    0    2      7.98      0.00
    2    0    3     -3.55      0.00
    2    0    4     -9.77      0.00
    2    0    5     -7.91      0.00
    2    0    6     -2.28      0.00
    2    0    7      2.08      0.00
    2    0    8      2.02      0.00
    2    0    9     -0.97      0.00
    2    0   10     -2.66      0.00
    2    0   11     -1.91      0.00
    2    0   12     -0.64      0.00
    2    0   13      0.02      0.00
   -2   -1   12      0.31      0.00
   -2   -1   11     -0.06      0.00
   -2   -1   10     -0.34      0.00
   -2   -1    9      0.19      0.00
   -2   -1    8      0.69      0.00
   -2   -1    7      1.02      0.00
   -2   -1    6      2.26      0.00
   -2   -1    5      3.34      0.00
   -2   -1    4      2.54      0.00
   -2   -1    3      0.35      0.00
   -2   -1    2     -2.10      0.00
   -2   -1    1     -2.20      0.00
    2    1    0      3.19      0.00
    2    1    1      9.45      0.00
    2    1    2      6.97      0.00
    2    1    3     -3.38      0.00
    2    1    4    -10.80      0.00
    2    1    5     -9.86      0.00
    2    1    6     -4.08      0.00
    2    1    7      1.00      0.00
    2    1    8      1.89      0.00
    2    1    9     -0.56      0.00
    2    1   10     -2.34      0.00
    2    1   11     -1.84      0.00
    2    1   12     -0.69      0.00
    2    1   13     -0.05      0.00
   -2   -2   12      0.60      0.00
   -2   -2   11      0.42      0.00
   -2   -2   10     -0.10      0.00
   -2   -2    9     -0.12      0.00
   -2   -2    8      0.04      0.00
   -2   -2    7      0.30      0.00
   -2   -2    6      1.69      0.00
   -2   -2    5      3.14      0.00
   -2   -2    4      2.35      0.00
   -2   -2    3     -0.45      0.00
   -2   -2    2     -3.78      0.00
   -2   -2    1     -5.51      0.00
    2    2    0     -1.85      0.00
    2    2    1      5.43      0.00
    2    2    2      6.72      0.00
    2    2    3     -1.32      0.00
    2    2    4     -9.73      0.00
    2    2    5    -10.69      0.00
    2    2    6     -5.79      0.00
    2    2    7     -0.45      0.00
    2    2    8      1.48      0.00
    2    2    9      0.03      0.00
    2    2   10     -1.59      0.00
    2    2   11     -1.49      0.00
    2    2   12     -0.73      0.00
    2    2   13     -0.23      0.00
   -2   -3   12      0.50      0.00
   -2   -3   11      0.60      0.00
   -2   -3   10      0.18      0.00
   -2   -3    9     -0.24      0.00
   -2   -3    8     -0.56      0.00
   -2   -3    7     -0.54      0.00
   -2   -3    6      0.89      0.00
   -2   -3    5      2.81      0.00
   -2   -3    4      2.35      0.00
   -2   -3    3     -0.76      0.00
   -2   -3    2     -4.45      0.00
   -2   -3    1     -6.57      0.00
    2    3    0     -3.94      0.00
    2    3    1      3.33      0.00
    2    3    2      7.05      0.00
    2    3    3      1.32      0.00
    2    3    4     -7.54      0.00
    2    3    5    -10.44      0.00
    2    3    6     -6.78      0.00
    2    3    7     -1.57      0.00
    2    3    8      1.16      0.00
    2    3    9      0.75      0.00
    2    3   10     -0.51      0.00
    2    3   11     -0.83      0.00
    2    3   12     -0.66      0.00
    2    3   13     -0.47      0.00
   -2   -4   11      0.54      0.00
   -2   -4   10      0.41      0.00
   -2   -4    9     -0.10      0.00
   -2   -4    8     -0.79      0.00
   -2   -4    7     -1.17      0.00
   -2   -4    6     -0.03      0.00
   -2   -4    5      2.12      0.00
   -2   -4    4      2.27      0.00
   -2   -4    3     -0.75      0.00
   -2   -4    2     -4.65      0.00
   -2   -4    1     -6.81      0.00
    2    4    0     -4.77      0.00
    2    4    1      1.71      0.00
    2    4    2      6.43      0.00
    2    4    3      2.88      0.00
    2    4    4     -5.31      0.00
    2    4    5     -9.23      0.00
    2    4    6     -6.60      0.00
    2    4    7     -1.79      0.00
    2    4    8      1.11      0.00
    2    4    9      1.20      0.00
    2    4   10      0.17      0.00
    2    4   11     -0.35      0.00
    2    4   12     -0.49      0.00
    2    4   13     -0.53      0.00
    2    4   14     -0.22      0.00
   -2   -5   10      0.43      0.00
   -2   -5    9     -0.02      0.00
   -2   -5    8     -0.85      0.00
   -2   -5    7     -1.49      0.00
   -2   -5    6     -0.84      0.00
   -2   -5    5      1.14      0.00
   -2   -5    4      1.91      0.00
   -2   -5    3     -0.49      0.00
   -2   -5    2     -4.44      0.00
   -2   -5    1     -6.84      0.00
    2    5    0     -5.46      0.00
    2    5    1     -0.15      0.00
    2    5    2      4.70      0.00
    2    5    3      3.27      0.00
    2    5    4     -3.13      0.00
    2    5    5     -7.16      0.00
    2    5    6     -5.55      0.00
    2    5    7     -1.54      0.00
    2    5    8      1.02      0.00
    2    5    9      1.12      0.00
    2    5   10      0.11      0.00
    2    5   11     -0.43      0.00
    2    5   12     -0.43      0.00
    2    5   13     -0.39      0.00
    2    5   14     -0.17      0.00
   -2   -6   10      0.30      0.00
   -2   -6    9     -0.11      0.00
   -2   -6    8     -0.95      0.00
   -2   -6    7     -1.60      0.00
   -2   -6    6     -1.25      0.00
   -2   -6    5      0.33      0.00
   -2   -6    4      1.52      0.00
   -2   -6    3      0.11      0.00
   -2   -6    2     -3.38      0.00
   -2   -6    1     -5.94      0.00
    2    6    0     -5.19      0.00
    2    6    1     -1.14      0.00
    2    6    2      3.15      0.00
    2    6    3      3.24      0.00
    2    6    4     -1.08      0.00
    2    6    5     -4.77      0.00
    2    6    6     -4.31      0.00
    2    6    7     -1.48      0.00
    2    6    8      0.58      0.00
    2    6    9      0.78      0.00
    2    6   10     -0.05      0.00
    2    6   11     -0.55      0.00
    2    6   12     -0.36      0.00
    2    6   13     -0.10      0.00
    2    6   14      0.02      0.00
   -2   -7    9     -0.14      0.00
   -2   -7    8     -0.96      0.00
   -2   -7    7     -1.54      0.00
   -2   -7    6     -1.29      0.00
   -2   -7    5     -0.11      0.00
   -2   -7    4      1.20      0.00
   -2   -7    3      0.78      0.00
   -2   -7    2     -1.84      0.00
   -2   -7    1     -4.23      0.00
    2    7    0     -3.80      0.00
    2    7    1     -0.73      0.00
    2    7    2      2.51      0.00
    2    7    3      3.00      0.00
    2    7    4      0.22      0.00
    2    7    5     -2.84      0.00
    2    7    6     -3.22      0.00
    2    7    7     -1.52      0.00
    2    7    8      0.06      0.00
    2    7    9      0.53      0.00
    2    7   10      0.17      0.00
    2    7   11     -0.22      0.00
    2    7   12     -0.11      0.00
    2    7   13      0.14      0.00
   -2   -8    8     -0.74      0.00
   -2   -8    7     -1.26      0.00
   -2   -8    6     -1.11      0.00
   -2   -8    5     -0.35      0.00
   -2   -8    4      0.76      0.00
   -2   -8    3      1.04      0.00
   -2   -8    2     -0.64      0.00
   -2   -8    1     -2.70      0.00
    2    8    0     -2.45      0.00
    2    8    1      0.02      0.00
    2    8    2      2.31      0.00
    2    8    3      2.57      0.00
    2    8    4      0.69      0.00
    2    8    5     -1.56      0.00
    2    8    6     -2.14      0.00
    2    8    7     -1.14      0.00
    2    8    8     -0.08      0.00
    2    8    9      0.39      0.00
    2    8   10      0.38      0.00
    2    8   11      0.14      0.00
    2    8   12      0.07      0.00
    2    8   13      0.14      0.00
   -2   -9    7     -0.74      0.00
   -2   -9    6     -0.70      0.00
   -2   -9    5     -0.42      0.00
   -2   -9    4      0.21      0.00
   -2   -9    3      0.79      0.00
   -2   -9    2      0.00      0.00
   -2   -9    1     -1.70      0.00
    2    9    0     -1.81      0.00
    2    9    1      0.09      0.00
    2    9    2      1.87      0.00
    2    9    3      2.12      0.00
    2    9    4      1.02      0.00
    2    9    5     -0.49      0.00
    2    9    6     -1.07      0.00
    2    9    7     -0.49      0.00
    2    9    8      0.13      0.00
    2    9    9      0.28      0.00
    2    9   10      0.25      0.00
    2    9   11      0.11      0.00
    2    9   12     -0.02      0.00
    2    9   13     -0.03      0.00
   -2  -10    6     -0.12      0.00
   -2  -10    5     -0.22      0.00
   -2  -10    4     -0.23      0.00
   -2  -10    3      0.26      0.00
   -2  -10    2      0.21      0.00
   -2  -10    1     -0.93      0.00
    2   10    0     -1.44      0.00
    2   10    1     -0.34      0.00
    2   10    2      1.00      0.00
    2   10    3      1.56      0.00
    2   10    4      1.37      0.00
    2   10    5      0.51      0.00
    2   10    6     -0.30      0.00
    2   10    7     -0.23      0.00
    2   10    8      0.19      0.00
    2   10    9      0.25      0.00
    2   10   10      0.15      0.00
    2   10   11      0.02      0.00
    2   10   12     -0.09      0.00
   -2  -11    5      0.03      0.00
   -2  -11    4     -0.41      0.00
   -2  -11    3     -0.26      0.00
   -2  -11    2      0.13      0.00
   -2  -11    1     -0.29      0.00
    2   11    0     -0.86      0.00
    2   11    1     -0.57      0.00
    2   11    2      0.08      0.00
    2   11    3      0.69      0.00
    2   11    4      1.27      0.00
    2   11    5      1.05      0.00
    2   11    6      0.01      0.00
    2   11    7     -0.49      0.00
    2   11    8     -0.11      0.00
    2   11    9      0.26      0.00
    2   11   10      0.30      0.00
    2   11   11      0.18      0.00
   -2  -12    3     -0.43      0.00
   -2  -12    2      0.04      0.00
   -2  -12    1      0.16      0.00
    2   12    0     -0.17      0.00
    2   12    1     -0.31      0.00
    2   12    2     -0.35      0.00
    2   12    3     -0.15      0.00
    2   12    4      0.64      0.00
    2   12    5      0.98      0.00
    2   12    6      0.10      0.00
    2   12    7     -0.72      0.00
    2   12    8     -0.44      0.00
    2   12    9      0.16      0.00
    2   13    0      0.27      0.00
    2   13    1      0.06      0.00
    2   13    2     -0.27      0.00
    2   13    3     -0.49      0.00
    2   13    4      0.04      0.00
    2   13    5      0.65      0.00
    2   13    6      0.23      0.00
    2   13    7     -0.51      0.00
    2   14    3     -0.39      0.00
    2   14    4     -0.14      0.00
    2   14    5      0.44      0.00
    2   14    6      0.41      0.00
   -3   13    2      0.22      0.00
   -3   13    1      0.44      0.00
   -3   12    4     -0.15      0.00
   -3   12    3     -0.28      0.00
   -3   12    2      0.20      0.00
   -3   12    1      0.69      0.00
   -3   12    0      0.26      0.00
    3  -12    1     -0.44      0.00
    3  -12    2     -0.52      0.00
    3  -12    3     -0.45      0.00
   -3   11    5      0.40      0.00
   -3   11    4      0.21      0.00
   -3   11    3     -0.12      0.00
   -3   11    2      0.17      0.00
   -3   11    1      0.74      0.00
   -3   11    0      0.45      0.00
    3  -11    1     -0.34      0.00
    3  -11    2     -0.49      0.00
    3  -11    3     -0.45      0.00
    3  -11    4     -0.79      0.00
    3  -11    5     -0.68      0.00
   -3   10    6      0.99      0.00
   -3   10    5      1.19      0.00
   -3   10    4      0.70      0.00
   -3   10    3     -0.04      0.00
   -3   10    2     -0.18      0.00
   -3   10    1      0.28      0.00
   -3   10    0      0.26      0.00
    3  -10    1     -0.25      0.00
    3  -10    2     -0.29      0.00
    3  -10    3     -0.31      0.00
    3  -10    4     -1.06      0.00
    3  -10    5     -1.40      0.00
    3  -10    6     -0.54      0.00
   -3    9    8     -0.24      0.00
   -3    9    7      0.80      0.00
   -3    9    6      1.82      0.00
   -3    9    5      1.77      0.00
   -3    9    4      0.71      0.00
   -3    9    3     -0.46      0.00
   -3    9    2     -0.92      0.00
   -3    9    1     -0.61      0.00
   -3    9    0     -0.35      0.00
    3   -9    1     -0.45      0.00
    3   -9    2     -0.24      0.00
    3   -9    3     -0.23      0.00
    3   -9    4     -1.32      0.00
    3   -9    5     -2.27      0.00
    3   -9    6     -1.57      0.00
    3   -9    7     -0.26      0.00
   -3    8    9     -0.71      0.00
   -3    8    8     -0.45      0.00
   -3    8    7      0.80      0.00
   -3    8    6      2.05      0.00
   -3    8    5      1.87      0.00
   -3    8    4      0.44      0.00
   -3    8    3     -0.91      0.00
   -3    8    2     -1.44      0.00
   -3    8    1     -1.32      0.00
   -3    8    0     -1.08      0.00
    3   -8    1     -0.90      0.00
    3   -8    2     -0.40      0.00
    3   -8    3     -0.10      0.00
    3   -8    4     -1.08      0.00
    3   -8    5     -2.45      0.00
    3   -8    6     -2.30      0.00
    3   -8    7     -0.94      0.00
    3   -8    8      0.06      0.00
   -3    7    9     -0.93      0.00
   -3    7    8     -0.84      0.00
   -3    7    7      0.37      0.00
   -3    7    6      1.77      0.00
   -3    7    5      1.82      0.00
   -3    7    4      0.49      0.00
   -3    7    3     -0.81      0.00
   -3    7    2     -1.49      0.00
   -3    7    1     -1.90      0.00
   -3    7    0     -2.10      0.00
    3   -7    1     -1.77      0.00
    3   -7    2     -0.78      0.00
    3   -7    3      0.15      0.00
    3   -7    4     -0.26      0.00
    3   -7    5     -1.69      0.00
    3   -7    6     -2.24      0.00
    3   -7    7     -1.35      0.00
    3   -7    8     -0.13      0.00
    3   -7    9      0.62      0.00
   -3    6   10     -0.28      0.00
   -3    6    9     -1.20      0.00
   -3    6    8     -1.25      0.00
   -3    6    7     -0.08      0.00
   -3    6    6      1.45      0.00
   -3    6    5      1.84      0.00
   -3    6    4      0.78      0.00
   -3    6    3     -0.57      0.00
   -3    6    2     -1.71      0.00
   -3    6    1     -3.01      0.00
   -3    6    0     -3.94      0.00
    3   -6    1     -3.41      0.00
    3   -6    2     -1.51      0.00
    3   -6    3      0.38      0.00
    3   -6    4      0.68      0.00
    3   -6    5     -0.69      0.00
    3   -6    6     -1.94      0.00
    3   -6    7     -1.64      0.00
    3   -6    8     -0.29      0.00
    3   -6    9      0.96      0.00
    3   -6   10      1.32      0.00
   -3    5   11      0.60      0.00
   -3    5   10     -0.16      0.00
   -3    5    9     -1.38      0.00
   -3    5    8     -1.57      0.00
   -3    5    7     -0.35      0.00
   -3    5    6      1.25      0.00
   -3    5    5      1.79      0.00
   -3    5    4      0.81      0.00
   -3    5    3     -0.74      0.00
   -3    5    2     -2.33      0.00
   -3    5    1     -4.38      0.00
   -3    5    0     -6.07      0.00
    3   -5    1     -5.45      0.00
    3   -5    2     -2.50      0.00
    3   -5    3      0.56      0.00
    3   -5    4      1.54      0.00
    3   -5    5      0.07      0.00
    3   -5    6     -1.98      0.00
    3   -5    7     -2.26      0.00
    3   -5    8     -0.61      0.00
    3   -5    9      1.22      0.00
    3   -5   10      1.80      0.00
    3   -5   11      1.12      0.00
   -3    4   12      0.43      0.00
   -3    4   11      0.86      0.00
   -3    4   10      0.23      0.00
   -3    4    9     -1.22      0.00
   -3    4    8     -1.68      0.00
   -3    4    7     -0.53      0.00
   -3    4    6      1.00      0.00
   -3    4    5      1.51      0.00
   -3    4    4      0.60      0.00
   -3    4    3     -0.97      0.00
   -3    4    2     -2.60      0.00
   -3    4    1     -4.86      0.00
   -3    4    0     -7.24      0.00
    3   -4    1     -7.14      0.00
    3   -4    2     -3.62      0.00
    3   -4    3      0.65      0.00
    3   -4    4      2.53      0.00
    3   -4    5      1.07      0.00
    3   -4    6     -1.86      0.00
    3   -4    7     -2.99      0.00
    3   -4    8     -1.18      0.00
    3   -4    9      1.30      0.00
    3   -4   10      2.07      0.00
    3   -4   11      1.15      0.00
    3   -4   12      0.10      0.00
   -3    3   12      0.43      0.00
   -3    3   11      0.99      0.00
   -3    3   10      0.67      0.00
   -3    3    9     -0.78      0.00
   -3    3    8     -1.55      0.00
   -3    3    7     -0.72      0.00
   -3    3    6      0.50      0.00
   -3    3    5      0.93      0.00
   -3    3    4      0.33      0.00
   -3    3    3     -0.88      0.00
   -3    3    2     -2.15      0.00
   -3    3    1     -4.22      0.00
   -3    3    0     -7.27      0.00
    3   -3    1     -8.38      0.00
    3   -3    2     -5.06      0.00
    3   -3    3      0.41      0.00
    3   -3    4      3.74      0.00
    3   -3    5      2.86      0.00
    3   -3    6     -0.78      0.00
    3   -3    7     -3.19      0.00
    3   -3    8     -1.85      0.00
    3   -3    9      1.12      0.00
    3   -3   10      2.30      0.00
    3   -3   11      1.32      0.00
    3   -3   12      0.05      0.00
   -3    2   12      0.38      0.00
   -3    2   11      0.91      0.00
   -3    2   10      0.87      0.00
   -3    2    9     -0.39      0.00
   -3    2    8     -1.40      0.00
   -3    2    7     -1.03      0.00
   -3    2    6     -0.28      0.00
   -3    2    5      0.00      0.00
   -3    2    4     -0.15      0.00
   -3    2    3     -0.69      0.00
   -3    2    2     -1.39      0.00
   -3    2    1     -2.98      0.00
   -3    2    0     -6.44      0.00
    3   -2    1     -9.07      0.00
    3   -2    2     -6.59      0.00
    3   -2    3     -0.07      0.00
    3   -2    4      5.04      0.00
    3   -2    5      5.15      0.00
    3   -2    6      1.12      0.00
    3   -2    7     -2.71      0.00
    3   -2    8     -2.45      0.00
    3   -2    9      0.63      0.00
    3   -2   10      2.40      0.00
    3   -2   11      1.71      0.00
    3   -2   12      0.37      0.00
   -3    1   12      0.23      0.00
   -3    1   11      0.67      0.00
   -3    1   10      0.79      0.00
   -3    1    9     -0.26      0.00
   -3    1    8     -1.43      0.00
   -3    1    7     -1.47      0.00
   -3    1    6     -1.12      0.00
   -3    1    5     -1.02      0.00
   -3    1    4     -0.78      0.00
   -3    1    3     -0.54      0.00
   -3    1    2     -0.38      0.00
   -3    1    1     -0.95      0.00
   -3    1    0     -4.11      0.00
    3   -1    1     -8.11      0.00
    3   -1    2     -7.17      0.00
    3   -1    3     -0.33      0.00
    3   -1    4      6.27      0.00
    3   -1    5      7.26      0.00
    3   -1    6      2.94      0.00
    3   -1    7     -2.01      0.00
    3   -1    8     -2.90      0.00
    3   -1    9     -0.03      0.00
    3   -1   10      2.26      0.00
    3   -1   11      1.96      0.00
    3   -1   12      0.67      0.00
    3   -1   13     -0.14      0.00
   -3    0   12     -0.06      0.00
   -3    0   11      0.32      0.00
   -3    0   10      0.63      0.00
   -3    0    9     -0.15      0.00
   -3    0    8     -1.40      0.00
   -3    0    7     -1.74      0.00
   -3    0    6     -1.59      0.00
   -3    0    5     -1.58      0.00
   -3    0    4     -1.10      0.00
   -3    0    3     -0.14      0.00
   -3    0    2      1.11      0.00
   -3    0    1      2.08      0.00
    3    0    0      0.07      0.00
    3    0    1     -4.90      0.00
    3    0    2     -6.35      0.00
    3    0    3     -0.54      0.00
    3    0    4      6.83      0.00
    3    0    5      8.60      0.00
    3    0    6      4.29      0.00
    3    0    7     -1.26      0.00
    3    0    8     -2.97      0.00
    3    0    9     -0.49      0.00
    3    0   10      2.07      0.00
    3    0   11      2.07      0.00
    3    0   12      0.76      0.00
    3    0   13     -0.21      0.00
   -3   -1   12     -0.37      0.00
   -3   -1   11     -0.08      0.00
   -3   -1   10      0.46      0.00
   -3   -1    9      0.18      0.00
   -3   -1    8     -0.91      0.00
   -3   -1    7     -1.45      0.00
   -3   -1    6     -1.45      0.00
   -3   -1    5     -1.53      0.00
   -3   -1    4     -0.99      0.00
   -3   -1    3      0.49      0.00
   -3   -1    2      2.64      0.00
   -3   -1    1      4.95      0.00
    3    1    0      4.34      0.00
    3    1    1     -1.02      0.00
    3    1    2     -5.12      0.00
    3    1    3     -1.45      0.00
    3    1    4      6.06      0.00
    3    1    5      8.93      0.00
    3    1    6      5.30      0.00
    3    1    7     -0.20      0.00
    3    1    8     -2.54      0.00
    3    1    9     -0.77      0.00
    3    1   10      1.72      0.00
    3    1   11      2.06      0.00
    3    1   12      0.89      0.00
    3    1   13     -0.20      0.00
   -3   -2   12     -0.52      0.00
   -3   -2   11     -0.46      0.00
   -3   -2   10      0.17      0.00
   -3   -2    9      0.50      0.00
   -3   -2    8     -0.06      0.00
   -3   -2    7     -0.60      0.00
   -3   -2    6     -0.82      0.00
   -3   -2    5     -1.20      0.00
   -3   -2    4     -0.90      0.00
   -3   -2    3      0.82      0.00
   -3   -2    2      3.50      0.00
   -3   -2    1      6.38      0.00
    3    2    0      6.62      0.00
    3    2    1      1.42      0.00
    3    2    2     -4.47      0.00
    3    2    3     -3.06      0.00
    3    2    4      4.14      0.00
    3    2    5      8.32      0.00
    3    2    6      5.99      0.00
    3    2    7      1.01      0.00
    3    2    8     -1.88      0.00
    3    2    9     -1.25      0.00
    3    2   10      0.76      0.00
    3    2   11      1.56      0.00
    3    2   12      0.96      0.00
    3    2   13      0.04      0.00
   -3   -3   11     -0.73      0.00
   -3   -3   10     -0.24      0.00
   -3   -3    9      0.54      0.00
   -3   -3    8      0.69      0.00
   -3   -3    7      0.43      0.00
   -3   -3    6      0.07      0.00
   -3   -3    5     -0.74      0.00
   -3   -3    4     -1.01      0.00
   -3   -3    3      0.65      0.00
   -3   -3    2      3.69      0.00
   -3   -3    1      6.65      0.00
    3    3    0      7.05      0.00
    3    3    1      2.33      0.00
    3    3    2     -4.14      0.00
    3    3    3     -4.44      0.00
    3    3    4      1.96      0.00
    3    3    5      7.02      0.00
    3    3    6      5.99      0.00
    3    3    7      1.75      0.00
    3    3    8     -1.38      0.00
    3    3    9     -1.78      0.00
    3    3   10     -0.48      0.00
    3    3   11      0.62      0.00
    3    3   12      0.78      0.00
    3    3   13      0.32      0.00
    3    3   14     -0.24      0.00
   -3   -4   11     -0.77      0.00
   -3   -4   10     -0.50      0.00
   -3   -4    9      0.41      0.00
   -3   -4    8      1.08      0.00
   -3   -4    7      1.24      0.00
   -3   -4    6      0.99      0.00
   -3   -4    5     -0.04      0.00
   -3   -4    4     -0.99      0.00
   -3   -4    3      0.13      0.00
   -3   -4    2      3.35      0.00
   -3   -4    1      6.49      0.00
    3    4    0      6.92      0.00
    3    4    1      2.74      0.00
    3    4    2     -3.54      0.00
    3    4    3     -5.11      0.00
    3    4    4     -0.05      0.00
    3    4    5      5.15      0.00
    3    4    6      5.20      0.00
    3    4    7      1.85      0.00
    3    4    8     -1.01      0.00
    3    4    9     -1.77      0.00
    3    4   10     -0.95      0.00
    3    4   11      0.12      0.00
    3    4   12      0.56      0.00
    3    4   13      0.42      0.00
    3    4   14      0.04      0.00
   -3   -5   10     -0.47      0.00
   -3   -5    9      0.29      0.00
   -3   -5    8      1.14      0.00
   -3   -5    7      1.59      0.00
   -3   -5    6      1.61      0.00
   -3   -5    5      0.74      0.00
   -3   -5    4     -0.69      0.00
   -3   -5    3     -0.51      0.00
   -3   -5    2      2.31      0.00
   -3   -5    1      5.63      0.00
    3    5    0      6.34      0.00
    3    5    1      2.89      0.00
    3    5    2     -2.78      0.00
    3    5    3     -5.27      0.00
    3    5    4     -1.92      0.00
    3    5    5      2.92      0.00
    3    5    6      4.03      0.00
    3    5    7      1.80      0.00
    3    5    8     -0.49      0.00
    3    5    9     -1.19      0.00
    3    5   10     -0.54      0.00
    3    5   11      0.29      0.00
    3    5   12      0.46      0.00
    3    5   13      0.19      0.00
    3    5   14      0.02      0.00
    3    5   15     -0.01      0.00
   -3   -6   10     -0.36      0.00
   -3   -6    9      0.12      0.00
   -3   -6    8      0.90      0.00
   -3   -6    7      1.50      0.00
   -3   -6    6      1.75      0.00
   -3   -6    5      1.25      0.00
   -3   -6    4     -0.23      0.00
   -3   -6    3     -1.00      0.00
   -3   -6    2      0.79      0.00
   -3   -6    1      3.84      0.00
    3    6    0      4.89      0.00
    3    6    1      2.34      0.00
    3    6    2     -2.25      0.00
    3    6    3     -4.98      0.00
    3    6    4     -3.20      0.00
    3    6    5      0.87      0.00
    3    6    6      2.89      0.00
    3    6    7      1.90      0.00
    3    6    8      0.13      0.00
    3    6    9     -0.67      0.00
    3    6   10     -0.34      0.00
    3    6   11      0.25      0.00
    3    6   12      0.16      0.00
    3    6   13     -0.34      0.00
    3    6   14     -0.37      0.00
   -3   -7    9     -0.15      0.00
   -3   -7    8      0.48      0.00
   -3   -7    7      1.19      0.00
   -3   -7    6      1.62      0.00
   -3   -7    5      1.44      0.00
   -3   -7    4      0.24      0.00
   -3   -7    3     -1.05      0.00
   -3   -7    2     -0.37      0.00
   -3   -7    1      1.99      0.00
    3    7    0      3.11      0.00
    3    7    1      1.33      0.00
    3    7    2     -1.99      0.00
    3    7    3     -4.22      0.00
    3    7    4     -3.45      0.00
    3    7    5     -0.45      0.00
    3    7    6      1.83      0.00
    3    7    7      1.80      0.00
    3    7    8      0.50      0.00
    3    7    9     -0.54      0.00
    3    7   10     -0.74      0.00
    3    7   11     -0.41      0.00
    3    7   12     -0.40      0.00
    3    7   13     -0.74      0.00
    3    7   14     -0.64      0.00
   -3   -8    8      0.17      0.00
   -3   -8    7      0.90      0.00
   -3   -8    6      1.43      0.00
   -3   -8    5      1.46      0.00
   -3   -8    4      0.65      0.00
   -3   -8    3     -0.68      0.00
   -3   -8    2     -0.79      0.00
   -3   -8    1      0.85      0.00
    3    8    0      1.90      0.00
    3    8    1      0.58      0.00
    3    8    2     -1.88      0.00
    3    8    3     -3.45      0.00
    3    8    4     -3.12      0.00
    3    8    5     -1.13      0.00
    3    8    6      0.85      0.00
    3    8    7      1.30      0.00
    3    8    8      0.51      0.00
    3    8    9     -0.44      0.00
    3    8   10     -0.97      0.00
    3    8   11     -0.90      0.00
    3    8   12     -0.67      0.00
    3    8   13     -0.63      0.00
   -3   -9    7      0.59      0.00
   -3   -9    6      1.06      0.00
   -3   -9    5      1.22      0.00
   -3   -9    4      0.85      0.00
   -3   -9    3     -0.21      0.00
   -3   -9    2     -0.79      0.00
   -3   -9    1      0.21      0.00
    3    9    0      1.29      0.00
    3    9    1      0.43      0.00
    3    9    2     -1.61      0.00
    3    9    3     -2.96      0.00
    3    9    4     -2.92      0.00
    3    9    5     -1.57      0.00
    3    9    6      0.14      0.00
    3    9    7      0.83      0.00
    3    9    8      0.41      0.00
    3    9    9     -0.24      0.00
    3    9   10     -0.69      0.00
    3    9   11     -0.77      0.00
    3    9   12     -0.50      0.00
    3    9   13     -0.26      0.00
   -3  -10    6      0.49      0.00
   -3  -10    5      0.70      0.00
   -3  -10    4      0.76      0.00
   -3  -10    3      0.19      0.00
   -3  -10    2     -0.65      0.00
   -3  -10    1     -0.33      0.00
    3   10    0      0.76      0.00
    3   10    1      0.63      0.00
    3   10    2     -0.89      0.00
    3   10    3     -2.28      0.00
    3   10    4     -2.66      0.00
    3   10    5     -1.77      0.00
    3   10    6     -0.13      0.00
    3   10    7      0.77      0.00
    3   10    8      0.45      0.00
    3   10    9     -0.14      0.00
    3   10   10     -0.47      0.00
    3   10   11     -0.56      0.00
    3   10   12     -0.34      0.00
    3   10   13     -0.09      0.00
   -3  -11    4      0.49      0.00
   -3  -11    3      0.40      0.00
   -3  -11    2     -0.44      0.00
   -3  -11    1     -0.78      0.00
    3   11    0      0.06      0.00
    3   11    1      0.64      0.00
    3   11    2     -0.01      0.00
    3   11    3     -1.14      0.00
    3   11    4     -1.88      0.00
    3   11    5     -1.54      0.00
    3   11    6     -0.12      0.00
    3   11    7      0.92      0.00
    3   11    8      0.61      0.00
    3   11    9     -0.14      0.00
    3   11   10     -0.49      0.00
    3   11   11     -0.52      0.00
    3   11   12     -0.32      0.00
   -3  -12    3      0.27      0.00
   -3  -12    2     -0.34      0.00
   -3  -12    1     -1.01      0.00
    3   12    0     -0.59      0.00
    3   12    1      0.25      0.00
    3   12    2      0.38      0.00
    3   12    3     -0.16      0.00
    3   12    4     -0.86      0.00
    3   12    5     -1.01      0.00
    3   12    6     -0.13      0.00
    3   12    7      0.83      0.00
    3   12    8      0.67      0.00
    3   12    9     -0.03      0.00
    3   12   10     -0.33      0.00
    3   13    0     -0.77      0.00
    3   13    1     -0.10      0.00
    3   13    2      0.25      0.00
    3   13    3      0.12      0.00
    3   13    4     -0.26      0.00
    3   13    5     -0.59      0.00
    3   13    6     -0.26      0.00
    3   13    7      0.41      0.00
    3   13    8      0.49      0.00
    3   14    3      0.00      0.00
    3   14    4     -0.19      0.00
    3   14    5     -0.44      0.00
    3   14    6     -0.42      0.00
    3   15    4     -0.26      0.00
   -4   12    2     -0.07      0.00
   -4   12    1     -0.59      0.00
   -4   12    0     -0.39      0.00
    4  -12    1      0.38      0.00
    4  -12    2      0.58      0.00
   -4   11    3      0.05      0.00
   -4   11    2     -0.13      0.00
   -4   11    1     -0.68      0.00
   -4   11    0     -0.69      0.00
    4  -11    1      0.09      0.00
    4  -11    2      0.48      0.00
    4  -11    3      0.16      0.00
    4  -11    4      0.18      0.00
   -4   10    5     -0.75      0.00
   -4   10    4     -0.48      0.00
   -4   10    3      0.01      0.00
   -4   10    2      0.20      0.00
   -4   10    1     -0.17      0.00
   -4   10    0     -0.45      0.00
    4  -10    1     -0.02      0.00
    4  -10    2      0.33      0.00
    4  -10    3      0.12      0.00
    4  -10    4      0.33      0.00
    4  -10    5      0.99      0.00
    4  -10    6      0.82      0.00
   -4    9    6     -1.07      0.00
   -4    9    5     -1.17      0.00
   -4    9    4     -0.40      0.00
   -4    9    3      0.57      0.00
   -4    9    2      1.07      0.00
   -4    9    1      0.84      0.00
   -4    9    0      0.31      0.00
    4   -9    1      0.24      0.00
    4   -9    2      0.39      0.00
    4   -9    3      0.25      0.00
    4   -9    4      0.57      0.00
    4   -9    5      1.52      0.00
    4   -9    6      1.62      0.00
    4   -9    7      0.56      0.00
   -4    8    7     -0.21      0.00
   -4    8    6     -1.12      0.00
   -4    8    5     -1.29      0.00
   -4    8    4     -0.22      0.00
   -4    8    3      1.10      0.00
   -4    8    2      1.73      0.00
   -4    8    1      1.57      0.00
   -4    8    0      0.99      0.00
    4   -8    1      0.62      0.00
    4   -8    2      0.55      0.00
    4   -8    3      0.32      0.00
    4   -8    4      0.43      0.00
    4   -8    5      1.38      0.00
    4   -8    6      1.87      0.00
    4   -8    7      1.01      0.00
    4   -8    8     -0.08      0.00
   -4    7    8      0.60      0.00
   -4    7    7      0.11      0.00
   -4    7    6     -0.94      0.00
   -4    7    5     -1.43      0.00
   -4    7    4     -0.51      0.00
   -4    7    3      0.91      0.00
   -4    7    2      1.71      0.00
   -4    7    1      1.82      0.00
   -4    7    0      1.55      0.00
    4   -7    1      1.18      0.00
    4   -7    2      0.84      0.00
    4   -7    3      0.27      0.00
    4   -7    4     -0.11      0.00
    4   -7    5      0.52      0.00
    4   -7    6      1.40      0.00
    4   -7    7      1.13      0.00
    4   -7    8      0.07      0.00
    4   -7    9     -0.64      0.00
   -4    6    9      0.60      0.00
   -4    6    8      0.91      0.00
   -4    6    7      0.46      0.00
   -4    6    6     -0.71      0.00
   -4    6    5     -1.56      0.00
   -4    6    4     -1.00      0.00
   -4    6    3      0.45      0.00
   -4    6    2      1.58      0.00
   -4    6    1      2.18      0.00
   -4    6    0      2.44      0.00
    4   -6    1      2.17      0.00
    4   -6    2      1.39      0.00
    4   -6    3      0.24      0.00
    4   -6    4     -0.69      0.00
    4   -6    5     -0.37      0.00
    4   -6    6      0.85      0.00
    4   -6    7      1.24      0.00
    4   -6    8      0.33      0.00
    4   -6    9     -0.76      0.00
    4   -6   10     -1.20      0.00
   -4    5   10     -0.24      0.00
   -4    5    9      0.58      0.00
   -4    5    8      1.26      0.00
   -4    5    7      0.93      0.00
   -4    5    6     -0.31      0.00
   -4    5    5     -1.38      0.00
   -4    5    4     -1.10      0.00
   -4    5    3      0.38      0.00
   -4    5    2      1.83      0.00
   -4    5    1      2.82      0.00
   -4    5    0      3.47      0.00
    4   -5    1      3.33      0.00
    4   -5    2      2.07      0.00
    4   -5    3      0.21      0.00
    4   -5    4     -1.21      0.00
    4   -5    5     -1.01      0.00
    4   -5    6      0.62      0.00
    4   -5    7      1.62      0.00
    4   -5    8      0.79      0.00
    4   -5    9     -0.73      0.00
    4   -5   10     -1.50      0.00
    4   -5   11     -1.25      0.00
   -4    4   10     -0.83      0.00
   -4    4    9      0.24      0.00
   -4    4    8      1.45      0.00
   -4    4    7      1.44      0.00
   -4    4    6      0.28      0.00
   -4    4    5     -0.91      0.00
   -4    4    4     -0.89      0.00
   -4    4    3      0.50      0.00
   -4    4    2      2.11      0.00
   -4    4    1      3.18      0.00
   -4    4    0      3.98      0.00
    4   -4    1      4.10      0.00
    4   -4    2      2.67      0.00
    4   -4    3      0.14      0.00
    4   -4    4     -1.89      0.00
    4   -4    5     -1.87      0.00
    4   -4    6      0.17      0.00
    4   -4    7      1.90      0.00
    4   -4    8      1.31      0.00
    4   -4    9     -0.59      0.00
    4   -4   10     -1.70      0.00
    4   -4   11     -1.50      0.00
   -4    3   11     -0.88      0.00
   -4    3   10     -1.22      0.00
   -4    3    9     -0.25      0.00
   -4    3    8      1.30      0.00
   -4    3    7      1.74      0.00
   -4    3    6      0.82      0.00
   -4    3    5     -0.41      0.00
   -4    3    4     -0.75      0.00
   -4    3    3      0.32      0.00
   -4    3    2      1.86      0.00
   -4    3    1      2.86      0.00
   -4    3    0      3.71      0.00
    4   -3    1      4.33      0.00
    4   -3    2      3.24      0.00
    4   -3    3      0.20      0.00
    4   -3    4     -2.74      0.00
    4   -3    5     -3.27      0.00
    4   -3    6     -1.01      0.00
    4   -3    7      1.64      0.00
    4   -3    8      1.79      0.00
    4   -3    9     -0.21      0.00
    4   -3   10     -1.77      0.00
    4   -3   11     -1.79      0.00
    4   -3   12     -0.99      0.00
   -4    2   11     -0.67      0.00
   -4    2   10     -1.10      0.00
   -4    2    9     -0.47      0.00
   -4    2    8      1.06      0.00
   -4    2    7      1.85      0.00
   -4    2    6      1.24      0.00
   -4    2    5      0.04      0.00
   -4    2    4     -0.66      0.00
   -4    2    3     -0.15      0.00
   -4    2    2      1.03      0.00
   -4    2    1      1.78      0.00
   -4    2    0      2.59      0.00
    4   -2    1      3.90      0.00
    4   -2    2      3.66      0.00
    4   -2    3      0.45      0.00
    4   -2    4     -3.50      0.00
    4   -2    5     -4.83      0.00
    4   -2    6     -2.54      0.00
    4   -2    7      1.04      0.00
    4   -2    8      2.32      0.00
    4   -2    9      0.63      0.00
    4   -2   10     -1.38      0.00
    4   -2   11     -1.86      0.00
    4   -2   12     -1.26      0.00
   -4    1   10     -0.72      0.00
   -4    1    9     -0.36      0.00
   -4    1    8      0.99      0.00
   -4    1    7      1.96      0.00
   -4    1    6      1.56      0.00
   -4    1    5      0.39      0.00
   -4    1    4     -0.58      0.00
   -4    1    3     -0.68      0.00
   -4    1    2     -0.19      0.00
   -4    1    1     -0.09      0.00
   -4    1    0      0.37      0.00
    4   -1    1      2.36      0.00
    4   -1    2      3.52      0.00
    4   -1    3      0.85      0.00
    4   -1    4     -3.79      0.00
    4   -1    5     -5.89      0.00
    4   -1    6     -3.72      0.00
    4   -1    7      0.48      0.00
    4   -1    8      2.79      0.00
    4   -1    9      1.66      0.00
    4   -1   10     -0.62      0.00
    4   -1   11     -1.57      0.00
    4   -1   12     -1.20      0.00
    4   -1   13     -0.42      0.00
   -4    0   10     -0.45      0.00
   -4    0    9     -0.30      0.00
   -4    0    8      0.85      0.00
   -4    0    7      1.93      0.00
   -4    0    6      1.64      0.00
   -4    0    5      0.40      0.00
   -4    0    4     -0.72      0.00
   -4    0    3     -1.27      0.00
   -4    0    2     -1.54      0.00
   -4    0    1     -2.32      0.00
    4    0    0     -2.54      0.00
    4    0    1     -0.10      0.00
    4    0    2      2.82      0.00
    4    0    3      1.59      0.00
    4    0    4     -3.14      0.00
    4    0    5     -6.03      0.00
    4    0    6     -4.36      0.00
    4    0    7     -0.13      0.00
    4    0    8      2.79      0.00
    4    0    9      2.32      0.00
    4    0   10      0.05      0.00
    4    0   11     -1.28      0.00
    4    0   12     -1.07      0.00
    4    0   13     -0.25      0.00
   -4   -1   10     -0.30      0.00
   -4   -1    9     -0.42      0.00
   -4   -1    8      0.37      0.00
   -4   -1    7      1.43      0.00
   -4   -1    6      1.26      0.00
   -4   -1    5      0.06      0.00
   -4   -1    4     -1.06      0.00
   -4   -1    3     -1.79      0.00
   -4   -1    2     -2.60      0.00
   -4   -1    1     -4.05      0.00
    4    1    0     -4.90      0.00
    4    1    1     -2.39      0.00
    4    1    2      2.05      0.00
    4    1    3      2.74      0.00
    4    1    4     -1.46      0.00
    4    1    5     -5.22      0.00
    4    1    6     -4.65      0.00
    4    1    7     -1.03      0.00
    4    1    8      2.18      0.00
    4    1    9      2.57      0.00
    4    1   10      0.70      0.00
    4    1   11     -0.99      0.00
    4    1   12     -1.15      0.00
    4    1   13     -0.31      0.00
   -4   -2   10     -0.03      0.00
   -4   -2    9     -0.45      0.00
   -4   -2    8     -0.28      0.00
   -4   -2    7      0.50      0.00
   -4   -2    6      0.54      0.00
   -4   -2    5     -0.34      0.00
   -4   -2    4     -1.17      0.00
   -4   -2    3     -1.91      0.00
   -4   -2    2     -3.09      0.00
   -4   -2    1     -4.89      0.00
    4    2    0     -5.98      0.00
    4    2    1     -3.67      0.00
    4    2    2      1.49      0.00
    4    2    3      3.85      0.00
    4    2    4      0.62      0.00
    4    2    5     -3.76      0.00
    4    2    6     -4.54      0.00
    4    2    7     -1.93      0.00
    4    2    8      1.31      0.00
    4    2    9      2.75      0.00
    4    2   10      1.69      0.00
    4    2   11     -0.29      0.00
    4    2   12     -1.23      0.00
    4    2   13     -0.71      0.00
   -4   -3   10      0.31      0.00
   -4   -3    9     -0.34      0.00
   -4   -3    8     -0.83      0.00
   -4   -3    7     -0.51      0.00
   -4   -3    6     -0.30      0.00
   -4   -3    5     -0.61      0.00
   -4   -3    4     -0.86      0.00
   -4   -3    3     -1.38      0.00
   -4   -3    2     -2.93      0.00
   -4   -3    1     -5.07      0.00
    4    3    0     -6.17      0.00
    4    3    1     -4.02      0.00
    4    3    2      1.14      0.00
    4    3    3      4.53      0.00
    4    3    4      2.47      0.00
    4    3    5     -2.00      0.00
    4    3    6     -3.89      0.00
    4    3    7     -2.36      0.00
    4    3    8      0.55      0.00
    4    3    9      2.63      0.00
    4    3   10      2.45      0.00
    4    3   11      0.50      0.00
    4    3   12     -1.18      0.00
    4    3   13     -1.29      0.00
    4    3   14     -0.33      0.00
   -4   -4   10      0.41      0.00
   -4   -4    9     -0.29      0.00
   -4   -4    8     -1.18      0.00
   -4   -4    7     -1.29      0.00
   -4   -4    6     -1.02      0.00
   -4   -4    5     -0.85      0.00
   -4   -4    4     -0.44      0.00
   -4   -4    3     -0.43      0.00
   -4   -4    2     -2.02      0.00
   -4   -4    1     -4.54      0.00
    4    4    0     -5.76      0.00
    4    4    1     -3.80      0.00
    4    4    2      1.05      0.00
    4    4    3      4.93      0.00
    4    4    4      3.99      0.00
    4    4    5     -0.19      0.00
    4    4    6     -2.88      0.00
    4    4    7     -2.35      0.00
    4    4    8     -0.12      0.00
    4    4    9      1.84      0.00
    4    4   10      2.07      0.00
    4    4   11      0.52      0.00
    4    4   12     -1.21      0.00
    4    4   13     -1.68      0.00
    4    4   14     -0.98      0.00
   -4   -5   10      0.32      0.00
   -4   -5    9     -0.28      0.00
   -4   -5    8     -1.22      0.00
   -4   -5    7     -1.61      0.00
   -4   -5    6     -1.47      0.00
   -4   -5    5     -1.16      0.00
   -4   -5    4     -0.36      0.00
   -4   -5    3      0.39      0.00
   -4   -5    2     -0.58      0.00
   -4   -5    1     -3.08      0.00
    4    5    0     -4.63      0.00
    4    5    1     -3.16      0.00
    4    5    2      1.08      0.00
    4    5    3      5.06      0.00
    4    5    4      5.10      0.00
    4    5    5      1.43      0.00
    4    5    6     -1.88      0.00
    4    5    7     -2.25      0.00
    4    5    8     -0.65      0.00
    4    5    9      0.88      0.00
    4    5   10      1.12      0.00
    4    5   11      0.06      0.00
    4    5   12     -1.13      0.00
    4    5   13     -1.43      0.00
    4    5   14     -1.03      0.00
    4    5   15     -0.57      0.00
   -4   -6    9     -0.04      0.00
   -4   -6    8     -0.84      0.00
   -4   -6    7     -1.45      0.00
   -4   -6    6     -1.63      0.00
   -4   -6    5     -1.51      0.00
   -4   -6    4     -0.73      0.00
   -4   -6    3      0.57      0.00
   -4   -6    2      0.65      0.00
   -4   -6    1     -1.21      0.00
    4    6    0     -2.99      0.00
    4    6    1     -2.36      0.00
    4    6    2      0.85      0.00
    4    6    3      4.49      0.00
    4    6    4      5.37      0.00
    4    6    5      2.57      0.00
    4    6    6     -0.96      0.00
    4    6    7     -2.06      0.00
    4    6    8     -0.89      0.00
    4    6    9      0.51      0.00
    4    6   10      0.87      0.00
    4    6   11      0.23      0.00
    4    6   12     -0.48      0.00
    4    6   13     -0.58      0.00
    4    6   14     -0.40      0.00
    4    6   15     -0.40      0.00
   -4   -7    9      0.26      0.00
   -4   -7    8     -0.31      0.00
   -4   -7    7     -1.12      0.00
   -4   -7    6     -1.69      0.00
   -4   -7    5     -1.83      0.00
   -4   -7    4     -1.24      0.00
   -4   -7    3      0.20      0.00
   -4   -7    2      1.16      0.00
   -4   -7    1      0.22      0.00
    4    7    0     -1.53      0.00
    4    7    1     -1.72      0.00
    4    7    2      0.38      0.00
    4    7    3      3.38      0.00
    4    7    4      4.78      0.00
    4    7    5      3.08      0.00
    4    7    6     -0.09      0.00
    4    7    7     -1.63      0.00
    4    7    8     -0.86      0.00
    4    7    9      0.54      0.00
    4    7   10      1.22      0.00
    4    7   11      1.00      0.00
    4    7   12      0.42      0.00
    4    7   13      0.16      0.00
    4    7   14      0.13      0.00
   -4   -8    8     -0.09      0.00
   -4   -8    7     -0.89      0.00
   -4   -8    6     -1.66      0.00
   -4   -8    5     -1.93      0.00
   -4   -8    4     -1.49      0.00
   -4   -8    3     -0.18      0.00
   -4   -8    2      1.19      0.00
   -4   -8    1      1.02      0.00
    4    8    0     -0.55      0.00
    4    8    1     -1.28      0.00
    4    8    2      0.07      0.00
    4    8    3      2.51      0.00
    4    8    4      4.04      0.00
    4    8    5      3.13      0.00
    4    8    6      0.53      0.00
    4    8    7     -1.16      0.00
    4    8    8     -0.84      0.00
    4    8    9      0.30      0.00
    4    8   10      1.12      0.00
    4    8   11      1.28      0.00
    4    8   12      0.81      0.00
    4    8   13      0.27      0.00
   -4   -9    7     -0.67      0.00
   -4   -9    6     -1.34      0.00
   -4   -9    5     -1.60      0.00
   -4   -9    4     -1.33      0.00
   -4   -9    3     -0.35      0.00
   -4   -9    2      1.08      0.00
   -4   -9    1      1.45      0.00
    4    9    0      0.10      0.00
    4    9    1     -1.04      0.00
    4    9    2     -0.14      0.00
    4    9    3      2.06      0.00
    4    9    4      3.53      0.00
    4    9    5      2.86      0.00
    4    9    6      0.60      0.00
    4    9    7     -1.01      0.00
    4    9    8     -0.90      0.00
    4    9    9     -0.10      0.00
    4    9   10      0.53      0.00
    4    9   11      0.88      0.00
    4    9   12      0.68      0.00
    4    9   13      0.12      0.00
   -4  -10    5     -0.97      0.00
   -4  -10    4     -0.94      0.00
   -4  -10    3     -0.45      0.00
   -4  -10    2      0.80      0.00
   -4  -10    1      1.60      0.00
    4   10    0      0.58      0.00
    4   10    1     -0.94      0.00
    4   10    2     -0.59      0.00
    4   10    3      1.40      0.00
    4   10    4      2.85      0.00
    4   10    5      2.27      0.00
    4   10    6      0.24      0.00
    4   10    7     -1.12      0.00
    4   10    8     -0.84      0.00
    4   10    9     -0.09      0.00
    4   10   10      0.26      0.00
    4   10   11      0.52      0.00
    4   10   12      0.56      0.00
    4   10   13      0.18      0.00
   -4  -11    4     -0.54      0.00
   -4  -11    3     -0.46      0.00
   -4  -11    2      0.46      0.00
   -4  -11    1      1.53      0.00
    4   11    0      1.00      0.00
    4   11    1     -0.66      0.00
    4   11    2     -0.98      0.00
    4   11    3      0.50      0.00
    4   11    4      1.82      0.00
    4   11    5      1.47      0.00
    4   11    6     -0.11      0.00
    4   11    7     -1.09      0.00
    4   11    8     -0.60      0.00
    4   11    9      0.19      0.00
    4   11   10      0.32      0.00
    4   11   11      0.37      0.00
    4   11   12      0.50      0.00
   -4  -12    2      0.35      0.00
   -4  -12    1      1.39      0.00
    4   12    0      1.31      0.00
    4   12    1     -0.09      0.00
    4   12    2     -0.78      0.00
    4   12    3      0.02      0.00
    4   12    4      0.92      0.00
    4   12    5      0.71      0.00
    4   12    6     -0.29      0.00
    4   12    7     -0.84      0.00
    4   12    8     -0.34      0.00
    4   12    9      0.26      0.00
    4   12   10      0.17      0.00
    4   12   11      0.04      0.00
    4   13    0      1.18      0.00
    4   13    1      0.28      0.00
    4   13    2     -0.30      0.00
    4   13    3      0.13      0.00
    4   13    4      0.55      0.00
    4   13    5      0.24      0.00
    4   13    6     -0.37      0.00
    4   13    7     -0.58      0.00
    4   13    8     -0.21      0.00
    4   14    3      0.29      0.00
    4   14    4      0.49      0.00
    4   14    5      0.09      0.00
    4   14    6     -0.36      0.00
   -5   11    1      0.27      0.00
   -5   11    0      0.35      0.00
    5  -11    1      0.18      0.00
    5  -11    2     -0.03      0.00
    5  -11    3      0.21      0.00
   -5   10    3      0.38      0.00
   -5   10    2      0.10      0.00
   -5   10    1     -0.18      0.00
   -5   10    0     -0.07      0.00
    5  -10    1      0.16      0.00
    5  -10    2      0.16      0.00
    5  -10    3      0.24      0.00
    5  -10    5     -0.25      0.00
    5  -10    6     -0.75      0.00
   -5    9    5      0.71      0.00
   -5    9    4      0.37      0.00
   -5    9    3     -0.19      0.00
   -5    9    2     -0.73      0.00
   -5    9    1     -1.11      0.00
   -5    9    0     -0.83      0.00
    5   -9    1     -0.11      0.00
    5   -9    2      0.20      0.00
    5   -9    3      0.15      0.00
    5   -9    4      0.03      0.00
    5   -9    5     -0.56      0.00
    5   -9    6     -1.23      0.00
    5   -9    7     -0.93      0.00
   -5    8    6      0.51      0.00
   -5    8    5      0.79      0.00
   -5    8    4      0.30      0.00
   -5    8    3     -0.71      0.00
   -5    8    2     -1.53      0.00
   -5    8    1     -1.84      0.00
   -5    8    0     -1.33      0.00
    5   -8    1     -0.26      0.00
    5   -8    2      0.30      0.00
    5   -8    3      0.19      0.00
    5   -8    4      0.01      0.00
    5   -8    5     -0.45      0.00
    5   -8    6     -1.21      0.00
    5   -8    7     -1.23      0.00
    5   -8    8     -0.41      0.00
   -5    7    7     -0.04      0.00
   -5    7    6      0.37      0.00
   -5    7    5      0.97      0.00
   -5    7    4      0.75      0.00
   -5    7    3     -0.45      0.00
   -5    7    2     -1.60      0.00
   -5    7    1     -1.99      0.00
   -5    7    0     -1.46      0.00
    5   -7    1     -0.33      0.00
    5   -7    2      0.39      0.00
    5   -7    3      0.38      0.00
    5   -7    4      0.33      0.00
    5   -7    5      0.12      0.00
    5   -7    6     -0.66      0.00
    5   -7    7     -1.11      0.00
    5   -7    8     -0.60      0.00
    5   -7    9      0.04      0.00
   -5    6    8     -0.30      0.00
   -5    6    7     -0.42      0.00
   -5    6    6      0.01      0.00
   -5    6    5      0.97      0.00
   -5    6    4      1.31      0.00
   -5    6    3      0.28      0.00
   -5    6    2     -1.17      0.00
   -5    6    1     -1.84      0.00
   -5    6    0     -1.53      0.00
    5   -6    1     -0.62      0.00
    5   -6    2      0.18      0.00
    5   -6    3      0.49      0.00
    5   -6    4      0.72      0.00
    5   -6    5      0.73      0.00
    5   -6    6     -0.04      0.00
    5   -6    7     -0.87      0.00
    5   -6    8     -0.69      0.00
    5   -6    9     -0.02      0.00
    5   -6   10      0.27      0.00
   -5    5    8     -0.82      0.00
   -5    5    7     -1.16      0.00
   -5    5    6     -0.73      0.00
   -5    5    5      0.53      0.00
   -5    5    4      1.47      0.00
   -5    5    3      0.83      0.00
   -5    5    2     -0.74      0.00
   -5    5    1     -1.67      0.00
   -5    5    0     -1.61      0.00
    5   -5    1     -1.03      0.00
    5   -5    2     -0.29      0.00
    5   -5    3      0.36      0.00
    5   -5    4      0.95      0.00
    5   -5    5      1.16      0.00
    5   -5    6      0.39      0.00
    5   -5    7     -0.69      0.00
    5   -5    8     -0.75      0.00
    5   -5    9     -0.02      0.00
    5   -5   10      0.45      0.00
    5   -5   11      0.43      0.00
   -5    4    9     -0.08      0.00
   -5    4    8     -1.17      0.00
   -5    4    7     -1.88      0.00
   -5    4    6     -1.51      0.00
   -5    4    5     -0.02      0.00
   -5    4    4      1.40      0.00
   -5    4    3      1.17      0.00
   -5    4    2     -0.41      0.00
   -5    4    1     -1.48      0.00
   -5    4    0     -1.47      0.00
    5   -4    1     -1.12      0.00
    5   -4    2     -0.66      0.00
    5   -4    3      0.13      0.00
    5   -4    4      1.08      0.00
    5   -4    5      1.56      0.00
    5   -4    6      0.91      0.00
    5   -4    7     -0.36      0.00
    5   -4    8     -0.74      0.00
    5   -4    9      0.01      0.00
    5   -4   10      0.75      0.00
    5   -4   11      0.89      0.00
   -5    3   10      0.55      0.00
   -5    3    9      0.12      0.00
   -5    3    8     -1.04      0.00
   -5    3    7     -2.05      0.00
   -5    3    6     -1.87      0.00
   -5    3    5     -0.31      0.00
   -5    3    4      1.43      0.00
   -5    3    3      1.57      0.00
   -5    3    2      0.07      0.00
   -5    3    1     -1.03      0.00
   -5    3    0     -0.93      0.00
    5   -3    1     -0.70      0.00
    5   -3    2     -0.64      0.00
    5   -3    3      0.01      0.00
    5   -3    4      1.22      0.00
    5   -3    5      2.08      0.00
    5   -3    6      1.67      0.00
    5   -3    7      0.20      0.00
    5   -3    8     -0.77      0.00
    5   -3    9     -0.27      0.00
    5   -3   10      0.83      0.00
    5   -3   11      1.42      0.00
    5   -3   12      1.24      0.00
   -5    2   10      0.24      0.00
   -5    2    9      0.13      0.00
   -5    2    8     -0.71      0.00
   -5    2    7     -1.81      0.00
   -5    2    6     -1.88      0.00
   -5    2    5     -0.41      0.00
   -5    2    4      1.49      0.00
   -5    2    3      1.99      0.00
   -5    2    2      0.83      0.00
   -5    2    1     -0.10      0.00
   -5    2    0      0.15      0.00
    5   -2    1      0.25      0.00
    5   -2    2     -0.24      0.00
    5   -2    3      0.03      0.00
    5   -2    4      1.38      0.00
    5   -2    5      2.55      0.00
    5   -2    6      2.34      0.00
    5   -2    7      0.68      0.00
    5   -2    8     -1.04      0.00
    5   -2    9     -1.12      0.00
    5   -2   10      0.23      0.00
    5   -2   11      1.49      0.00
    5   -2   12      1.72      0.00
   -5    1   10     -0.14      0.00
   -5    1    9     -0.03      0.00
   -5    1    8     -0.47      0.00
   -5    1    7     -1.51      0.00
   -5    1    6     -1.79      0.00
   -5    1    5     -0.46      0.00
   -5    1    4      1.50      0.00
   -5    1    3      2.34      0.00
   -5    1    2      1.75      0.00
   -5    1    1      1.30      0.00
   -5    1    0      1.74      0.00
    5   -1    1      1.55      0.00
    5   -1    2      0.25      0.00
    5   -1    3     -0.14      0.00
    5   -1    4      1.22      0.00
    5   -1    5      2.67      0.00
    5   -1    6      2.64      0.00
    5   -1    7      0.88      0.00
    5   -1    8     -1.40      0.00
    5   -1    9     -2.13      0.00
    5   -1   10     -0.76      0.00
    5   -1   11      1.07      0.00
    5   -1   12      1.77      0.00
    5   -1   13      1.18      0.00
   -5    0    9     -0.06      0.00
   -5    0    8     -0.19      0.00
   -5    0    7     -1.11      0.00
   -5    0    6     -1.50      0.00
   -5    0    5     -0.25      0.00
   -5    0    4      1.70      0.00
   -5    0    3      2.71      0.00
   -5    0    2      2.58      0.00
   -5    0    1      2.61      0.00
    5    0    0      3.24      0.00
    5    0    1      2.72      0.00
    5    0    2      0.47      0.00
    5    0    3     -0.88      0.00
    5    0    4      0.33      0.00
    5    0    5      2.26      0.00
    5    0    6      2.67      0.00
    5    0    7      1.11      0.00
    5    0    8     -1.41      0.00
    5    0    9     -2.73      0.00
    5    0   10     -1.58      0.00
    5    0   11      0.61      0.00
    5    0   12      1.69      0.00
    5    0   13      1.23      0.00
   -5   -1    9     -0.04      0.00
   -5   -1    8      0.16      0.00
   -5   -1    7     -0.43      0.00
   -5   -1    6     -0.82      0.00
   -5   -1    5      0.30      0.00
   -5   -1    4      2.11      0.00
   -5   -1    3      3.04      0.00
   -5   -1    2      3.07      0.00
   -5   -1    1      3.34      0.00
    5    1    0      4.02      0.00
    5    1    1      3.34      0.00
    5    1    2      0.42      0.00
    5    1    3     -1.98      0.00
    5    1    4     -1.20      0.00
    5    1    5      1.30      0.00
    5    1    6      2.60      0.00
    5    1    7      1.62      0.00
    5    1    8     -0.95      0.00
    5    1    9     -2.94      0.00
    5    1   10     -2.33      0.00
    5    1   11      0.03      0.00
    5    1   12      1.57      0.00
    5    1   13      1.29      0.00
   -5   -2    8      0.36      0.00
   -5   -2    7      0.33      0.00
   -5   -2    6      0.06      0.00
   -5   -2    5      0.86      0.00
   -5   -2    4      2.27      0.00
   -5   -2    3      2.99      0.00
   -5   -2    2      3.08      0.00
   -5   -2    1      3.45      0.00
    5    2    0      4.10      0.00
    5    2    1      3.42      0.00
    5    2    2      0.35      0.00
    5    2    3     -2.83      0.00
    5    2    4     -2.79      0.00
    5    2    5     -0.01      0.00
    5    2    6      2.31      0.00
    5    2    7      2.18      0.00
    5    2    8     -0.23      0.00
    5    2    9     -2.88      0.00
    5    2   10     -3.14      0.00
    5    2   11     -0.89      0.00
    5    2   12      1.24      0.00
    5    2   13      1.43      0.00
   -5   -3    8      0.38      0.00
   -5   -3    7      0.86      0.00
   -5   -3    6      0.71      0.00
   -5   -3    5      1.03      0.00
   -5   -3    4      1.84      0.00
   -5   -3    3      2.27      0.00
   -5   -3    2      2.48      0.00
   -5   -3    1      3.08      0.00
    5    3    0      3.74      0.00
    5    3    1      3.11      0.00
    5    3    2      0.22      0.00
    5    3    3     -3.30      0.00
    5    3    4     -4.07      0.00
    5    3    5     -1.43      0.00
    5    3    6      1.67      0.00
    5    3    7      2.46      0.00
    5    3    8      0.55      0.00
    5    3    9     -2.25      0.00
    5    3   10     -3.22      0.00
    5    3   11     -1.49      0.00
    5    3   12      0.89      0.00
    5    3   13      1.68      0.00
    5    3   14      0.89      0.00
   -5   -4    8      0.45      0.00
   -5   -4    7      1.09      0.00
   -5   -4    6      0.98      0.00
   -5   -4    5      0.89      0.00
   -5   -4    4      1.15      0.00
   -5   -4    3      1.22      0.00
   -5   -4    2      1.37      0.00
   -5   -4    1      2.12      0.00
    5    4    0      2.90      0.00
    5    4    1      2.42      0.00
    5    4    2     -0.12      0.00
    5    4    3     -3.60      0.00
    5    4    4     -4.94      0.00
    5    4    5     -2.67      0.00
    5    4    6      0.87      0.00
    5    4    7      2.40      0.00
    5    4    8      1.21      0.00
    5    4    9     -1.06      0.00
    5    4   10     -2.15      0.00
    5    4   11     -1.13      0.00
    5    4   12      0.79      0.00
    5    4   13      1.80      0.00
    5    4   14      1.45      0.00
   -5   -5    8      0.50      0.00
   -5   -5    7      1.07      0.00
   -5   -5    6      1.00      0.00
   -5   -5    5      0.78      0.00
   -5   -5    4      0.80      0.00
   -5   -5    3      0.58      0.00
   -5   -5    2      0.30      0.00
   -5   -5    1      0.78      0.00
    5    5    0      1.67      0.00
    5    5    1      1.62      0.00
    5    5    2     -0.29      0.00
    5    5    3     -3.42      0.00
    5    5    4     -5.16      0.00
    5    5    5     -3.45      0.00
    5    5    6      0.12      0.00
    5    5    7      2.08      0.00
    5    5    8      1.41      0.00
    5    5    9     -0.21      0.00
    5    5   10     -0.99      0.00
    5    5   11     -0.51      0.00
    5    5   12      0.57      0.00
    5    5   13      1.34      0.00
    5    5   14      1.40      0.00
    5    5   15      0.96      0.00
   -5   -6    8      0.33      0.00
   -5   -6    7      0.83      0.00
   -5   -6    6      0.96      0.00
   -5   -6    5      0.91      0.00
   -5   -6    4      0.97      0.00
   -5   -6    3      0.62      0.00
   -5   -6    2     -0.21      0.00
   -5   -6    1     -0.39      0.00
    5    6    0      0.47      0.00
    5    6    1      1.14      0.00
    5    6    2      0.17      0.00
    5    6    3     -2.41      0.00
    5    6    4     -4.54      0.00
    5    6    5     -3.76      0.00
    5    6    6     -0.64      0.00
    5    6    7      1.49      0.00
    5    6    8      1.11      0.00
    5    6    9     -0.18      0.00
    5    6   10     -0.78      0.00
    5    6   11     -0.63      0.00
    5    6   12     -0.14      0.00
    5    6   13      0.43      0.00
    5    6   14      0.78      0.00
    5    6   15      0.79      0.00
   -5   -7    8      0.11      0.00
   -5   -7    7      0.57      0.00
   -5   -7    6      0.93      0.00
   -5   -7    5      1.10      0.00
   -5   -7    4      1.21      0.00
   -5   -7    3      0.80      0.00
   -5   -7    2     -0.40      0.00
   -5   -7    1     -1.18      0.00
    5    7    0     -0.40      0.00
    5    7    1      0.97      0.00
    5    7    2      0.95      0.00
    5    7    3     -1.08      0.00
    5    7    4     -3.52      0.00
    5    7    5     -3.74      0.00
    5    7    6     -1.38      0.00
    5    7    7      0.80      0.00
    5    7    8      0.80      0.00
    5    7    9     -0.26      0.00
    5    7   10     -0.91      0.00
    5    7   11     -1.07      0.00
    5    7   12     -0.82      0.00
    5    7   13     -0.19      0.00
    5    7   14      0.35      0.00
   -5   -8    7      0.45      0.00
   -5   -8    6      0.84      0.00
   -5   -8    5      1.05      0.00
   -5   -8    4      1.09      0.00
   -5   -8    3      0.66      0.00
   -5   -8    2     -0.63      0.00
   -5   -8    1     -1.72      0.00
    5    8    0     -1.01      0.00
    5    8    1      0.83      0.00
    5    8    2      1.43      0.00
    5    8    3     -0.23      0.00
    5    8    4     -2.71      0.00
    5    8    5     -3.47      0.00
    5    8    6     -1.72      0.00
    5    8    7      0.41      0.00
    5    8    8      0.84      0.00
    5    8    9      0.15      0.00
    5    8   10     -0.47      0.00
    5    8   11     -0.88      0.00
    5    8   12     -0.88      0.00
    5    8   13     -0.21      0.00
   -5   -9    6      0.54      0.00
   -5   -9    5      0.68      0.00
   -5   -9    4      0.73      0.00
   -5   -9    3      0.44      0.00
   -5   -9    2     -0.68      0.00
   -5   -9    1     -1.85      0.00
    5    9    0     -1.29      0.00
    5    9    1      0.75      0.00
    5    9    2      1.66      0.00
    5    9    3      0.19      0.00
    5    9    4     -2.11      0.00
    5    9    5     -2.87      0.00
    5    9    6     -1.43      0.00
    5    9    7      0.44      0.00
    5    9    8      0.91      0.00
    5    9    9      0.47      0.00
    5    9   10      0.11      0.00
    5    9   11     -0.31      0.00
    5    9   12     -0.57      0.00
   -5  -10    4      0.41      0.00
   -5  -10    3      0.48      0.00
   -5  -10    2     -0.25      0.00
   -5  -10    1     -1.40      0.00
    5   10    0     -1.16      0.00
    5   10    1      0.73      0.00
    5   10    2      1.81      0.00
    5   10    3      0.59      0.00
    5   10    4     -1.43      0.00
    5   10    5     -2.02      0.00
    5   10    6     -0.84      0.00
    5   10    7      0.49      0.00
    5   10    8      0.59      0.00
    5   10    9      0.10      0.00
    5   10   10      0.06      0.00
    5   10   11     -0.03      0.00
    5   10   12     -0.37      0.00
   -5  -11    4      0.22      0.00
   -5  -11    3      0.54      0.00
   -5  -11    2      0.22      0.00
   -5  -11    1     -0.79      0.00
    5   11    0     -0.96      0.00
    5   11    1      0.44      0.00
    5   11    2      1.52      0.00
    5   11    3      0.74      0.00
    5   11    4     -0.77      0.00
    5   11    5     -1.19      0.00
    5   11    6     -0.40      0.00
    5   11    7      0.30      0.00
    5   11    8      0.01      0.00
    5   11    9     -0.52      0.00
    5   11   10     -0.29      0.00
    5   11   12     -0.20      0.00
   -5  -12    2      0.23      0.00
   -5  -12    1     -0.51      0.00
    5   12    0     -0.90      0.00
    5   12    1     -0.14      0.00
    5   12    2      0.66      0.00
    5   12    3      0.29      0.00
    5   12    4     -0.49      0.00
    5   12    5     -0.55      0.00
    5   12    6     -0.07      0.00
    5   12    7      0.11      0.00
    5   12    8     -0.35      0.00
    5   12    9     -0.74      0.00
    5   13    2     -0.07      0.00
    5   13    3     -0.31      0.00
    5   13    4     -0.50      0.00
    5   13    5     -0.11      0.00
    5   13    6      0.31      0.00
    5   13    7      0.20      0.00
    5   13    8     -0.31      0.00
    5   14    3     -0.47      0.00
    5   14    4     -0.48      0.00
    5   14    5      0.10      0.00
    5   14    6      0.54      0.00
    6  -11    1     -0.41      0.00
   -6   10    1      0.22      0.00
   -6   10    0      0.31      0.00
    6  -10    1     -0.27      0.00
    6  -10    2     -0.68      0.00
   -6    9    3      0.04      0.00
   -6    9    2      0.42      0.00
   -6    9    1      0.89      0.00
   -6    9    0      0.92      0.00
    6   -9    1      0.08      0.00
    6   -9    2     -0.67      0.00
    6   -9    3     -0.44      0.00
    6   -9    4      0.10      0.00
    6   -9    5      0.37      0.00
    6   -9    6      0.75      0.00
    6   -9    7      1.00      0.00
   -6    8    4     -0.35      0.00
   -6    8    3      0.34      0.00
   -6    8    2      1.14      0.00
   -6    8    1      1.57      0.00
   -6    8    0      1.28      0.00
    6   -8    1      0.16      0.00
    6   -8    2     -0.82      0.00
    6   -8    3     -0.59      0.00
    6   -8    4      0.12      0.00
    6   -8    5      0.43      0.00
    6   -8    6      0.78      0.00
    6   -8    7      1.24      0.00
    6   -8    8      1.05      0.00
   -6    7    5     -0.47      0.00
   -6    7    4     -0.75      0.00
   -6    7    3      0.00      0.00
   -6    7    2      1.23      0.00
   -6    7    1      1.78      0.00
   -6    7    0      1.26      0.00
    6   -7    1     -0.03      0.00
    6   -7    2     -1.11      0.00
    6   -7    3     -0.99      0.00
    6   -7    4     -0.23      0.00
    6   -7    5      0.14      0.00
    6   -7    6      0.48      0.00
    6   -7    7      1.08      0.00
    6   -7    8      1.20      0.00
    6   -7    9      0.74      0.00
   -6    6    6      0.48      0.00
   -6    6    5     -0.26      0.00
   -6    6    4     -1.13      0.00
   -6    6    3     -0.81      0.00
   -6    6    2      0.57      0.00
   -6    6    1      1.46      0.00
   -6    6    0      1.10      0.00
    6   -6    1     -0.05      0.00
    6   -6    2     -1.11      0.00
    6   -6    3     -1.27      0.00
    6   -6    4     -0.74      0.00
    6   -6    5     -0.31      0.00
    6   -6    6      0.12      0.00
    6   -6    7      0.79      0.00
    6   -6    8      1.11      0.00
    6   -6    9      0.86      0.00
    6   -6   10      0.61      0.00
   -6    5    7      1.28      0.00
   -6    5    6      1.19      0.00
   -6    5    5      0.21      0.00
   -6    5    4     -1.27      0.00
   -6    5    3     -1.63      0.00
   -6    5    2     -0.36      0.00
   -6    5    1      0.93      0.00
   -6    5    0      1.01      0.00
    6   -5    1      0.25      0.00
    6   -5    2     -0.61      0.00
    6   -5    3     -1.07      0.00
    6   -5    4     -0.99      0.00
    6   -5    5     -0.67      0.00
    6   -5    6     -0.18      0.00
    6   -5    7      0.53      0.00
    6   -5    8      0.94      0.00
    6   -5    9      0.83      0.00
    6   -5   10      0.66      0.00
    6   -5   11      0.55      0.00
   -6    4    8      1.08      0.00
   -6    4    7      1.73      0.00
   -6    4    6      1.67      0.00
   -6    4    5      0.50      0.00
   -6    4    4     -1.39      0.00
   -6    4    3     -2.27      0.00
   -6    4    2     -1.15      0.00
   -6    4    1      0.46      0.00
   -6    4    0      0.91      0.00
    6   -4    1      0.46      0.00
    6   -4    2     -0.09      0.00
    6   -4    3     -0.57      0.00
    6   -4    4     -0.86      0.00
    6   -4    5     -0.85      0.00
    6   -4    6     -0.51      0.00
    6   -4    7      0.15      0.00
    6   -4    8      0.70      0.00
    6   -4    9      0.72      0.00
    6   -4   10      0.46      0.00
    6   -4   11      0.19      0.00
   -6    3    8      0.82      0.00
   -6    3    7      1.56      0.00
   -6    3    6      1.65      0.00
   -6    3    5      0.47      0.00
   -6    3    4     -1.56      0.00
   -6    3    3     -2.71      0.00
   -6    3    2     -1.80      0.00
   -6    3    1     -0.12      0.00
   -6    3    0      0.46      0.00
    6   -3    1      0.10      0.00
    6   -3    2     -0.18      0.00
    6   -3    3     -0.37      0.00
    6   -3    4     -0.66      0.00
    6   -3    5     -0.89      0.00
    6   -3    6     -0.87      0.00
    6   -3    7     -0.38      0.00
    6   -3    8      0.43      0.00
    6   -3    9      0.81      0.00
    6   -3   10      0.39      0.00
    6   -3   11     -0.37      0.00
    6   -3   12     -0.77      0.00
   -6    2    9      0.24      0.00
   -6    2    8      0.43      0.00
   -6    2    7      1.11      0.00
   -6    2    6      1.48      0.00
   -6    2    5      0.51      0.00
   -6    2    4     -1.51      0.00
   -6    2    3     -2.91      0.00
   -6    2    2     -2.46      0.00
   -6    2    1     -1.11      0.00
   -6    2    0     -0.57      0.00
    6   -2    1     -0.83      0.00
    6   -2    2     -0.79      0.00
    6   -2    3     -0.51      0.00
    6   -2    4     -0.53      0.00
    6   -2    5     -0.80      0.00
    6   -2    6     -1.03      0.00
    6   -2    7     -0.77      0.00
    6   -2    8      0.28      0.00
    6   -2    9      1.18      0.00
    6   -2   10      0.74      0.00
    6   -2   11     -0.64      0.00
    6   -2   12     -1.48      0.00
   -6    1    9      0.25      0.00
   -6    1    8      0.12      0.00
   -6    1    7      0.74      0.00
   -6    1    6      1.43      0.00
   -6    1    5      0.76      0.00
   -6    1    4     -1.21      0.00
   -6    1    3     -2.91      0.00
   -6    1    2     -3.10      0.00
   -6    1    1     -2.30      0.00
   -6    1    0     -1.81      0.00
    6   -1    1     -1.69      0.00
    6   -1    2     -1.14      0.00
    6   -1    3     -0.40      0.00
    6   -1    4     -0.20      0.00
    6   -1    5     -0.47      0.00
    6   -1    6     -0.84      0.00
    6   -1    7     -0.81      0.00
    6   -1    8      0.26      0.00
    6   -1    9      1.52      0.00
    6   -1   10      1.18      0.00
    6   -1   11     -0.67      0.00
    6   -1   12     -2.00      0.00
    6   -1   13     -1.63      0.00
   -6    0    9      0.04      0.00
   -6    0    8     -0.25      0.00
   -6    0    7      0.29      0.00
   -6    0    6      1.20      0.00
   -6    0    5      0.84      0.00
   -6    0    4     -1.05      0.00
   -6    0    3     -2.90      0.00
   -6    0    2     -3.48      0.00
   -6    0    1     -3.04      0.00
    6    0    0     -2.47      0.00
    6    0    1     -1.88      0.00
    6    0    2     -0.81      0.00
    6    0    3      0.32      0.00
    6    0    4      0.60      0.00
    6    0    5      0.12      0.00
    6    0    6     -0.49      0.00
    6    0    7     -0.67      0.00
    6    0    8      0.25      0.00
    6    0    9      1.64      0.00
    6    0   10      1.44      0.00
    6    0   11     -0.63      0.00
    6    0   12     -2.31      0.00
    6    0   13     -2.05      0.00
   -6   -1    8     -0.52      0.00
   -6   -1    7     -0.33      0.00
   -6   -1    6      0.51      0.00
   -6   -1    5      0.43      0.00
   -6   -1    4     -1.18      0.00
   -6   -1    3     -2.88      0.00
   -6   -1    2     -3.43      0.00
   -6   -1    1     -3.00      0.00
    6    1    0     -2.30      0.00
    6    1    1     -1.52      0.00
    6    1    2     -0.27      0.00
    6    1    3      1.14      0.00
    6    1    4      1.59      0.00
    6    1    5      0.87      0.00
    6    1    6     -0.17      0.00
    6    1    7     -0.64      0.00
    6    1    8      0.17      0.00
    6    1    9      1.72      0.00
    6    1   10      1.85      0.00
    6    1   11     -0.14      0.00
    6    1   12     -2.04      0.00
    6    1   13     -1.99      0.00
   -6   -2    8     -0.37      0.00
   -6   -2    7     -0.75      0.00
   -6   -2    6     -0.32      0.00
   -6   -2    5     -0.15      0.00
   -6   -2    4     -1.20      0.00
   -6   -2    3     -2.51      0.00
   -6   -2    2     -2.88      0.00
   -6   -2    1     -2.41      0.00
    6    2    0     -1.75      0.00
    6    2    1     -1.11      0.00
    6    2    2     -0.04      0.00
    6    2    3      1.54      0.00
    6    2    4      2.43      0.00
    6    2    5      1.73      0.00
    6    2    6      0.18      0.00
    6    2    7     -0.76      0.00
    6    2    8     -0.11      0.00
    6    2    9      1.64      0.00
    6    2   10      2.34      0.00
    6    2   11      0.85      0.00
    6    2   12     -1.07      0.00
    6    2   13     -1.40      0.00
   -6   -3    9      0.52      0.00
   -6   -3    8      0.06      0.00
   -6   -3    7     -0.72      0.00
   -6   -3    6     -0.75      0.00
   -6   -3    5     -0.40      0.00
   -6   -3    4     -0.81      0.00
   -6   -3    3     -1.65      0.00
   -6   -3    2     -1.90      0.00
   -6   -3    1     -1.52      0.00
    6    3    0     -1.08      0.00
    6    3    1     -0.75      0.00
    6    3    2      0.04      0.00
    6    3    3      1.69      0.00
    6    3    4      3.11      0.00
    6    3    5      2.67      0.00
    6    3    6      0.68      0.00
    6    3    7     -0.89      0.00
    6    3    8     -0.64      0.00
    6    3    9      1.00      0.00
    6    3   10      2.14      0.00
    6    3   11      1.48      0.00
    6    3   12     -0.02      0.00
    6    3   13     -0.68      0.00
    6    3   14     -0.33      0.00
   -6   -4    7     -0.47      0.00
   -6   -4    6     -0.67      0.00
   -6   -4    5     -0.25      0.00
   -6   -4    4     -0.25      0.00
   -6   -4    3     -0.74      0.00
   -6   -4    2     -0.83      0.00
   -6   -4    1     -0.46      0.00
    6    4    0     -0.24      0.00
    6    4    1     -0.24      0.00
    6    4    2      0.23      0.00
    6    4    3      1.80      0.00
    6    4    4      3.53      0.00
    6    4    5      3.40      0.00
    6    4    6      1.19      0.00
    6    4    7     -0.89      0.00
    6    4    8     -1.13      0.00
    6    4    9      0.05      0.00
    6    4   10      1.13      0.00
    6    4   11      1.23      0.00
    6    4   12      0.60      0.00
    6    4   13     -0.03      0.00
    6    4   14     -0.29      0.00
   -6   -5    6     -0.38      0.00
   -6   -5    5     -0.05      0.00
   -6   -5    4     -0.03      0.00
   -6   -5    3     -0.39      0.00
   -6   -5    2     -0.22      0.00
   -6   -5    1      0.47      0.00
    6    5    0      0.67      0.00
    6    5    1      0.25      0.00
    6    5    2      0.22      0.00
    6    5    3      1.47      0.00
    6    5    4      3.30      0.00
    6    5    5      3.58      0.00
    6    5    6      1.59      0.00
    6    5    7     -0.61      0.00
    6    5    8     -1.12      0.00
    6    5    9     -0.37      0.00
    6    5   10      0.41      0.00
    6    5   11      0.87      0.00
    6    5   12      1.02      0.00
    6    5   13      0.67      0.00
    6    5   14     -0.03      0.00
    6    5   15     -0.46      0.00
   -6   -6    6     -0.13      0.00
   -6   -6    5     -0.01      0.00
   -6   -6    4     -0.19      0.00
   -6   -6    3     -0.55      0.00
   -6   -6    2     -0.09      0.00
   -6   -6    1      1.06      0.00
    6    6    0      1.36      0.00
    6    6    1      0.45      0.00
    6    6    2     -0.26      0.00
    6    6    3      0.57      0.00
    6    6    4      2.46      0.00
    6    6    5      3.35      0.00
    6    6    6      2.01      0.00
    6    6    7     -0.05      0.00
    6    6    8     -0.75      0.00
    6    6    9     -0.21      0.00
    6    6   10      0.42      0.00
    6    6   11      1.00      0.00
    6    6   12      1.49      0.00
    6    6   13      1.24      0.00
    6    6   14      0.30      0.00
    6    6   15     -0.43      0.00
   -6   -7    6      0.03      0.00
   -6   -7    5      0.00      0.00
   -6   -7    4     -0.30      0.00
   -6   -7    3     -0.62      0.00
   -6   -7    2      0.07      0.00
   -6   -7    1      1.52      0.00
    6    7    0      1.82      0.00
    6    7    1      0.44      0.00
    6    7    2     -0.82      0.00
    6    7    3     -0.31      0.00
    6    7    4      1.64      0.00
    6    7    5      3.08      0.00
    6    7    6      2.44      0.00
    6    7    7      0.51      0.00
    6    7    8     -0.59      0.00
    6    7    9     -0.36      0.00
    6    7   10      0.30      0.00
    6    7   11      1.05      0.00
    6    7   12      1.61      0.00
    6    7   13      1.28      0.00
    6    7   14      0.24      0.00
   -6   -8    6      0.16      0.00
   -6   -8    5      0.16      0.00
   -6   -8    4     -0.14      0.00
   -6   -8    3     -0.41      0.00
   -6   -8    2      0.35      0.00
   -6   -8    1      1.83      0.00
    6    8    0      2.04      0.00
    6    8    1      0.36      0.00
    6    8    2     -1.16      0.00
    6    8    3     -0.75      0.00
    6    8    4      1.15      0.00
    6    8    5      2.75      0.00
    6    8    6      2.54      0.00
    6    8    7      0.76      0.00
    6    8    8     -0.76      0.00
    6    8    9     -0.96      0.00
    6    8   10     -0.35      0.00
    6    8   11      0.54      0.00
    6    8   12      1.22      0.00
    6    8   13      0.91      0.00
   -6   -9    4      0.07      0.00
   -6   -9    3     -0.37      0.00
   -6   -9    2      0.17      0.00
   -6   -9    1      1.50      0.00
    6    9    0      1.72      0.00
    6    9    1      0.10      0.00
    6    9    2     -1.39      0.00
    6    9    3     -0.96      0.00
    6    9    4      0.74      0.00
    6    9    5      2.13      0.00
    6    9    6      2.11      0.00
    6    9    7      0.70      0.00
    6    9    8     -0.77      0.00
    6    9    9     -1.20      0.00
    6    9   10     -0.79      0.00
    6    9   11     -0.01      0.00
    6    9   12      0.70      0.00
   -6  -10    4      0.13      0.00
   -6  -10    3     -0.61      0.00
   -6  -10    2     -0.54      0.00
   -6  -10    1      0.52      0.00
    6   10    0      0.95      0.00
    6   10    1     -0.18      0.00
    6   10    2     -1.36      0.00
    6   10    3     -1.01      0.00
    6   10    4      0.30      0.00
    6   10    5      1.34      0.00
    6   10    6      1.49      0.00
    6   10    7      0.68      0.00
    6   10    8     -0.33      0.00
    6   10    9     -0.69      0.00
    6   10   10     -0.51      0.00
    6   10   11     -0.13      0.00
   -6  -11    3     -0.67      0.00
   -6  -11    2     -0.99      0.00
   -6  -11    1     -0.29      0.00
    6   11    0      0.36      0.00
    6   11    1     -0.04      0.00
    6   11    2     -0.69      0.00
    6   11    3     -0.52      0.00
    6   11    4      0.16      0.00
    6   11    5      0.71      0.00
    6   11    6      1.01      0.00
    6   11    7      0.82      0.00
    6   11    8      0.25      0.00
    6   11    9     -0.04      0.00
    6   11   10     -0.05      0.00
   -6  -12    1     -0.42      0.00
    6   12    0      0.18      0.00
    6   12    1      0.36      0.00
    6   12    2      0.30      0.00
    6   12    3      0.39      0.00
    6   12    4      0.38      0.00
    6   12    5      0.29      0.00
    6   12    6      0.56      0.00
    6   12    7      0.80      0.00
    6   12    8      0.54      0.00
    6   12    9      0.23      0.00
    6   13    2      0.75      0.00
    6   13    3      0.95      0.00
    6   13    4      0.54      0.00
    6   13    5     -0.07      0.00
    6   13    6      0.01      0.00
    6   13    7      0.45      0.00
    6   14    3      0.80      0.00
    6   14    4      0.42      0.00
    6   14    5     -0.29      0.00
    7  -10    2      0.80      0.00
   -7    9    1     -0.71      0.00
   -7    9    0     -0.72      0.00
    7   -9    1     -0.14      0.00
    7   -9    2      0.59      0.00
    7   -9    3      0.49      0.00
   -7    8    2     -0.91      0.00
   -7    8    1     -1.24      0.00
   -7    8    0     -0.94      0.00
    7   -8    1     -0.20      0.00
    7   -8    2      0.56      0.00
    7   -8    3      0.53      0.00
    7   -8    4     -0.16      0.00
    7   -8    5     -0.44      0.00
    7   -8    6     -0.31      0.00
    7   -8    7     -0.57      0.00
    7   -8    8     -0.89      0.00
   -7    7    3      0.20      0.00
   -7    7    2     -0.75      0.00
   -7    7    1     -1.20      0.00
   -7    7    0     -0.69      0.00
    7   -7    1      0.19      0.00
    7   -7    2      0.88      0.00
    7   -7    3      0.88      0.00
    7   -7    4      0.23      0.00
    7   -7    5     -0.19      0.00
    7   -7    6     -0.19      0.00
    7   -7    7     -0.44      0.00
    7   -7    8     -0.84      0.00
    7   -7    9     -0.71      0.00
   -7    6    4      0.65      0.00
   -7    6    3      0.89      0.00
   -7    6    2      0.16      0.00
   -7    6    1     -0.51      0.00
   -7    6    0     -0.27      0.00
    7   -6    1      0.44      0.00
    7   -6    2      1.04      0.00
    7   -6    3      1.21      0.00
    7   -6    4      0.79      0.00
    7   -6    5      0.20      0.00
    7   -6    6     -0.12      0.00
    7   -6    7     -0.41      0.00
    7   -6    8     -0.73      0.00
    7   -6    9     -0.74      0.00
    7   -6   10     -0.50      0.00
   -7    5    5     -0.35      0.00
   -7    5    4      0.77      0.00
   -7    5    3      1.61      0.00
   -7    5    2      1.23      0.00
   -7    5    1      0.25      0.00
   -7    5    0     -0.12      0.00
    7   -5    1      0.16      0.00
    7   -5    2      0.65      0.00
    7   -5    3      1.09      0.00
    7   -5    4      1.09      0.00
    7   -5    5      0.51      0.00
    7   -5    6     -0.18      0.00
    7   -5    7     -0.63      0.00
    7   -5    8     -0.81      0.00
    7   -5    9     -0.81      0.00
    7   -5   10     -0.75      0.00
   -7    4    6     -1.06      0.00
   -7    4    5     -0.31      0.00
   -7    4    4      1.05      0.00
   -7    4    3      2.13      0.00
   -7    4    2      1.92      0.00
   -7    4    1      0.70      0.00
   -7    4    0     -0.20      0.00
    7   -4    1     -0.25      0.00
    7   -4    2      0.19      0.00
    7   -4    3      0.79      0.00
    7   -4    4      1.08      0.00
    7   -4    5      0.63      0.00
    7   -4    6     -0.21      0.00
    7   -4    7     -0.78      0.00
    7   -4    8     -0.93      0.00
    7   -4    9     -0.89      0.00
    7   -4   10     -0.83      0.00
    7   -4   11     -0.65      0.00
   -7    3    6     -0.92      0.00
   -7    3    5     -0.12      0.00
   -7    3    4      1.32      0.00
   -7    3    3      2.41      0.00
   -7    3    2      2.30      0.00
   -7    3    1      1.13      0.00
   -7    3    0      0.07      0.00
    7   -3    1     -0.13      0.00
    7   -3    2      0.29      0.00
    7   -3    3      0.83      0.00
    7   -3    4      1.06      0.00
    7   -3    5      0.64      0.00
    7   -3    6     -0.11      0.00
    7   -3    7     -0.61      0.00
    7   -3    8     -0.82      0.00
    7   -3    9     -0.98      0.00
    7   -3   10     -0.92      0.00
    7   -3   11     -0.46      0.00
    7   -3   12      0.12      0.00
   -7    2    7     -0.42      0.00
   -7    2    6     -0.87      0.00
   -7    2    5     -0.25      0.00
   -7    2    4      1.21      0.00
   -7    2    3      2.44      0.00
   -7    2    2      2.70      0.00
   -7    2    1      1.98      0.00
   -7    2    0      0.97      0.00
    7   -2    1      0.47      0.00
    7   -2    2      0.62      0.00
    7   -2    3      0.96      0.00
    7   -2    4      0.96      0.00
    7   -2    5      0.46      0.00
    7   -2    6     -0.13      0.00
    7   -2    7     -0.36      0.00
    7   -2    8     -0.55      0.00
    7   -2    9     -1.00      0.00
    7   -2   10     -1.09      0.00
    7   -2   11     -0.29      0.00
    7   -2   12      0.67      0.00
   -7    1    8      0.26      0.00
   -7    1    7     -0.29      0.00
   -7    1    6     -1.04      0.00
   -7    1    5     -0.74      0.00
   -7    1    4      0.73      0.00
   -7    1    3      2.28      0.00
   -7    1    2      3.10      0.00
   -7    1    1      2.92      0.00
   -7    1    0      1.87      0.00
    7   -1    1      0.75      0.00
    7   -1    2      0.34      0.00
    7   -1    3      0.47      0.00
    7   -1    4      0.44      0.00
    7   -1    5     -0.04      0.00
    7   -1    6     -0.48      0.00
    7   -1    7     -0.40      0.00
    7   -1    8     -0.33      0.00
    7   -1    9     -0.84      0.00
    7   -1   10     -1.03      0.00
    7   -1   11      0.03      0.00
    7   -1   12      1.38      0.00
   -7    0    8      0.52      0.00
   -7    0    7     -0.05      0.00
   -7    0    6     -1.01      0.00
   -7    0    5     -1.07      0.00
   -7    0    4      0.28      0.00
   -7    0    3      2.07      0.00
   -7    0    2      3.22      0.00
   -7    0    1      3.25      0.00
    7    0    0      2.02      0.00
    7    0    1      0.32      0.00
    7    0    2     -0.57      0.00
    7    0    3     -0.48      0.00
    7    0    4     -0.34      0.00
    7    0    5     -0.69      0.00
    7    0    6     -1.02      0.00
    7    0    7     -0.73      0.00
    7    0    8     -0.34      0.00
    7    0    9     -0.62      0.00
    7    0   10     -0.78      0.00
    7    0   11      0.38      0.00
    7    0   12      1.97      0.00
    7    0   13      2.19      0.00
   -7   -1    8      0.69      0.00
   -7   -1    7      0.33      0.00
   -7   -1    6     -0.49      0.00
   -7   -1    5     -0.85      0.00
   -7   -1    4      0.12      0.00
   -7   -1    3      1.80      0.00
   -7   -1    2      2.95      0.00
   -7   -1    1      2.87      0.00
    7    1    0      1.51      0.00
    7    1    1     -0.28      0.00
    7    1    2     -1.15      0.00
    7    1    3     -0.98      0.00
    7    1    4     -0.85      0.00
    7    1    5     -1.23      0.00
    7    1    6     -1.51      0.00
    7    1    7     -1.09      0.00
    7    1    8     -0.47      0.00
    7    1    9     -0.56      0.00
    7    1   10     -0.77      0.00
    7    1   11      0.18      0.00
    7    1   12      1.75      0.00
    7    1   13      2.13      0.00
   -7   -2    8      0.41      0.00
   -7   -2    7      0.47      0.00
   -7   -2    6      0.18      0.00
   -7   -2    5     -0.32      0.00
   -7   -2    4      0.00      0.00
   -7   -2    3      1.26      0.00
   -7   -2    2      2.29      0.00
   -7   -2    1      2.17      0.00
    7    2    0      0.97      0.00
    7    2    1     -0.45      0.00
    7    2    2     -1.02      0.00
    7    2    3     -0.88      0.00
    7    2    4     -1.10      0.00
    7    2    5     -1.78      0.00
    7    2    6     -1.97      0.00
    7    2    7     -1.25      0.00
    7    2    8     -0.41      0.00
    7    2    9     -0.41      0.00
    7    2   10     -0.89      0.00
    7    2   11     -0.52      0.00
    7    2   12      0.66      0.00
    7    2   13      1.20      0.00
   -7   -3    8     -0.08      0.00
   -7   -3    7      0.25      0.00
   -7   -3    6      0.50      0.00
   -7   -3    5      0.02      0.00
   -7   -3    4     -0.33      0.00
   -7   -3    3      0.37      0.00
   -7   -3    2      1.32      0.00
   -7   -3    1      1.37      0.00
    7    3    0      0.54      0.00
    7    3    1     -0.38      0.00
    7    3    2     -0.71      0.00
    7    3    3     -0.83      0.00
    7    3    4     -1.54      0.00
    7    3    5     -2.48      0.00
    7    3    6     -2.42      0.00
    7    3    7     -1.22      0.00
    7    3    8     -0.03      0.00
    7    3    9      0.11      0.00
    7    3   10     -0.57      0.00
    7    3   11     -0.94      0.00
    7    3   12     -0.47      0.00
    7    3   13      0.08      0.00
    7    3   14      0.10      0.00
   -7   -4    7     -0.04      0.00
   -7   -4    6      0.37      0.00
   -7   -4    5     -0.03      0.00
   -7   -4    4     -0.73      0.00
   -7   -4    3     -0.45      0.00
   -7   -4    2      0.36      0.00
   -7   -4    1      0.50      0.00
    7    4    0     -0.01      0.00
    7    4    1     -0.46      0.00
    7    4    2     -0.61      0.00
    7    4    3     -0.96      0.00
    7    4    4     -1.96      0.00
    7    4    5     -2.95      0.00
    7    4    6     -2.64      0.00
    7    4    7     -1.09      0.00
    7    4    8      0.31      0.00
    7    4    9      0.62      0.00
    7    4   10     -0.02      0.00
    7    4   11     -0.80      0.00
    7    4   12     -1.07      0.00
    7    4   13     -0.75      0.00
    7    4   14     -0.26      0.00
   -7   -5    6      0.10      0.00
   -7   -5    5     -0.18      0.00
   -7   -5    4     -0.85      0.00
   -7   -5    3     -0.73      0.00
   -7   -5    2     -0.16      0.00
   -7   -5    1     -0.24      0.00
    7    5    0     -0.67      0.00
    7    5    1     -0.67      0.00
    7    5    2     -0.45      0.00
    7    5    3     -0.75      0.00
    7    5    4     -1.77      0.00
    7    5    5     -2.73      0.00
    7    5    6     -2.47      0.00
    7    5    7     -1.02      0.00
    7    5    8      0.29      0.00
    7    5    9      0.58      0.00
    7    5   10      0.08      0.00
    7    5   11     -0.72      0.00
    7    5   12     -1.33      0.00
    7    5   13     -1.23      0.00
    7    5   14     -0.53      0.00
    7    5   15      0.10      0.00
   -7   -6    5     -0.23      0.00
   -7   -6    4     -0.64      0.00
   -7   -6    3     -0.51      0.00
   -7   -6    2     -0.25      0.00
   -7   -6    1     -0.75      0.00
    7    6    0     -1.27      0.00
    7    6    1     -0.83      0.00
    7    6    2     -0.10      0.00
    7    6    3     -0.20      0.00
    7    6    4     -1.15      0.00
    7    6    5     -2.15      0.00
    7    6    6     -2.21      0.00
    7    6    7     -1.10      0.00
    7    6    8      0.12      0.00
    7    6    9      0.39      0.00
    7    6   10     -0.12      0.00
    7    6   11     -0.86      0.00
    7    6   12     -1.42      0.00
    7    6   13     -1.32      0.00
    7    6   14     -0.57      0.00
   -7   -7    4     -0.37      0.00
   -7   -7    3     -0.22      0.00
   -7   -7    2     -0.28      0.00
   -7   -7    1     -1.15      0.00
    7    7    0     -1.74      0.00
    7    7    1     -0.94      0.00
    7    7    2      0.18      0.00
    7    7    3      0.17      0.00
    7    7    4     -0.76      0.00
    7    7    5     -1.78      0.00
    7    7    6     -2.11      0.00
    7    7    7     -1.22      0.00
    7    7    8      0.20      0.00
    7    7    9      0.76      0.00
    7    7   10      0.20      0.00
    7    7   11     -0.70      0.00
    7    7   12     -1.24      0.00
    7    7   13     -1.03      0.00
   -7   -8    3      0.03      0.00
   -7   -8    2     -0.16      0.00
   -7   -8    1     -1.25      0.00
    7    8    0     -1.89      0.00
    7    8    1     -0.91      0.00
    7    8    2      0.35      0.00
    7    8    3      0.29      0.00
    7    8    4     -0.65      0.00
    7    8    5     -1.51      0.00
    7    8    6     -1.90      0.00
    7    8    7     -1.19      0.00
    7    8    8      0.46      0.00
    7    8    9      1.47      0.00
    7    8   10      0.98      0.00
    7    8   11     -0.16      0.00
    7    8   12     -0.87      0.00
    7    8   13     -0.72      0.00
   -7   -9    3      0.40      0.00
   -7   -9    2      0.40      0.00
   -7   -9    1     -0.70      0.00
    7    9    0     -1.48      0.00
    7    9    1     -0.65      0.00
    7    9    2      0.53      0.00
    7    9    3      0.44      0.00
    7    9    4     -0.36      0.00
    7    9    5     -0.94      0.00
    7    9    6     -1.31      0.00
    7    9    7     -0.95      0.00
    7    9    8      0.52      0.00
    7    9    9      1.73      0.00
    7    9   10      1.42      0.00
    7    9   11      0.25      0.00
    7    9   12     -0.55      0.00
   -7  -10    3      0.70      0.00
   -7  -10    2      1.07      0.00
   -7  -10    1      0.19      0.00
    7   10    0     -0.80      0.00
    7   10    1     -0.47      0.00
    7   10    2      0.40      0.00
    7   10    3      0.40      0.00
    7   10    4     -0.02      0.00
    7   10    5     -0.23      0.00
    7   10    6     -0.60      0.00
    7   10    7     -0.72      0.00
    7   10    8      0.27      0.00
    7   10    9      1.39      0.00
    7   10   10      1.23      0.00
    7   10   11      0.28      0.00
   -7  -11    3      0.59      0.00
   -7  -11    2      1.14      0.00
   -7  -11    1      0.60      0.00
    7   11    0     -0.41      0.00
    7   11    1     -0.61      0.00
    7   11    2     -0.24      0.00
    7   11    3     -0.15      0.00
    7   11    4     -0.08      0.00
    7   11    5      0.16      0.00
    7   11    6     -0.17      0.00
    7   11    7     -0.66      0.00
    7   11    8     -0.10      0.00
    7   11    9      0.90      0.00
    7   12    0     -0.33      0.00
    7   12    1     -0.75      0.00
    7   12    2     -0.82      0.00
    7   12    3     -0.79      0.00
    7   12    4     -0.36      0.00
    7   12    5      0.28      0.00
    7   12    6      0.10      0.00
    7   12    7     -0.58      0.00
    7   12    8     -0.31      0.00
    7   13    2     -0.70      0.00
    7   13    3     -0.83      0.00
    7   13    4     -0.36      0.00
    7   13    5      0.42      0.00
    7   13    6      0.39      0.00
    7   13    7     -0.31      0.00
    7   14    5      0.51      0.00
   -8    8    0      0.59      0.00
    8   -8    1      0.18      0.00
    8   -8    2     -0.15      0.00
    8   -8    3     -0.36      0.00
    8   -8    4     -0.22      0.00
   -8    7    1      0.47      0.00
   -8    7    0      0.10      0.00
    8   -7    1     -0.34      0.00
    8   -7    2     -0.51      0.00
    8   -7    3     -0.60      0.00
    8   -7    4     -0.55      0.00
   -8    6    2     -0.71      0.00
   -8    6    1     -0.57      0.00
   -8    6    0     -0.61      0.00
    8   -6    1     -0.72      0.00
    8   -6    2     -0.71      0.00
    8   -6    3     -0.81      0.00
    8   -6    4     -0.92      0.00
    8   -6    5     -0.71      0.00
    8   -6    6     -0.36      0.00
    8   -6    8      0.08      0.00
    8   -6    9      0.12      0.00
   -8    5    3     -1.07      0.00
   -8    5    2     -1.55      0.00
   -8    5    1     -1.37      0.00
   -8    5    0     -0.88      0.00
    8   -5    1     -0.51      0.00
    8   -5    2     -0.42      0.00
    8   -5    3     -0.71      0.00
    8   -5    4     -1.06      0.00
    8   -5    5     -0.85      0.00
    8   -5    6     -0.17      0.00
    8   -5    7      0.33      0.00
    8   -5    8      0.37      0.00
    8   -5    9      0.18      0.00
    8   -5   10      0.07      0.00
   -8    4    4     -0.69      0.00
   -8    4    3     -1.43      0.00
   -8    4    2     -1.82      0.00
   -8    4    1     -1.55      0.00
   -8    4    0     -0.81      0.00
    8   -4    1     -0.20      0.00
    8   -4    2     -0.17      0.00
    8   -4    3     -0.65      0.00
    8   -4    4     -1.06      0.00
    8   -4    5     -0.76      0.00
    8   -4    6      0.12      0.00
    8   -4    7      0.79      0.00
    8   -4    8      0.73      0.00
    8   -4    9      0.29      0.00
    8   -4   10      0.07      0.00
    8   -4   11      0.12      0.00
   -8    3    4     -1.06      0.00
   -8    3    3     -1.66      0.00
   -8    3    2     -1.83      0.00
   -8    3    1     -1.63      0.00
   -8    3    0     -1.03      0.00
    8   -3    1     -0.43      0.00
    8   -3    2     -0.41      0.00
    8   -3    3     -0.88      0.00
    8   -3    4     -1.08      0.00
    8   -3    5     -0.56      0.00
    8   -3    6      0.38      0.00
    8   -3    7      0.99      0.00
    8   -3    8      0.87      0.00
    8   -3    9      0.40      0.00
    8   -3   10      0.18      0.00
    8   -3   11      0.21      0.00
   -8    2    5     -0.06      0.00
   -8    2    4     -1.04      0.00
   -8    2    3     -1.71      0.00
   -8    2    2     -1.96      0.00
   -8    2    1     -2.06      0.00
   -8    2    0     -1.71      0.00
    8   -2    1     -0.91      0.00
    8   -2    2     -0.51      0.00
    8   -2    3     -0.75      0.00
    8   -2    4     -0.79      0.00
    8   -2    5     -0.14      0.00
    8   -2    6      0.71      0.00
    8   -2    7      1.08      0.00
    8   -2    8      0.87      0.00
    8   -2    9      0.53      0.00
    8   -2   10      0.43      0.00
    8   -2   11      0.40      0.00
    8   -2   12      0.12      0.00
   -8    1    6      0.37      0.00
   -8    1    5      0.23      0.00
   -8    1    4     -0.65      0.00
   -8    1    3     -1.53      0.00
   -8    1    2     -2.07      0.00
   -8    1    1     -2.46      0.00
   -8    1    0     -2.17      0.00
    8   -1    1     -0.88      0.00
    8   -1    2      0.20      0.00
    8   -1    3      0.20      0.00
    8   -1    4      0.00      0.00
    8   -1    5      0.48      0.00
    8   -1    6      1.16      0.00
    8   -1    7      1.28      0.00
    8   -1    8      0.90      0.00
    8   -1    9      0.56      0.00
    8   -1   10      0.52      0.00
    8   -1   11      0.36      0.00
    8   -1   12     -0.20      0.00
   -8    0    6      0.23      0.00
   -8    0    5      0.32      0.00
   -8    0    4     -0.27      0.00
   -8    0    3     -1.22      0.00
   -8    0    2     -1.96      0.00
   -8    0    1     -2.35      0.00
    8    0    0     -1.91      0.00
    8    0    1     -0.29      0.00
    8    0    2      1.18      0.00
    8    0    3      1.22      0.00
    8    0    4      0.71      0.00
    8    0    5      0.94      0.00
    8    0    6      1.52      0.00
    8    0    7      1.53      0.00
    8    0    8      0.96      0.00
    8    0    9      0.50      0.00
    8    0   10      0.41      0.00
    8    0   11      0.15      0.00
    8    0   12     -0.63      0.00
   -8   -1    7     -0.22      0.00
   -8   -1    6     -0.21      0.00
   -8   -1    5     -0.06      0.00
   -8   -1    4     -0.18      0.00
   -8   -1    3     -0.89      0.00
   -8   -1    2     -1.65      0.00
   -8   -1    1     -1.92      0.00
    8    1    0     -1.33      0.00
    8    1    1      0.17      0.00
    8    1    2      1.44      0.00
    8    1    3      1.35      0.00
    8    1    4      0.78      0.00
    8    1    5      1.05      0.00
    8    1    6      1.73      0.00
    8    1    7      1.66      0.00
    8    1    8      0.89      0.00
    8    1    9      0.30      0.00
    8    1   10      0.27      0.00
    8    1   11      0.18      0.00
    8    1   12     -0.53      0.00
    8    1   13     -1.21      0.00
   -8   -2    6     -0.67      0.00
   -8   -2    5     -0.65      0.00
   -8   -2    4     -0.20      0.00
   -8   -2    3     -0.42      0.00
   -8   -2    2     -1.20      0.00
   -8   -2    1     -1.52      0.00
    8    2    0     -0.97      0.00
    8    2    1      0.19      0.00
    8    2    2      1.10      0.00
    8    2    3      1.01      0.00
    8    2    4      0.71      0.00
    8    2    5      1.25      0.00
    8    2    6      1.97      0.00
    8    2    7      1.67      0.00
    8    2    8      0.57      0.00
    8    2    9     -0.15      0.00
    8    2   10      0.02      0.00
    8    2   11      0.41      0.00
    8    2   12      0.10      0.00
    8    2   13     -0.60      0.00
   -8   -3    6     -0.79      0.00
   -8   -3    5     -0.93      0.00
   -8   -3    4      0.00      0.00
   -8   -3    3      0.34      0.00
   -8   -3    2     -0.48      0.00
   -8   -3    1     -1.12      0.00
    8    3    0     -0.77      0.00
    8    3    1      0.15      0.00
    8    3    2      0.92      0.00
    8    3    3      1.10      0.00
    8    3    4      1.15      0.00
    8    3    5      1.75      0.00
    8    3    6      2.25      0.00
    8    3    7      1.61      0.00
    8    3    8      0.19      0.00
    8    3    9     -0.70      0.00
    8    3   10     -0.44      0.00
    8    3   11      0.35      0.00
    8    3   12      0.57      0.00
    8    3   13      0.03      0.00
   -8   -4    6     -0.54      0.00
   -8   -4    5     -0.73      0.00
   -8   -4    4      0.42      0.00
   -8   -4    3      1.15      0.00
   -8   -4    2      0.33      0.00
   -8   -4    1     -0.59      0.00
    8    4    0     -0.45      0.00
    8    4    1      0.28      0.00
    8    4    2      0.98      0.00
    8    4    3      1.39      0.00
    8    4    4      1.61      0.00
    8    4    5      1.98      0.00
    8    4    6      2.17      0.00
    8    4    7      1.45      0.00
    8    4    8      0.07      0.00
    8    4    9     -0.85      0.00
    8    4   10     -0.70      0.00
    8    4   11      0.08      0.00
    8    4   12      0.55      0.00
    8    4   13      0.27      0.00
    8    4   14     -0.20      0.00
   -8   -5    5     -0.35      0.00
   -8   -5    4      0.72      0.00
   -8   -5    3      1.52      0.00
   -8   -5    2      0.77      0.00
   -8   -5    1     -0.17      0.00
    8    5    0     -0.08      0.00
    8    5    1      0.42      0.00
    8    5    2      0.80      0.00
    8    5    3      1.13      0.00
    8    5    4      1.34      0.00
    8    5    5      1.47      0.00
    8    5    6      1.57      0.00
    8    5    7      1.17      0.00
    8    5    8      0.23      0.00
    8    5    9     -0.48      0.00
    8    5   10     -0.47      0.00
    8    5   11     -0.03      0.00
    8    5   12      0.27      0.00
    8    5   13      0.13      0.00
    8    5   14     -0.18      0.00
   -8   -6    4      0.63      0.00
   -8   -6    3      1.29      0.00
   -8   -6    2      0.71      0.00
   -8   -6    1      0.00      0.00
    8    6    0      0.19      0.00
    8    6    1      0.47      0.00
    8    6    2      0.40      0.00
    8    6    3      0.50      0.00
    8    6    4      0.70      0.00
    8    6    5      0.79      0.00
    8    6    6      0.97      0.00
    8    6    7      0.96      0.00
    8    6    8      0.37      0.00
    8    6    9     -0.24      0.00
    8    6   10     -0.28      0.00
    8    6   11     -0.07      0.00
    8    6   12     -0.06      0.00
    8    6   13     -0.23      0.00
    8    6   14     -0.32      0.00
   -8   -7    4      0.33      0.00
   -8   -7    3      0.78      0.00
   -8   -7    2      0.36      0.00
   -8   -7    1     -0.01      0.00
    8    7    0      0.37      0.00
    8    7    1      0.53      0.00
    8    7    2      0.15      0.00
    8    7    3      0.12      0.00
    8    7    4      0.43      0.00
    8    7    5      0.56      0.00
    8    7    6      0.74      0.00
    8    7    7      0.87      0.00
    8    7    8      0.28      0.00
    8    7    9     -0.55      0.00
    8    7   10     -0.66      0.00
    8    7   11     -0.33      0.00
    8    7   12     -0.29      0.00
    8    7   13     -0.49      0.00
   -8   -8    3      0.26      0.00
   -8   -8    2     -0.12      0.00
   -8   -8    1     -0.20      0.00
    8    8    0      0.40      0.00
    8    8    1      0.59      0.00
    8    8    2      0.06      0.00
    8    8    3     -0.05      0.00
    8    8    4      0.33      0.00
    8    8    5      0.44      0.00
    8    8    6      0.52      0.00
    8    8    7      0.69      0.00
    8    8    8      0.08      0.00
    8    8    9     -1.02      0.00
    8    8   10     -1.25      0.00
    8    8   11     -0.66      0.00
    8    8   12     -0.30      0.00
   -8   -9    2     -0.66      0.00
   -8   -9    1     -0.61      0.00
    8    9    0      0.25      0.00
    8    9    1      0.64      0.00
    8    9    2      0.07      0.00
    8    9    3     -0.27      0.00
    8    9    4     -0.07      0.00
    8    9    5     -0.10      0.00
    8    9    6     -0.09      0.00
    8    9    7      0.27      0.00
    8    9    8     -0.05      0.00
    8    9    9     -1.13      0.00
    8    9   10     -1.48      0.00
    8    9   11     -0.77      0.00
   -8  -10    1     -0.89      0.00
    8   10    0      0.14      0.00
    8   10    1      0.82      0.00
    8   10    2      0.38      0.00
    8   10    3     -0.24      0.00
    8   10    4     -0.45      0.00
    8   10    5     -0.72      0.00
    8   10    6     -0.73      0.00
    8   10    7     -0.13      0.00
    8   10    8     -0.03      0.00
    8   10    9     -0.87      0.00
    8   10   10     -1.27      0.00
   -8  -11    1     -0.65      0.00
    8   11    0      0.26      0.00
    8   11    1      1.07      0.00
    8   11    2      0.86      0.00
    8   11    3      0.18      0.00
    8   11    4     -0.33      0.00
    8   11    5     -0.82      0.00
    8   11    6     -0.89      0.00
    8   11    7     -0.20      0.00
    8   11    8      0.15      0.00
    8   11    9     -0.49      0.00
    8   12    1      0.98      0.00
    8   12    2      0.91      0.00
    8   12    3      0.42      0.00
    8   12    4     -0.05      0.00
    8   12    5     -0.55      0.00
    8   12    6     -0.69      0.00
    8   12    7     -0.10      0.00
    8   12    8      0.30      0.00
    8   13    3      0.12      0.00
    8   13    5     -0.37      0.00
    8   13    6     -0.51      0.00
    8   13    7     -0.10      0.00
   -9    7    0      0.46      0.00
    9   -7    4      0.65      0.00
   -9    6    0      0.99      0.00
    9   -6    1      0.50      0.00
    9   -6    2      0.18      0.00
    9   -6    3      0.41      0.00
    9   -6    4      0.93      0.00
    9   -6    5      1.01      0.00
   -9    5    1      1.61      0.00
   -9    5    0      1.04      0.00
    9   -5    1      0.04      0.00
    9   -5    2     -0.36      0.00
    9   -5    3      0.18      0.00
    9   -5    4      0.97      0.00
    9   -5    5      1.12      0.00
    9   -5    6      0.55      0.00
   -9    4    2      1.15      0.00
   -9    4    1      1.45      0.00
   -9    4    0      0.83      0.00
    9   -4    1     -0.27      0.00
    9   -4    2     -0.63      0.00
    9   -4    3      0.09      0.00
    9   -4    4      0.89      0.00
    9   -4    5      0.89      0.00
    9   -4    6      0.24      0.00
    9   -4    7     -0.37      0.00
   -9    3    2      1.09      0.00
   -9    3    1      1.30      0.00
   -9    3    0      0.95      0.00
    9   -3    1      0.06      0.00
    9   -3    2     -0.35      0.00
    9   -3    3      0.19      0.00
    9   -3    4      0.70      0.00
    9   -3    5      0.39      0.00
    9   -3    6     -0.31      0.00
    9   -3    7     -0.73      0.00
    9   -3    8     -0.61      0.00
    9   -3    9      0.02      0.00
    9   -3   10      0.62      0.00
    9   -3   11      0.54      0.00
   -9    2    3      0.86      0.00
   -9    2    2      1.14      0.00
   -9    2    1      1.42      0.00
   -9    2    0      1.35      0.00
    9   -2    1      0.54      0.00
    9   -2    2     -0.26      0.00
    9   -2    3     -0.18      0.00
    9   -2    4      0.09      0.00
    9   -2    5     -0.32      0.00
    9   -2    6     -0.95      0.00
    9   -2    7     -1.16      0.00
    9   -2    8     -0.94      0.00
    9   -2    9     -0.37      0.00
    9   -2   10      0.22      0.00
    9   -2   11      0.18      0.00
    9   -2   12     -0.31      0.00
   -9    1    4      0.15      0.00
   -9    1    3      0.52      0.00
   -9    1    2      1.02      0.00
   -9    1    1      1.42      0.00
   -9    1    0      1.43      0.00
    9   -1    1      0.52      0.00
    9   -1    2     -0.76      0.00
    9   -1    3     -1.13      0.00
    9   -1    4     -0.83      0.00
    9   -1    5     -0.93      0.00
    9   -1    6     -1.33      0.00
    9   -1    7     -1.43      0.00
    9   -1    8     -1.27      0.00
    9   -1    9     -0.84      0.00
    9   -1   10     -0.25      0.00
    9   -1   11     -0.06      0.00
    9   -1   12     -0.32      0.00
   -9    0    4     -0.07      0.00
   -9    0    3      0.04      0.00
   -9    0    2      0.64      0.00
   -9    0    1      1.07      0.00
    9    0    0      1.01      0.00
    9    0    1      0.17      0.00
    9    0    2     -1.15      0.00
    9    0    3     -1.69      0.00
    9    0    4     -1.27      0.00
    9    0    5     -1.01      0.00
    9    0    6     -1.19      0.00
    9    0    7     -1.29      0.00
    9    0    8     -1.24      0.00
    9    0    9     -1.00      0.00
    9    0   10     -0.47      0.00
    9    0   11     -0.07      0.00
    9    0   12     -0.07      0.00
   -9   -1    5      0.99      0.00
   -9   -1    4      0.15      0.00
   -9   -1    3     -0.26      0.00
   -9   -1    2      0.27      0.00
   -9   -1    1      0.68      0.00
    9    1    0      0.56      0.00
    9    1    1     -0.01      0.00
    9    1    2     -0.89      0.00
    9    1    3     -1.33      0.00
    9    1    4     -0.99      0.00
    9    1    5     -0.70      0.00
    9    1    6     -0.84      0.00
    9    1    7     -0.89      0.00
    9    1    8     -0.78      0.00
    9    1    9     -0.65      0.00
    9    1   10     -0.37      0.00
    9    1   11     -0.11      0.00
    9    1   12     -0.07      0.00
   -9   -2    5      1.60      0.00
   -9   -2    4      0.55      0.00
   -9   -2    3     -0.45      0.00
   -9   -2    2     -0.10      0.00
   -9   -2    1      0.47      0.00
    9    2    0      0.33      0.00
    9    2    1     -0.09      0.00
    9    2    2     -0.60      0.00
    9    2    3     -0.95      0.00
    9    2    4     -0.82      0.00
    9    2    5     -0.67      0.00
    9    2    6     -0.78      0.00
    9    2    7     -0.66      0.00
    9    2    8     -0.25      0.00
    9    2    9      0.00      0.00
    9    2   10      0.02      0.00
    9    2   11     -0.13      0.00
    9    2   12     -0.33      0.00
    9    2   13     -0.27      0.00
   -9   -3    5      1.72      0.00
   -9   -3    4      0.63      0.00
   -9   -3    3     -0.86      0.00
   -9   -3    2     -0.67      0.00
   -9   -3    1      0.19      0.00
    9    3    0      0.17      0.00
    9    3    1     -0.38      0.00
    9    3    2     -0.87      0.00
    9    3    3     -1.23      0.00
    9    3    4     -1.22      0.00
    9    3    5     -0.99      0.00
    9    3    6     -0.95      0.00
    9    3    7     -0.72      0.00
    9    3    8     -0.09      0.00
    9    3    9      0.41      0.00
    9    3   10      0.42      0.00
    9    3   11      0.02      0.00
    9    3   12     -0.44      0.00
    9    3   13     -0.47      0.00
   -9   -4    4      0.27      0.00
   -9   -4    3     -1.37      0.00
   -9   -4    2     -1.29      0.00
   -9   -4    1     -0.15      0.00
    9    4    0      0.01      0.00
    9    4    1     -0.67      0.00
    9    4    2     -1.22      0.00
    9    4    3     -1.51      0.00
    9    4    4     -1.40      0.00
    9    4    5     -0.97      0.00
    9    4    6     -0.78      0.00
    9    4    7     -0.74      0.00
    9    4    8     -0.32      0.00
    9    4    9      0.27      0.00
    9    4   10      0.50      0.00
    9    4   11      0.26      0.00
    9    4   12     -0.16      0.00
    9    4   13     -0.32      0.00
    9    4   14     -0.11      0.00
   -9   -5    4     -0.09      0.00
   -9   -5    3     -1.51      0.00
   -9   -5    2     -1.43      0.00
   -9   -5    1     -0.16      0.00
    9    5    0      0.12      0.00
    9    5    1     -0.60      0.00
    9    5    2     -1.03      0.00
    9    5    3     -1.04      0.00
    9    5    4     -0.82      0.00
    9    5    5     -0.36      0.00
    9    5    6     -0.24      0.00
    9    5    7     -0.56      0.00
    9    5    8     -0.58      0.00
    9    5    9     -0.08      0.00
    9    5   10      0.37      0.00
    9    5   11      0.49      0.00
    9    5   12      0.36      0.00
    9    5   13      0.16      0.00
   -9   -6    4     -0.14      0.00
   -9   -6    3     -1.15      0.00
   -9   -6    2     -0.99      0.00
   -9   -6    1      0.26      0.00
    9    6    0      0.55      0.00
    9    6    1     -0.21      0.00
    9    6    2     -0.53      0.00
    9    6    3     -0.30      0.00
    9    6    4     -0.11      0.00
    9    6    5      0.08      0.00
    9    6    6      0.03      0.00
    9    6    7     -0.44      0.00
    9    6    8     -0.61      0.00
    9    6    9     -0.10      0.00
    9    6   10      0.49      0.00
    9    6   11      0.79      0.00
    9    6   12      0.88      0.00
    9    6   13      0.70      0.00
   -9   -7    3     -0.64      0.00
   -9   -7    2     -0.37      0.00
   -9   -7    1      0.79      0.00
    9    7    0      1.02      0.00
    9    7    1      0.15      0.00
    9    7    2     -0.24      0.00
    9    7    3      0.04      0.00
    9    7    4      0.09      0.00
    9    7    5     -0.05      0.00
    9    7    6     -0.19      0.00
    9    7    7     -0.50      0.00
    9    7    8     -0.50      0.00
    9    7    9      0.17      0.00
    9    7   10      0.84      0.00
    9    7   11      1.05      0.00
    9    7   12      1.07      0.00
   -9   -8    2      0.07      0.00
   -9   -8    1      1.13      0.00
    9    8    0      1.28      0.00
    9    8    1      0.30      0.00
    9    8    2     -0.21      0.00
    9    8    3      0.13      0.00
    9    8    4      0.19      0.00
    9    8    5     -0.10      0.00
    9    8    6     -0.27      0.00
    9    8    7     -0.44      0.00
    9    8    8     -0.37      0.00
    9    8    9      0.31      0.00
    9    8   10      0.96      0.00
    9    8   11      1.01      0.00
   -9   -9    1      1.22      0.00
    9    9    0      1.25      0.00
    9    9    1      0.16      0.00
    9    9    2     -0.38      0.00
    9    9    3      0.18      0.00
    9    9    4      0.60      0.00
    9    9    5      0.43      0.00
    9    9    6      0.21      0.00
    9    9    7     -0.06      0.00
    9    9    8     -0.24      0.00
    9    9    9      0.16      0.00
    9    9   10      0.73      0.00
    9   10    0      0.92      0.00
    9   10    1     -0.22      0.00
    9   10    2     -0.80      0.00
    9   10    3     -0.03      0.00
    9   10    4      0.84      0.00
    9   10    5      0.97      0.00
    9   10    6      0.75      0.00
    9   10    7      0.32      0.00
    9   10    8     -0.17      0.00
    9   10    9     -0.10      0.00
    9   10   10      0.37      0.00
    9   11    1     -0.52      0.00
    9   11    2     -1.12      0.00
    9   11    3     -0.44      0.00
    9   11    4      0.55      0.00
    9   11    5      0.88      0.00
    9   11    6      0.75      0.00
    9   11    7      0.36      0.00
    9   11    8     -0.21      0.00
    9   11    9     -0.34      0.00
    9   12    6      0.39      0.00
    9   12    7      0.22      0.00
    9   12    8     -0.22      0.00
   10   -5    1      0.37      0.00
   10   -5    4     -0.67      0.00
   10   -5    5     -0.93      0.00
   10   -5    6     -0.44      0.00
  -10    4    0     -0.45      0.00
   10   -4    1      0.67      0.00
   10   -4    2      1.26      0.00
   10   -4    3      0.47      0.00
   10   -4    4     -0.67      0.00
   10   -4    5     -0.88      0.00
   10   -4    6     -0.30      0.00
   10   -4    7      0.22      0.00
  -10    3    1     -0.72      0.00
  -10    3    0     -0.54      0.00
   10   -3    1      0.40      0.00
   10   -3    2      1.06      0.00
   10   -3    3      0.50      0.00
   10   -3    4     -0.44      0.00
   10   -3    5     -0.45      0.00
   10   -3    6      0.20      0.00
   10   -3    7      0.58      0.00
   10   -3    8      0.54      0.00
  -10    2    1     -0.92      0.00
  -10    2    0     -0.77      0.00
   10   -2    1      0.09      0.00
   10   -2    2      0.97      0.00
   10   -2    3      0.88      0.00
   10   -2    4      0.18      0.00
   10   -2    5      0.14      0.00
   10   -2    6      0.71      0.00
   10   -2    7      1.00      0.00
   10   -2    8      0.93      0.00
   10   -2    9      0.65      0.00
  -10    1    3      0.54      0.00
  -10    1    2     -0.31      0.00
  -10    1    1     -0.95      0.00
  -10    1    0     -0.73      0.00
   10   -1    1      0.17      0.00
   10   -1    2      1.20      0.00
   10   -1    3      1.49      0.00
   10   -1    4      0.89      0.00
   10   -1    5      0.48      0.00
   10   -1    6      0.72      0.00
   10   -1    7      1.02      0.00
   10   -1    8      1.16      0.00
   10   -1    9      1.12      0.00
   10   -1   10      0.52      0.00
  -10    0    3      1.02      0.00
  -10    0    2      0.07      0.00
  -10    0    1     -0.73      0.00
   10    0    0     -0.45      0.00
   10    0    1      0.34      0.00
   10    0    2      1.15      0.00
   10    0    3      1.54      0.00
   10    0    4      1.07      0.00
   10    0    5      0.34      0.00
   10    0    6      0.18      0.00
   10    0    7      0.44      0.00
   10    0    8      0.85      0.00
   10    0    9      1.15      0.00
   10    0   10      0.70      0.00
   10    0   11     -0.21      0.00
   10    0   12     -0.43      0.00
  -10   -1    3      1.11      0.00
  -10   -1    2      0.39      0.00
  -10   -1    1     -0.52      0.00
   10    1    0     -0.29      0.00
   10    1    1      0.32      0.00
   10    1    2      0.70      0.00
   10    1    3      0.99      0.00
   10    1    4      0.81      0.00
   10    1    5      0.12      0.00
   10    1    6     -0.30      0.00
   10    1    7     -0.20      0.00
   10    1    8      0.23      0.00
   10    1    9      0.72      0.00
   10    1   10      0.59      0.00
   10    1   11     -0.18      0.00
   10    1   12     -0.50      0.00
  -10   -2    3      0.94      0.00
  -10   -2    2      0.67      0.00
  -10   -2    1     -0.30      0.00
   10    2    0     -0.21      0.00
   10    2    1      0.36      0.00
   10    2    2      0.54      0.00
   10    2    3      0.73      0.00
   10    2    4      0.79      0.00
   10    2    5      0.29      0.00
   10    2    6     -0.21      0.00
   10    2    7     -0.26      0.00
   10    2    8     -0.03      0.00
   10    2    9      0.30      0.00
   10    2   10      0.37      0.00
   10    2   11     -0.02      0.00
   10    2   12     -0.18      0.00
  -10   -3    2      1.12      0.00
  -10   -3    1      0.14      0.00
   10    3    0     -0.02      0.00
   10    3    1      0.63      0.00
   10    3    2      0.93      0.00
   10    3    3      1.03      0.00
   10    3    4      1.07      0.00
   10    3    5      0.60      0.00
   10    3    6      0.10      0.00
   10    3    7      0.15      0.00
   10    3    8      0.34      0.00
   10    3    9      0.37      0.00
   10    3   10      0.30      0.00
   10    3   11      0.14      0.00
   10    3   12      0.16      0.00
   10    3   13      0.45      0.00
  -10   -4    2      1.45      0.00
  -10   -4    1      0.57      0.00
   10    4    0      0.16      0.00
   10    4    1      0.80      0.00
   10    4    2      1.20      0.00
   10    4    3      1.11      0.00
   10    4    4      0.90      0.00
   10    4    5      0.39      0.00
   10    4    6      0.02      0.00
   10    4    7      0.38      0.00
   10    4    8      0.82      0.00
   10    4    9      0.71      0.00
   10    4   10      0.35      0.00
   10    4   11      0.12      0.00
   10    4   12      0.19      0.00
  -10   -5    1      0.49      0.00
   10    5    0     -0.03      0.00
   10    5    1      0.52      0.00
   10    5    2      0.92      0.00
   10    5    3      0.58      0.00
   10    5    4      0.15      0.00
   10    5    5     -0.19      0.00
   10    5    6     -0.29      0.00
   10    5    7      0.25      0.00
   10    5    8      0.84      0.00
   10    5    9      0.69      0.00
   10    5   10      0.14      0.00
   10    5   11     -0.17      0.00
   10    5   12     -0.13      0.00
  -10   -6    1     -0.07      0.00
   10    6    0     -0.61      0.00
   10    6    1     -0.07      0.00
   10    6    2      0.43      0.00
   10    6    3      0.05      0.00
   10    6    4     -0.37      0.00
   10    6    5     -0.35      0.00
   10    6    6     -0.17      0.00
   10    6    7      0.18      0.00
   10    6    8      0.46      0.00
   10    6    9      0.17      0.00
   10    6   10     -0.37      0.00
   10    6   11     -0.59      0.00
  -10   -7    1     -0.61      0.00
   10    7    0     -1.20      0.00
   10    7    1     -0.65      0.00
   10    7    2      0.12      0.00
   10    7    3     -0.04      0.00
   10    7    4     -0.33      0.00
   10    7    5      0.03      0.00
   10    7    6      0.40      0.00
   10    7    7      0.39      0.00
   10    7    8      0.18      0.00
   10    7    9     -0.24      0.00
   10    7   10     -0.65      0.00
   10    8    0     -1.46      0.00
   10    8    1     -0.99      0.00
   10    8    2     -0.02      0.00
   10    8    3      0.02      0.00
   10    8    4     -0.27      0.00
   10    8    5      0.16      0.00
   10    8    6      0.67      0.00
   10    8    7      0.53      0.00
   10    8    8      0.13      0.00
   10    8    9     -0.18      0.00
   10    8   10     -0.38      0.00
   10    9    1     -0.94      0.00
   10    9    2      0.03      0.00
   10    9    3      0.08      0.00
   10    9    4     -0.47      0.00
   10    9    5     -0.28      0.00
   10    9    6      0.31      0.00
   10    9    7      0.34      0.00
   10    9    8      0.10      0.00
   10    9    9      0.07      0.00
   10    9   10      0.07      0.00
   10   10    6     -0.16      0.00
   10   10    7      0.07      0.00
   10   10    8      0.04      0.00
   10   10    9      0.21      0.00
   10   10   10      0.28      0.00
   11   -2    1      0.14      0.00
   11   -2    2     -0.39      0.00
   11   -2    6     -0.24      0.00
   11   -2    7     -0.52      0.00
   11   -2    8     -0.52      0.00
   11   -1    1     -0.14      0.00
   11   -1    2     -0.64      0.00
   11   -1    5      0.02      0.00
   11   -1    6      0.11      0.00
   11   -1    7     -0.19      0.00
   11   -1    8     -0.44      0.00
   11   -1    9     -0.64      0.00
   11    0    1     -0.42      0.00
   11    0    2     -0.73      0.00
   11    0    3     -0.85      0.00
   11    0    4     -0.62      0.00
   11    0    5      0.15      0.00
   11    0    6      0.70      0.00
   11    0    7      0.54      0.00
   11    0    8      0.07      0.00
   11    0    9     -0.41      0.00
   11    0   10     -0.50      0.00
   11    1    1     -0.43      0.00
   11    1    2     -0.58      0.00
   11    1    3     -0.59      0.00
   11    1    4     -0.59      0.00
   11    1    5      0.05      0.00
   11    1    6      0.89      0.00
   11    1    7      1.01      0.00
   11    1    8      0.54      0.00
   11    1    9     -0.05      0.00
   11    1   10     -0.33      0.00
   11    1   11      0.08      0.00
   11    2    1     -0.34      0.00
   11    2    2     -0.60      0.00
   11    2    3     -0.62      0.00
   11    2    4     -0.80      0.00
   11    2    5     -0.39      0.00
   11    2    6      0.48      0.00
   11    2    7      0.75      0.00
   11    2    8      0.38      0.00
   11    2    9     -0.05      0.00
   11    2   10     -0.32      0.00
   11    3    2     -0.83      0.00
   11    3    3     -0.92      0.00
   11    3    4     -1.00      0.00
   11    3    5     -0.65      0.00
   11    3    6      0.07      0.00
   11    3    7      0.16      0.00
   11    3    8     -0.32      0.00
   11    3    9     -0.55      0.00
   11    3   10     -0.52      0.00
   11    4    3     -0.90      0.00
   11    4    4     -0.71      0.00
   11    4    5     -0.32      0.00
   11    4    6      0.17      0.00
   11    4    7     -0.04      0.00
   11    4    8     -0.76      0.00
   11    4    9     -0.92      0.00
   11    5    3     -0.50      0.00
   11    5    4     -0.10      0.00
   11    5    5      0.23      0.00
   11    5    6      0.47      0.00
   11    5    7      0.19      0.00
   11    5    8     -0.46      0.00
   11    6    5      0.34      0.00
   11    6    6      0.34      0.00
   11    6    7      0.30      0.00
   11    6    8      0.10      0.00
    1    0    0    -28.69      0.00
    0    1    0     35.03      0.00
    1    1    0    -21.55      0.00
    5   13    0     -0.71      0.00
   -4  -13    1      1.07      0.00
   -3  -13    1     -0.88      0.00
   -2  -13    1      0.40      0.00
   -1  -13    1      0.17      0.00
    0  -13    1     -0.96      0.00
    1  -13    1      1.08      0.00
    0   -1    1     22.29      0.00
    0    0    1     28.12      0.00
    1    0    1    -25.96      0.00
    0    1    1     26.42      0.00
    1    1    1    -22.16      0.00
   11    3    1     -0.35      0.00
   11    4    1     -0.37      0.00
    5   13    1     -0.40      0.00
    2   14    1      0.08      0.00
   -2  -13    2      0.13      0.00
   -1  -13    2      0.10      0.00
    0  -13    2     -0.58      0.00
   11    4    2     -0.89      0.00
   11    5    2     -0.63      0.00
   11    6    2     -0.29      0.00
    2   14    2     -0.14      0.00
    3   14    2      0.11      0.00
   -4  -12    3     -0.23      0.00
   11   -1    3     -0.89      0.00
   -9    3    3      0.82      0.00
   -8    6    3     -0.58      0.00
   11    6    3     -0.21      0.00
   11    7    3     -0.16      0.00
   -2  -12    4     -0.33      0.00
   -1  -12    4      0.52      0.00
    0  -12    4     -0.19      0.00
    1  -12    4     -0.24      0.00
    5  -10    4      0.29      0.00
   -7   -8    4     -0.24      0.00
   11   -1    4     -0.57      0.00
   -8    5    4     -0.30      0.00
   11    6    4      0.20      0.00
   -7    7    4      0.54      0.00
   11    7    4      0.08      0.00
   -5   10    4      0.51      0.00
   -4   11    4     -0.10      0.00
   -3  -11    5      0.18      0.00
   -5  -10    5      0.22      0.00
   -6   -9    5      0.42      0.00
   -7   -7    5     -0.21      0.00
    8   -7    5     -0.35      0.00
   -8    3    5     -0.16      0.00
   -7    6    5     -0.07      0.00
   11    7    5      0.05      0.00
   -6    8    5     -0.38      0.00
   10   10    5     -0.68      0.00
   -1  -11    6     -0.31      0.00
    0  -11    6      0.40      0.00
    1  -11    6     -0.21      0.00
   -7   -6    6     -0.07      0.00
   -7    5    6     -0.89      0.00
   -6    7    6      0.03      0.00
   11    7    6     -0.14      0.00
   11    8    6     -0.40      0.00
   -4   10    6     -0.58      0.00
   -3   11    6      0.21      0.00
   -2   12    6     -0.46      0.00
   -2  -10    7     -0.21      0.00
   -1  -10    7      0.30      0.00
    0  -10    7     -0.25      0.00
    1  -10    7      0.29      0.00
    2  -10    7     -0.37      0.00
    3  -10    7      0.24      0.00
   -6   -6    7     -0.03      0.00
    8   -6    7     -0.10      0.00
   -6   -5    7     -0.22      0.00
    9   -5    7     -0.07      0.00
   -7    3    7     -0.71      0.00
   -6    6    7      0.56      0.00
   11    7    7      0.02      0.00
   -5    8    7      0.12      0.00
   -4    9    7     -0.36      0.00
   -3   10    7      0.35      0.00
   -2   11    7     -0.47      0.00
   -1   12    7      0.38      0.00
   -2   -9    8     -0.42      0.00
   -1   -9    8      0.90      0.00
    0   -9    8     -1.09      0.00
    1   -9    8      0.92      0.00
    2   -9    8     -0.51      0.00
    3   -9    8      0.22      0.00
    4   -9    8     -0.19      0.00
   -6   -4    8      0.24      0.00
    9   -4    8     -0.41      0.00
   11    7    8      0.29      0.00
   -4    8    8      0.33      0.00
    0   12    8     -0.46      0.00
    2   13    8     -0.41      0.00
    6   13    8      0.46      0.00
   -1   -8    9      0.40      0.00
    0   -8    9     -0.70      0.00
    3   -8    9      0.33      0.00
    4   -8    9     -0.42      0.00
   -5   -4    9     -0.32      0.00
   -5   -3    9     -0.43      0.00
   -5   -2    9     -0.22      0.00
   -5    5    9     -0.16      0.00
   11    5    9     -0.60      0.00
   11    6    9      0.07      0.00
   -4    7    9      0.46      0.00
   -2   10    9      0.31      0.00
    1   12    9      0.13      0.00
    7   12    9      0.56      0.00
   -1   -7   10     -0.24      0.00
    0   -7   10      0.19      0.00
    1   -7   10      0.08      0.00
    2   -7   10     -0.35      0.00
    3   -7   10      0.65      0.00
    4   -7   10     -0.73      0.00
   -3    7   10     -0.25      0.00
   -1   10   10     -0.40      0.00
    7   11   10      0.84      0.00
    8   11   10     -0.87      0.00
    5   12   10     -0.32      0.00
    6   12   10      0.09      0.00
    0   -6   11      0.18      0.00
    1   -6   11     -0.21      0.00
    2   -6   11     -0.16      0.00
    3   -6   11      0.73      0.00
    4   -6   11     -0.86      0.00
   10    7   11     -0.71      0.00
    9    9   11      0.74      0.00
    8   10   11     -0.64      0.00
    5   11   11      0.03      0.00
    6   11   11     -0.06      0.00
    7   11   11      0.12      0.00
    2   -5   12      0.27      0.00
    3   -5   12      0.29      0.00
    0   -4   12      0.19      0.00
    1   -4   12     -0.87      0.00
    4   -4   12     -0.68      0.00
    5   -4   12      0.56      0.00
    8    9   12     -0.15      0.00
    6   10   12      0.34      0.00
    7   10   12     -0.33      0.00
    2   -3   13      0.87      0.00
    3   -3   13     -0.26      0.00
    4   -3   13     -0.24      0.00
    1   -2   13     -0.79      0.00
    2   -2   13      0.72      0.00
    3   -2   13     -0.21      0.00
    4   -2   13     -0.46      0.00
    5   -2   13      0.97      0.00
    6   -2   13     -1.06      0.00
    7   -1   13      1.51      0.00
    5    9   13     -0.11      0.00
    6    9   13      0.59      0.00
    3    0   14     -0.48      0.00
    4    0   14      0.30      0.00
    5    0   14      0.30      0.00
    2    1   14      0.10      0.00
    3    1   14     -0.58      0.00
    4    1   14      0.42      0.00
    5    1   14      0.29      0.00
    6    1   14     -0.74      0.00
    2    2   14     -0.01      0.00
    3    2   14     -0.50      0.00
    4    2   14      0.25      0.00
    5    2   14      0.40      0.00
    6    2   14     -0.47      0.00
    7    2   14      0.61      0.00
    2    3   14     -0.14      0.00
    0    0    0      0.00      0.00
# SQUEEZE RESULTS (Version =  21116)
# Note: Data are Listed for all Voids in the P1 Unit Cell
# i.e. Centre of Gravity, Solvent Accessible Volume,
# Recovered number of Electrons in the Void and
# Details about the Squeezed Material
loop_
  _platon_squeeze_void_nr
  _platon_squeeze_void_average_x
  _platon_squeeze_void_average_y
  _platon_squeeze_void_average_z
  _platon_squeeze_void_volume
  _platon_squeeze_void_count_electrons
  _platon_squeeze_void_content
   1  0.500  1.000  0.000       125        37 ' '
# Missing Reflections Below sin(th)/lambda = 0.25
loop_
  _platon_missing_refln_index_h
  _platon_missing_refln_index_k
  _platon_missing_refln_index_l
  _platon_missing_refln_theta
    1    0    0     2.485
    0    1    0     1.957
    1    1    0     2.893
    0   -1    1     3.019
    0    0    1     1.995
    1    0    1     2.604
    0    1    1     2.552
    1    1    1     2.771
_platon_squeeze_void_probe_radius                  1.20
_platon_squeeze_details
)
TITL gmeauf2a P -1 R = 0.03
CELL    8.9850   10.8789   11.1836     76.04     67.75     75.98
SPGR P-1
# Solvent Accessible Volume =       126
# Electrons Found in S.A.V. =        36
# Note: Atoms in Void as Cxxx and Qxxx all others
C101 0.448 0.955 0.141 !       6.92 eA-3
C102 0.581 0.049 0.032 !       4.70 eA-3
C103 0.462 1.002 0.065 !       3.06 eA-3
Q104 1.007 0.027 0.141 !       1.10 eA-3
Q105 0.023 0.970 0.202 !       0.93 eA-3
Q106 0.920 0.995 0.092 !       0.91 eA-3
Q107 0.968 0.096 0.138 !       0.85 eA-3
Q108 0.908 0.908 0.388 !       0.82 eA-3
Q109 0.037 0.062 0.199 !       0.80 eA-3
Q110 0.979 0.170 0.000 !       0.80 eA-3
Q111 0.113 0.750 0.326 !       0.80 eA-3
Q112 0.035 0.049 0.280 !       0.77 eA-3
Q113 0.080 0.094 0.000 !       0.75 eA-3
Q114 0.869 0.012 0.201 !       0.74 eA-3
Q115 0.574 0.048 0.252 !       0.73 eA-3
Q116 0.903 0.062 0.014 !       0.72 eA-3
Q117 0.750 0.237 0.455 !       0.70 eA-3
Q118 0.095 0.907 0.314 !       0.68 eA-3
Q119 0.601 0.078 0.153 !       0.67 eA-3
Q120 0.137 0.889 0.205 !       0.67 eA-3
Q121 0.849 0.953 0.152 !       0.66 eA-3
Q122 0.989 0.730 0.390 !       0.64 eA-3
Q123 0.720 0.903 0.112 !       0.63 eA-3
Q124 0.243 0.689 0.093 !       0.63 eA-3
Q125 0.285 0.063 0.091 !       0.63 eA-3
Q126 0.855 0.028 0.122 !       0.62 eA-3
Q127 0.755 0.156 0.488 !       0.61 eA-3
Q128 0.849 0.986 0.315 !       0.61 eA-3
Q129 0.582 0.186 0.031 !       0.61 eA-3
Q130 0.527 0.982 0.345 !       0.60 eA-3
Q131 0.916 0.626 0.050 !       0.60 eA-3
Q132 0.867 0.843 0.250 !       0.60 eA-3
Q133 0.300 0.842 0.452 !       0.60 eA-3
Q134 0.321 0.907 0.296 !       0.59 eA-3
Q135 0.449 0.702 0.015 !       0.59 eA-3
Q136 0.259 0.918 0.484 !       0.58 eA-3
Q137 0.818 0.874 0.177 !       0.58 eA-3
Q138 0.060 0.859 0.152 !       0.58 eA-3
Q139 1.000 0.362 0.217 !       0.58 eA-3
Q140 0.162 0.065 0.207 !       0.57 eA-3
Q141 0.348 0.141 0.498 !       0.57 eA-3
Q142 0.717 0.062 0.267 !       0.57 eA-3
Q143 0.879 0.984 0.028 !       0.56 eA-3
Q144 0.783 1.000 0.014 !       0.56 eA-3
Q145 0.104 0.624 0.484 !       0.56 eA-3
Q146 0.940 0.185 0.093 !       0.55 eA-3
Q147 0.502 0.220 0.358 !       0.55 eA-3
Q148 0.188 0.043 0.140 !       0.55 eA-3
Q149 0.744 0.050 0.155 !       0.55 eA-3
Q150 0.443 0.185 0.141 !       0.54 eA-3
Q151 0.885 0.043 0.281 !       0.54 eA-3
Q152 0.805 0.060 0.056 !       0.54 eA-3
Q153 0.658 0.518 0.344 !       0.54 eA-3
Q154 0.163 0.092 0.141 !       0.54 eA-3
Q155 0.877 0.813 0.051 !       0.54 eA-3
Q156 0.099 0.109 0.220 !       0.54 eA-3
Q157 1.001 0.361 0.005 !       0.53 eA-3
Q158 0.784 0.267 0.094 !       0.53 eA-3
Q159 0.388 0.858 0.211 !       0.52 eA-3
Q160 0.407 0.986 0.408 !       0.52 eA-3
Q161 0.657 0.139 0.088 !       0.51 eA-3
Q162 0.279 0.392 0.158 !       0.51 eA-3
Q163 0.313 0.752 0.391 !       0.51 eA-3
Q164 0.741 0.934 0.138 !       0.51 eA-3
Q165 0.739 0.944 0.218 !       0.51 eA-3
Q166 0.712 0.186 0.316 !       0.50 eA-3
Q167 0.609 0.046 0.327 !       0.50 eA-3
Q168 0.973 0.330 0.376 !       0.50 eA-3
Q169 0.525 0.089 0.171 !       0.50 eA-3
)
;
_shelx_fab_checksum              99750
loop_
_symmetry_equiv_pos_as_xyz
'x, y, z'
'-x, -y, -z'
loop_
_atom_site_label
_atom_site_type_symbol
_atom_site_fract_x
_atom_site_fract_y
_atom_site_fract_z
_atom_site_U_iso_or_equiv
_atom_site_adp_type
_atom_site_occupancy
_atom_site_site_symmetry_order
_atom_site_calc_flag
_atom_site_refinement_flags_posn
_atom_site_refinement_flags_adp
C1 C 1.1033(4) 0.2869(3) -0.0094(3) 0.0236(8) Uani 1 1 d . .
C2 C 1.1882(5) 0.2776(4) 0.0749(4) 0.0320(9) Uani 1 1 d . .
H2 H 1.182244 0.208258 0.146034 0.038 Uiso 1 1 calc R U
C3 C 1.2797(5) 0.3689(4) 0.0546(4) 0.0349(10) Uani 1 1 d . .
C4 C 1.2911(5) 0.4741(4) -0.0457(4) 0.0369(10) Uani 1 1 d . .
H4 H 1.352776 0.538356 -0.057308 0.044 Uiso 1 1 calc R U
C5 C 1.2073(5) 0.4785(4) -0.1263(4) 0.0339(10) Uani 1 1 d . .
C6 C 1.1135(5) 0.3903(3) -0.1119(3) 0.0295(9) Uani 1 1 d . .
H6 H 1.056535 0.39945 -0.170748 0.035 Uiso 1 1 calc R U
C7 C 0.9189(4) -0.0238(3) 0.5225(3) 0.0170(7) Uani 1 1 d . .
H7A H 0.827871 0.049152 0.542053 0.02 Uiso 1 1 calc R U
H7B H 0.907536 -0.087868 0.603671 0.02 Uiso 1 1 calc R U
C8 C 0.7110(4) -0.1464(3) 0.4584(3) 0.0189(7) Uani 1 1 d . .
C9 C 0.6094(4) -0.1484(3) 0.5875(3) 0.0254(8) Uani 1 1 d . .
H9 H 0.640688 -0.120409 0.647318 0.03 Uiso 1 1 calc R U
C10 C 0.4607(4) -0.1916(4) 0.6295(4) 0.0313(10) Uani 1 1 d . .
H10 H 0.390713 -0.193107 0.718149 0.038 Uiso 1 1 calc R U
C11 C 0.4156(5) -0.2318(4) 0.5430(4) 0.0358(10) Uani 1 1 d . .
H11 H 0.314408 -0.261355 0.572055 0.043 Uiso 1 1 calc R U
C12 C 0.5152(5) -0.2296(4) 0.4151(4) 0.0374(10) Uani 1 1 d . .
H12 H 0.483021 -0.258182 0.35608 0.045 Uiso 1 1 calc R U
C13 C 0.6638(4) -0.1858(4) 0.3707(4) 0.0277(8) Uani 1 1 d . .
H13 H 0.731927 -0.182877 0.28154 0.033 Uiso 1 1 calc R U
C14 C 1.0546(4) -0.2451(3) 0.3950(3) 0.0196(7) Uani 1 1 d . .
C15 C 1.1694(4) -0.2734(4) 0.2764(4) 0.0290(9) Uani 1 1 d . .
H15 H 1.172045 -0.214969 0.197597 0.035 Uiso 1 1 calc R U
C16 C 1.2811(5) -0.3878(4) 0.2734(4) 0.0410(11) Uani 1 1 d . .
H16 H 1.360198 -0.407296 0.192398 0.049 Uiso 1 1 calc R U
C17 C 1.2765(5) -0.4719(4) 0.3870(5) 0.0430(11) Uani 1 1 d . .
H17 H 1.352757 -0.549626 0.384759 0.052 Uiso 1 1 calc R U
C18 C 1.1625(6) -0.4444(4) 0.5039(4) 0.0416(11) Uani 1 1 d . .
H18 H 1.159291 -0.50368 0.582281 0.05 Uiso 1 1 calc R U
C19 C 1.0520(5) -0.3308(3) 0.5083(4) 0.0299(9) Uani 1 1 d . .
H19 H 0.973994 -0.311784 0.589862 0.036 Uiso 1 1 calc R U
Au1 Au 0.95464(2) 0.03556(2) 0.19994(2) 0.01866(5) Uani 1 1 d . .
F1 F 1.3636(3) 0.3573(3) 0.1359(3) 0.0593(8) Uani 1 1 d . .
F2 F 1.2138(4) 0.5801(2) -0.2260(2) 0.0574(8) Uani 1 1 d . .
P1 P 0.90880(10) -0.09639(8) 0.39542(8) 0.01550(18) Uani 1 1 d . .
S1 S 0.98470(13) 0.17366(9) 0.00361(9) 0.0310(2) Uani 1 1 d . .
loop_
_atom_site_aniso_label
_atom_site_aniso_U_11
_atom_site_aniso_U_22
_atom_site_aniso_U_33
_atom_site_aniso_U_23
_atom_site_aniso_U_13
_atom_site_aniso_U_12
C1 0.030(2) 0.0212(18) 0.0199(17) -0.0043(15) -0.0054(15) -0.0081(15)
C2 0.039(2) 0.027(2) 0.031(2) 0.0000(17) -0.0142(18) -0.0091(17)
C3 0.032(2) 0.031(2) 0.049(3) -0.013(2) -0.0173(19) -0.0068(17)
C4 0.027(2) 0.035(2) 0.047(2) -0.015(2) -0.0007(18) -0.0158(17)
C5 0.042(2) 0.026(2) 0.0226(19) -0.0011(17) 0.0045(17) -0.0137(17)
C6 0.040(2) 0.026(2) 0.0207(18) -0.0009(16) -0.0072(16) -0.0123(17)
C7 0.0176(17) 0.0175(16) 0.0156(15) -0.0031(13) -0.0054(12) -0.0022(13)
C8 0.0168(16) 0.0152(16) 0.0248(17) 0.0005(14) -0.0087(14) -0.0040(13)
C9 0.0234(19) 0.0236(18) 0.0299(19) -0.0042(16) -0.0094(15) -0.0049(14)
C10 0.0165(18) 0.026(2) 0.040(2) 0.0014(17) -0.0008(16) -0.0051(15)
C11 0.024(2) 0.027(2) 0.055(3) 0.013(2) -0.0190(19) -0.0130(16)
C12 0.043(2) 0.034(2) 0.048(3) 0.002(2) -0.029(2) -0.0190(19)
C13 0.029(2) 0.028(2) 0.033(2) -0.0016(17) -0.0169(16) -0.0103(16)
C14 0.0187(17) 0.0183(17) 0.0279(18) -0.0083(14) -0.0118(14) -0.0035(13)
C15 0.030(2) 0.030(2) 0.0259(19) -0.0085(16) -0.0108(16) 0.0024(16)
C16 0.032(2) 0.038(2) 0.050(3) -0.020(2) -0.0120(19) 0.0065(18)
C17 0.043(3) 0.029(2) 0.070(3) -0.018(2) -0.035(2) 0.0066(19)
C18 0.063(3) 0.020(2) 0.049(3) -0.0018(19) -0.035(2) 0.0002(19)
C19 0.042(2) 0.0214(19) 0.0264(19) 0.0010(16) -0.0147(17) -0.0055(16)
Au1 0.02177(8) 0.01848(8) 0.01702(7) -0.00052(5) -0.00767(5) -0.00636(5)
F1 0.0710(19) 0.0472(16) 0.090(2) -0.0052(15) -0.0578(17) -0.0202(13)
F2 0.089(2) 0.0413(15) 0.0365(14) 0.0108(12) -0.0095(14) -0.0381(14)
P1 0.0158(4) 0.0159(4) 0.0169(4) -0.0037(3) -0.0058(3) -0.0049(3)
S1 0.0497(6) 0.0277(5) 0.0237(5) 0.0049(4) -0.0187(4) -0.0203(4)
loop_
_atom_type_symbol
_atom_type_description
_atom_type_scat_dispersion_real
_atom_type_scat_dispersion_imag
_atom_type_scat_source
C C 0.0033 0.0016 'International Tables Vol C Tables 4.2.6.8 and 6.1.1.4'
H H 0 0 'International Tables Vol C Tables 4.2.6.8 and 6.1.1.4'
Au Au -2.0133 8.8022 'International Tables Vol C Tables 4.2.6.8 and 6.1.1.4'
F F 0.0171 0.0103 'International Tables Vol C Tables 4.2.6.8 and 6.1.1.4'
P P 0.1023 0.0942 'International Tables Vol C Tables 4.2.6.8 and 6.1.1.4'
S S 0.1246 0.1234 'International Tables Vol C Tables 4.2.6.8 and 6.1.1.4'
loop_
_exptl_crystal_face_index_h
_exptl_crystal_face_index_k
_exptl_crystal_face_index_l
_exptl_crystal_face_perp_dist
9 8 14 0.0594
-8 -8 6 0.1607
8 -4 -6 0.1932
8 8 -6 0.1607
-8 4 6 0.1932
2 -13 4 0.2107
-2 13 -4 0.2107
-9 -8 -14 0.0594
loop_
_geom_angle_atom_site_label_1
_geom_angle_atom_site_label_2
_geom_angle_atom_site_label_3
_geom_angle
_geom_angle_site_symmetry_1
C6 C1 C2 118.8(4) .
C6 C1 S1 117.2(3) .
C2 C1 S1 124.0(3) .
C3 C2 C1 119.5(4) .
C3 C2 H2 120.3 .
C1 C2 H2 120.3 .
F1 C3 C2 118.8(4) .
F1 C3 C4 118.0(4) .
C2 C3 C4 123.3(4) .
C5 C4 C3 115.1(4) .
C5 C4 H4 122.4 .
C3 C4 H4 122.4 .
C4 C5 F2 117.5(4) .
C4 C5 C6 124.7(4) .
F2 C5 C6 117.7(4) .
C5 C6 C1 118.6(4) .
C5 C6 H6 120.7 .
C1 C6 H6 120.7 .
C7 C7 P1 110.3(3) 2_756
C7 C7 H7A 109.6 2_756
P1 C7 H7A 109.6 .
C7 C7 H7B 109.6 2_756
P1 C7 H7B 109.6 .
H7A C7 H7B 108.1 .
C9 C8 C13 119.9(3) .
C9 C8 P1 123.2(3) .
C13 C8 P1 116.9(3) .
C8 C9 C10 119.9(4) .
C8 C9 H9 120.1 .
C10 C9 H9 120.1 .
C11 C10 C9 120.0(4) .
C11 C10 H10 120 .
C9 C10 H10 120 .
C12 C11 C10 120.5(4) .
C12 C11 H11 119.8 .
C10 C11 H11 119.8 .
C11 C12 C13 120.4(4) .
C11 C12 H12 119.8 .
C13 C12 H12 119.8 .
C8 C13 C12 119.3(4) .
C8 C13 H13 120.3 .
C12 C13 H13 120.3 .
C19 C14 C15 119.5(3) .
C19 C14 P1 121.8(3) .
C15 C14 P1 118.7(3) .
C14 C15 C16 119.8(3) .
C14 C15 H15 120.1 .
C16 C15 H15 120.1 .
C17 C16 C15 120.0(4) .
C17 C16 H16 120 .
C15 C16 H16 120 .
C16 C17 C18 120.3(4) .
C16 C17 H17 119.9 .
C18 C17 H17 119.9 .
C17 C18 C19 120.3(4) .
C17 C18 H18 119.9 .
C19 C18 H18 119.9 .
C14 C19 C18 120.2(4) .
C14 C19 H19 119.9 .
C18 C19 H19 119.9 .
P1 Au1 S1 176.56(3) .
C8 P1 C14 104.93(15) .
C8 P1 C7 106.28(15) .
C14 P1 C7 103.99(16) .
C8 P1 Au1 113.20(11) .
C14 P1 Au1 114.64(11) .
C7 P1 Au1 112.90(11) .
C1 S1 Au1 109.00(12) .
loop_
_geom_bond_atom_site_label_1
_geom_bond_atom_site_label_2
_geom_bond_distance
_geom_bond_site_symmetry_2
C1 C6 1.391(5) .
C1 C2 1.394(6) .
C1 S1 1.763(4) .
C2 C3 1.363(6) .
C2 H2 0.95 .
C3 F1 1.353(5) .
C3 C4 1.389(5) .
C4 C5 1.362(6) .
C4 H4 0.95 .
C5 F2 1.363(4) .
C5 C6 1.368(6) .
C6 H6 0.95 .
C7 C7 1.526(6) 2_756
C7 P1 1.824(4) .
C7 H7A 0.99 .
C7 H7B 0.99 .
C8 C9 1.383(5) .
C8 C13 1.389(5) .
C8 P1 1.812(3) .
C9 C10 1.396(5) .
C9 H9 0.95 .
C10 C11 1.371(6) .
C10 H10 0.95 .
C11 C12 1.368(6) .
C11 H11 0.95 .
C12 C13 1.396(5) .
C12 H12 0.95 .
C13 H13 0.95 .
C14 C19 1.375(5) .
C14 C15 1.387(5) .
C14 P1 1.818(3) .
C15 C16 1.395(5) .
C15 H15 0.95 .
C16 C17 1.368(6) .
C16 H16 0.95 .
C17 C18 1.368(6) .
C17 H17 0.95 .
C18 C19 1.384(5) .
C18 H18 0.95 .
C19 H19 0.95 .
Au1 P1 2.2582(8) .
Au1 S1 2.3037(9) .
loop_
_geom_hbond_atom_site_label_D
_geom_hbond_atom_site_label_H
_geom_hbond_atom_site_label_A
_geom_hbond_distance_DH
_geom_hbond_distance_HA
_geom_hbond_distance_DA
_geom_hbond_angle_DHA
_geom_hbond_site_symmetry_A
C15 H15 S1 0.95 2.98 3.718(4) 135.9 2_755
loop_
_geom_torsion_atom_site_label_1
_geom_torsion_atom_site_label_2
_geom_torsion_atom_site_label_3
_geom_torsion_atom_site_label_4
_geom_torsion
_geom_torsion_site_symmetry_1
C6 C1 C2 C3 -0.5(5) .
S1 C1 C2 C3 178.4(3) .
C1 C2 C3 F1 -178.9(3) .
C1 C2 C3 C4 1.4(6) .
F1 C3 C4 C5 178.4(3) .
C2 C3 C4 C5 -1.9(6) .
C3 C4 C5 F2 179.8(3) .
C3 C4 C5 C6 1.7(6) .
C4 C5 C6 C1 -1.0(6) .
F2 C5 C6 C1 -179.0(3) .
C2 C1 C6 C5 0.3(5) .
S1 C1 C6 C5 -178.7(3) .
C13 C8 C9 C10 0.8(5) .
P1 C8 C9 C10 -178.2(3) .
C8 C9 C10 C11 -0.1(5) .
C9 C10 C11 C12 -0.2(6) .
C10 C11 C12 C13 -0.4(6) .
C9 C8 C13 C12 -1.4(5) .
P1 C8 C13 C12 177.7(3) .
C11 C12 C13 C8 1.1(6) .
C19 C14 C15 C16 -0.2(6) .
P1 C14 C15 C16 -179.1(4) .
C14 C15 C16 C17 0.3(7) .
C15 C16 C17 C18 0.2(7) .
C16 C17 C18 C19 -0.7(7) .
C15 C14 C19 C18 -0.3(6) .
P1 C14 C19 C18 178.5(4) .
C17 C18 C19 C14 0.8(7) .
C9 C8 P1 C14 98.7(3) .
C13 C8 P1 C14 -80.3(3) .
C9 C8 P1 C7 -11.1(3) .
C13 C8 P1 C7 169.9(3) .
C9 C8 P1 Au1 -135.6(2) .
C13 C8 P1 Au1 45.4(3) .
C19 C14 P1 C8 -60.8(4) .
C15 C14 P1 C8 118.1(3) .
C19 C14 P1 C7 50.7(3) .
C15 C14 P1 C7 -130.5(3) .
C19 C14 P1 Au1 174.4(3) .
C15 C14 P1 Au1 -6.7(3) .
C7 C7 P1 C8 -179.1(3) 2_756
C7 C7 P1 C14 70.5(3) 2_756
C7 C7 P1 Au1 -54.4(3) 2_756
C6 C1 S1 Au1 -170.3(2) .
C2 C1 S1 Au1 10.7(3) .
