#------------------------------------------------------------------------------
#$Date: 2019-11-17 14:30:37 +0200 (Sun, 17 Nov 2019) $
#$Revision: 230511 $
#$URL: file:///home/coder/svn-repositories/cod/cif/7/05/77/7057780.cif $
#------------------------------------------------------------------------------
#
# This file is available in the Crystallography Open Database (COD),
# http://www.crystallography.net/
#
# All data on this site have been placed in the public domain by the
# contributors.
#
data_7057780
loop_
_publ_author_name
'Cargnelutti, Roberta'
'Delgado, C\'assia P.'
'Cervo, Rodrigo'
'Tirloni, B\'arbara'
'Burrow, Robert A.'
'Lang, Ernesto S.'
_publ_section_title
;
 Synthesis and structural chemistry of CoII, CuII, CuI and PdII complexes
 containing a flexible monoselenoether ligand
;
_journal_issue                   21
_journal_name_full               'New Journal of Chemistry'
_journal_page_first              17185
_journal_paper_doi               10.1039/C8NJ03621G
_journal_volume                  42
_journal_year                    2018
_chemical_formula_moiety
;
0.27(C20 H16 Cl2 Cu2 N4 S2 Se2, 0.73(C20 H16 Cl2 Cu2 N4 Se4)
;
_chemical_formula_sum            'C20 H16 Cl2 Cu2 N4 S0.55 Se3.45'
_chemical_formula_weight         800.39
_chemical_melting_point          444.1(10)
_space_group_crystal_system      triclinic
_space_group_IT_number           2
_space_group_name_Hall           '-P 1'
_space_group_name_H-M_alt        'P -1'
_symmetry_space_group_name_Hall  '-P 1'
_symmetry_space_group_name_H-M   'P -1'
_atom_sites_solution_hydrogens   geom
_atom_sites_solution_primary     dual
_atom_sites_solution_secondary   difmap
_audit_creation_method           SHELXL-2017/1
_audit_update_record
;
2018-08-27 deposited with the CCDC.
2018-09-27 downloaded from the CCDC.
;
_cell_angle_alpha                82.4090(10)
_cell_angle_beta                 73.8920(10)
_cell_angle_gamma                67.8180(10)
_cell_formula_units_Z            1
_cell_length_a                   8.0642(3)
_cell_length_b                   8.6710(3)
_cell_length_c                   9.5068(3)
_cell_measurement_reflns_used    9939
_cell_measurement_temperature    100(2)
_cell_measurement_theta_max      23.59
_cell_measurement_theta_min      2.47
_cell_volume                     591.11(4)
_computing_cell_refinement       'SAINT V8.38A (Bruker AXS Inc., 2017)'
_computing_data_collection       'APEX3 v2017.3-0 (Bruker AXS Inc., 2017'
_computing_data_reduction        'SAINT V8.38A (Bruker AXS Inc., 2016)'
_computing_molecular_graphics    'shelXle (C.B. Huebschle, rev 833)'
_computing_publication_material  vim
_computing_structure_refinement  'SHELXL-2016/6 (Sheldrick, 2016)'
_computing_structure_solution    'SHELXL-2016/4 (Sheldrick, 2016)'
_diffrn_ambient_temperature      100(2)
_diffrn_measured_fraction_theta_full 0.998
_diffrn_measured_fraction_theta_max 0.998
_diffrn_measurement_device_type  'Bruker APEX-II CCD'
_diffrn_radiation_type           AgK\a
_diffrn_radiation_wavelength     0.56086
_diffrn_reflns_av_R_equivalents  0.0305
_diffrn_reflns_av_unetI/netI     0.0167
_diffrn_reflns_Laue_measured_fraction_full 0.998
_diffrn_reflns_Laue_measured_fraction_max 0.998
_diffrn_reflns_limit_h_max       11
_diffrn_reflns_limit_h_min       -11
_diffrn_reflns_limit_k_max       12
_diffrn_reflns_limit_k_min       -12
_diffrn_reflns_limit_l_max       13
_diffrn_reflns_limit_l_min       -13
_diffrn_reflns_number            29331
_diffrn_reflns_point_group_measured_fraction_full 0.998
_diffrn_reflns_point_group_measured_fraction_max 0.998
_diffrn_reflns_theta_full        19.665
_diffrn_reflns_theta_max         23.640
_diffrn_reflns_theta_min         2.400
_exptl_absorpt_coefficient_mu    3.905
_exptl_absorpt_correction_T_max  0.7449
_exptl_absorpt_correction_T_min  0.6496
_exptl_absorpt_correction_type   multi-scan
_exptl_absorpt_process_details
;
        SADABS(Bruker, 2007) was used to perform the data scaling
        and semi-empirical absorption correction based on symmetry-
        related refkections.
;
_exptl_crystal_colour            orange
_exptl_crystal_density_diffrn    2.248
_exptl_crystal_description       Block
_exptl_crystal_F_000             382
_exptl_crystal_recrystallization_method 'mother liquor'
_exptl_crystal_size_max          0.136
_exptl_crystal_size_mid          0.131
_exptl_crystal_size_min          0.099
_refine_diff_density_max         0.826
_refine_diff_density_min         -0.547
_refine_diff_density_rms         0.098
_refine_ls_extinction_method     none
_refine_ls_goodness_of_fit_ref   1.186
_refine_ls_hydrogen_treatment    constr
_refine_ls_matrix_type           full
_refine_ls_number_parameters     166
_refine_ls_number_reflns         3624
_refine_ls_number_restraints     13
_refine_ls_restrained_S_all      1.184
_refine_ls_R_factor_all          0.0276
_refine_ls_R_factor_gt           0.0234
_refine_ls_shift/su_max          0.001
_refine_ls_shift/su_mean         0.000
_refine_ls_structure_factor_coef Fsqd
_refine_ls_weighting_details
'w=1/[\s^2^(Fo^2^)+(0.0109P)^2^+1.1193P] where P=(Fo^2^+2Fc^2^)/3'
_refine_ls_weighting_scheme      calc
_refine_ls_wR_factor_gt          0.0502
_refine_ls_wR_factor_ref         0.0512
_reflns_number_gt                3323
_reflns_number_total             3624
_reflns_threshold_expression     'I > 2\s(I)'
_cod_data_source_file            c8nj03621g2.cif
_cod_data_source_block           2c
_cod_depositor_comments
;
The following automatic conversions were performed:

'_chemical_melting_point' value '443.15-445.15' was changed to
'444.1(10)' - the average value was taken and precision was
estimated.

Automatic conversion script
Id: cif_fix_values 4973 2017-02-22 13:04:09Z antanas 

 Adding full bibliography for 7057773--7057780.cif.
;
_cod_database_code               7057780
_shelx_shelxl_version_number     2017/1
_shelx_space_group_comment
;
The symmetry employed for this shelxl refinement is uniquely defined
by the following loop, which should always be used as a source of
symmetry information in preference to the above space-group names.
They are only intended as comments.
;
_shelx_estimated_absorpt_t_min   0.619
_shelx_estimated_absorpt_t_max   0.698
_shelx_res_file
;
TITL ag_ESLCD78LARANJA_0m_a.res in P-1
    ag_ESLCD78LARANJA_0m_a.res
    created by SHELXL-2017/1 at 10:33:32 on 27-Aug-2018
REM Old TITL ag_ESLCD78LARANJA_0m in P-1
REM SHELXT solution in P-1
REM R1 0.062,  Rweak 0.007,  Alpha 0.041,  Orientation as input
REM Formula found by SHELXT:  C10 N2 Cl Cu Se2
CELL  0.56086   8.0642   8.6710   9.5068   82.409   73.892   67.818
ZERR    1.000   0.0003   0.0003   0.0003    0.001    0.001    0.001
LATT  1
SFAC C H N CL CU SE S
UNIT 20 16 4 2 2 3.45 0.55
TEMP -173.160
SIZE 0.099 0.131 0.136
L.S. 24
BOND $H
OMIT 0 1 0
OMIT 1 0 0
OMIT 1 0 1
LIST 4
EXYZ Se1 Se1'
EADP Se1 Se1'
EXYZ Se2 Se2'
EADP Se2 Se2'
ACTA
CONF
HTAB
DELU S1 S2
ISOR 0.001 S1 S2
FMAP 2
PLAN 10
SUMP 1.0 0.0005 1 2 1 3 1 4
WGHT    0.010900    1.119300
FVAR       0.66837   0.72727   0.14782   0.12499
PART 1 21.0
SE1   6    0.240622    0.354116    0.897943    21.00000    0.01189    0.01476 =
         0.01252   -0.00197   -0.00164   -0.00298
SE2   6    0.298789    0.565982    0.741358    21.00000    0.01624    0.01157 =
         0.01294   -0.00146   -0.00379   -0.00599
PART 2 31.0
SE1'  6    0.240622    0.354116    0.897943    31.00000    0.01189    0.01476 =
         0.01252   -0.00197   -0.00164   -0.00298
S1    7    0.307070    0.544222    0.760097    31.00000    0.01177    0.01073 =
         0.01022   -0.00063   -0.00325   -0.00354
PART 3 41.0
SE2'  6    0.298789    0.565982    0.741358    41.00000    0.01624    0.01157 =
         0.01294   -0.00146   -0.00379   -0.00599
S2    7    0.253203    0.400128    0.864241    41.00000    0.00829    0.00774 =
         0.00767    0.00074   -0.00125   -0.00328
PART 0

CU1   5    0.457322    0.152857    0.600669    11.00000    0.01673    0.01224 =
         0.01438    0.00049   -0.00790   -0.00395
CL1   4    0.287367   -0.023877    0.613780    11.00000    0.01417    0.01137 =
         0.01253   -0.00156   -0.00161   -0.00523
N1    3    0.581016    0.119384    0.761562    11.00000    0.01144    0.01199 =
         0.01183    0.00029   -0.00373   -0.00476
C1    1    0.754160    0.009551    0.754726    11.00000    0.01333    0.01171 =
         0.01449    0.00019   -0.00247   -0.00418
AFIX  43
H1    2    0.822617   -0.047707    0.666386    11.00000   -1.20000
AFIX   0
N2    3    0.315433    0.371435    0.512872    11.00000    0.01086    0.01081 =
         0.01235   -0.00002   -0.00261   -0.00395
C2    1    0.836726   -0.023492    0.871147    11.00000    0.01332    0.01716 =
         0.01929    0.00422   -0.00634   -0.00578
AFIX  43
H2    2    0.957748   -0.103797    0.863007    11.00000   -1.20000
AFIX   0
C3    1    0.740017    0.062358    0.999252    11.00000    0.02187    0.02767 =
         0.01456    0.00428   -0.00832   -0.01392
AFIX  43
H3    2    0.792851    0.040867    1.080803    11.00000   -1.20000
AFIX   0
C4    1    0.564271    0.180505    1.006245    11.00000    0.01776    0.02530 =
         0.01255   -0.00258   -0.00218   -0.01121
AFIX  43
H4    2    0.496365    0.243901    1.091458    11.00000   -1.20000
AFIX   0
C5    1    0.489609    0.204166    0.885852    11.00000    0.01343    0.01429 =
         0.01463   -0.00150   -0.00260   -0.00527
C6    1    0.257171    0.525006    0.562517    11.00000    0.01089    0.01278 =
         0.01236   -0.00155   -0.00115   -0.00596
C7    1    0.163320    0.667935    0.488579    11.00000    0.01274    0.01006 =
         0.01901   -0.00084   -0.00108   -0.00334
AFIX  43
H7    2    0.127160    0.775361    0.525780    11.00000   -1.20000
AFIX   0
C10   1    0.276666    0.356178    0.387312    11.00000    0.01494    0.01223 =
         0.01462   -0.00038   -0.00484   -0.00635
AFIX  43
H10   2    0.316442    0.247663    0.351193    11.00000   -1.20000
AFIX   0
C9    1    0.181987    0.490307    0.308335    11.00000    0.01333    0.01688 =
         0.01561    0.00218   -0.00495   -0.00657
AFIX  43
H9    2    0.157023    0.473823    0.220631    11.00000   -1.20000
AFIX   0
C8    1    0.124169    0.649650    0.359986    11.00000    0.01216    0.01351 =
         0.02147    0.00429   -0.00467   -0.00317
AFIX  43
H8    2    0.059068    0.744208    0.308149    11.00000   -1.20000
REM #####
AFIX   0
HKLF 4




REM  ag_ESLCD78LARANJA_0m_a.res in P-1
REM R1 =  0.0234 for    3323 Fo > 4sig(Fo)  and  0.0276 for all    3624 data
REM    166 parameters refined using     13 restraints

END

WGHT      0.0109      1.1193

REM Instructions for potential hydrogen bonds
EQIV $1 -x+1, -y, -z+1
HTAB C1 Cl1_$1
EQIV $2 x, y+1, z
HTAB C7 Cl1_$2

REM Highest difference peak  0.826,  deepest hole -0.547,  1-sigma level  0.098
Q1    1   0.3522  0.5073  0.6835  11.00000  0.05    0.83
Q2    1   0.7786 -0.0157  0.8242  11.00000  0.05    0.48
Q3    1   0.1296  0.5621  0.3479  11.00000  0.05    0.45
Q4    1   0.5448  0.1583  0.8225  11.00000  0.05    0.43
Q5    1   0.1310  0.6432  0.4351  11.00000  0.05    0.43
Q6    1   0.2897  0.4521  0.5224  11.00000  0.05    0.43
Q7    1   0.5501 -0.0056  0.8761  11.00000  0.05    0.40
Q8    1   0.2144  0.4292  0.3641  11.00000  0.05    0.39
Q9    1   0.7872  0.0378  0.9239  11.00000  0.05    0.37
Q10   1   0.3008  0.2285  0.7969  11.00000  0.05    0.36
;
_shelx_res_checksum              55839
_shelx_hkl_file
;
   1   0   0    0.30    0.60
   1   0   0   -0.20    0.60
   1   0   0    0.70    0.60
  -2   0   0 5455.75  117.79
  -2   0   0 5360.06  117.89
  -2   0   0 5112.39  117.99
  -2   0   0 5368.86  117.99
   2   0   0 5366.26  117.89
   2   0   0 5698.83  117.99
   2   0   0 5625.34  117.89
   2   0   0 5116.39  118.09
  -3   0   0   77.99    4.60
  -3   0   0   57.29    4.50
  -3   0   0   91.59    4.70
  -3   0   0   62.89    4.40
  -3   0   0   89.59    4.60
   3   0   0   62.49    4.50
   3   0   0   88.09    4.60
   3   0   0   70.59    4.30
  -4   0   0 3810.92   85.99
  -4   0   0 3637.24   85.99
  -4   0   0 3848.42   85.79
  -4   0   0 3883.31   85.79
  -4   0   0 3902.91   85.79
   4   0   0 3905.61   85.99
   4   0   0 3889.21   85.79
   4   0   0 3696.43   86.09
   4   0   0 3948.90   86.09
  -5   0   0 1143.99   28.40
  -5   0   0 1131.29   28.90
  -5   0   0 1128.49   28.40
  -5   0   0 1184.58   28.80
  -5   0   0 1121.99   28.60
   5   0   0 1130.09   29.00
   5   0   0 1118.29   28.50
   5   0   0 1144.89   28.50
   5   0   0 1117.29   28.70
   5   0   0 1170.98   28.70
  -6   0   0  319.67   12.60
  -6   0   0  342.97   12.40
  -6   0   0  318.87   12.90
  -6   0   0  376.76   12.80
  -6   0   0  329.27   12.60
   6   0   0  334.97   13.40
   6   0   0  316.57   12.20
   6   0   0  347.37   12.80
   6   0   0  299.17   12.30
  -7   0   0  892.31   23.70
  -7   0   0  781.02   23.70
  -7   0   0  907.21   24.00
  -7   0   0  779.22   24.00
   7   0   0  785.52   23.70
   7   0   0  887.41   24.20
   7   0   0  825.92   23.40
   7   0   0  843.42   24.80
  -8   0   0   35.10    7.30
  -8   0   0   57.59    7.80
  -8   0   0   49.70    7.40
  -8   0   0   44.40    7.40
   8   0   0   49.30    7.50
   8   0   0   45.70    6.80
   8   0   0   43.90    8.00
  -9   0   0   25.90    7.50
  -9   0   0   19.60    7.60
  -9   0   0   19.30    8.30
   9   0   0   18.20    7.90
   9   0   0   15.00    6.90
   9   0   0   18.30    8.60
   9   0   0   18.30    6.90
 -10   0   0   21.80    8.60
 -10   0   0   42.10   10.10
 -10   0   0   28.30    9.30
  10   0   0   52.89    9.10
  10   0   0   47.60   10.90
  10   0   0   45.50    9.20
  10   0   0   46.50   10.40
   9  -1   0  280.27   16.90
   9  -1   0  267.17   15.00
   9  -1   0  271.17   18.50
   9  -1   0  268.17   14.80
  -9   1   0  267.77   15.70
  -9   1   0  288.37   17.80
  -9   1   0  271.77   16.40
  -9   1   0  240.68   14.90
   8  -1   0  396.96   16.20
   8  -1   0  436.56   18.40
   8  -1   0  427.06   17.60
   8  -1   0  401.16   16.00
  -8   1   0  440.66   18.20
  -8   1   0  439.46   17.50
  -8   1   0  433.76   16.80
  -8   1   0  422.76   18.40
  -8   1   0  441.46   16.80
   7  -1   0    5.00    5.10
   7  -1   0    4.90    6.20
   7  -1   0    4.50    5.60
   7  -1   0    0.00    4.60
  -7   1   0   -5.90    4.80
  -7   1   0    4.20    5.20
  -7   1   0   -2.60    6.30
  -7   1   0    5.30    5.60
  -7   1   0   11.50    6.60
   6  -1   0    6.60    5.20
   6  -1   0    4.20    5.10
   6  -1   0   -1.00    4.10
   6  -1   0    0.50    3.60
  -6   1   0    9.10    4.60
  -6   1   0   15.90    4.60
  -6   1   0    7.10    5.30
  -6   1   0   13.80    4.70
  -6   1   0    8.10    5.60
   5  -1   0 1689.13   39.80
   5  -1   0 1558.14   40.40
   5  -1   0 1669.23   41.10
   5  -1   0 1669.83   40.00
  -5   1   0 1728.03   39.90
  -5   1   0 1691.43   39.80
  -5   1   0 1735.03   41.50
  -5   1   0 1644.44   41.00
  -5   1   0 1652.73   40.60
   4  -1   0  851.71   22.60
   4  -1   0  906.71   22.90
   4  -1   0  885.81   22.00
   4  -1   0  874.91   22.10
  -4   1   0  893.61   23.60
  -4   1   0  811.92   22.60
  -4   1   0  869.31   21.90
  -4   1   0  886.81   22.70
  -4   1   0  870.11   22.00
   3  -1   0 1134.29   28.60
   3  -1   0 1016.30   28.30
   3  -1   0 1150.18   27.20
   3  -1   0 1213.08   27.60
   3  -1   0 1168.08   27.40
  -3   1   0 1170.88   27.20
  -3   1   0 1098.59   28.30
  -3   1   0 1137.59   27.20
  -3   1   0 1177.68   27.70
  -3   1   0 1208.88   27.60
   2  -1   0 2234.88   49.60
   2  -1   0 2260.87   50.79
   2  -1   0 2301.67   49.60
   2  -1   0 2155.48   49.50
   2  -1   0 2119.59   49.40
  -2   1   0 2200.08   49.60
  -2   1   0 2208.48   49.50
  -2   1   0 2183.48   50.59
  -2   1   0 2219.28   49.40
   1  -1   0   81.39    3.20
   1  -1   0   80.89    3.10
   1  -1   0   80.99    3.30
   1  -1   0   84.79    3.30
  -1   1   0   76.09    3.10
  -1   1   0   81.99    3.20
  -1   1   0   80.19    3.20
  -1   1   0   82.99    4.30
   0  -1   0    0.70    0.60
   0  -1   0    0.10    0.60
  -1  -1   0 1630.74   35.70
   1   1   0 1482.45   36.10
   1   1   0 1666.63   35.70
  -2  -1   0 4826.32  103.49
  -2  -1   0 4658.13  103.59
  -2  -1   0 4616.64  103.49
   2   1   0 4735.53  103.59
   2   1   0 4750.02  103.49
   2   1   0 4642.44  103.49
   2   1   0 4789.42  103.59
  -3  -1   0  230.08    7.60
  -3  -1   0  215.28    7.40
  -3  -1   0  223.18    7.40
   3   1   0  218.78    7.30
   3   1   0  225.48    6.50
   3   1   0  221.98    7.60
   3   1   0  235.88    7.70
   3   1   0  230.58    7.70
  -4  -1   0  251.37    9.40
  -4  -1   0  260.67    9.30
  -4  -1   0  255.47    8.90
  -4  -1   0  266.97    9.10
   4   1   0  254.27    9.50
   4   1   0  262.87    8.00
   4   1   0  239.68   10.30
   4   1   0  268.47    9.40
   4   1   0  267.47    9.00
  -5  -1   0  524.45   16.60
  -5  -1   0  570.94   16.10
  -5  -1   0  589.34   16.30
  -5  -1   0  546.75   16.40
   5   1   0  569.64   16.60
   5   1   0  574.34   15.00
   5   1   0  516.95   16.50
   5   1   0  573.44   16.10
   5   1   0  534.95   16.80
  -6  -1   0    2.70    4.50
  -6  -1   0    0.50    4.70
  -6  -1   0    0.50    4.00
  -6  -1   0    0.20    3.90
   6   1   0    0.50    3.60
   6   1   0    4.40    4.20
   6   1   0    8.80    4.30
   6   1   0    1.40    4.40
   6   1   0    3.40    4.70
  -7  -1   0   11.30    5.30
  -7  -1   0   12.90    5.90
  -7  -1   0   20.80    5.80
   7   1   0    7.50    5.30
   7   1   0   16.10    5.40
   7   1   0   16.20    6.00
  -8  -1   0  309.67   14.50
  -8  -1   0  313.87   14.20
  -8  -1   0  323.87   14.50
  -8  -1   0  305.57   14.80
   8   1   0  298.27   14.50
   8   1   0  302.97   15.20
   8   1   0  299.37   14.30
   8   1   0  319.37   14.10
  -9  -1   0  407.56   18.10
  -9  -1   0  400.76   17.00
  -9  -1   0  374.06   17.70
   9   1   0  386.56   17.00
   9   1   0  403.86   17.50
   9   1   0  366.16   18.30
   9   1   0  388.26   17.70
 -10  -1   0   42.60   10.10
 -10  -1   0   22.50    9.40
 -10  -1   0   34.70    9.70
  10   1   0   46.70    9.80
  10   1   0   37.70    9.70
  10   1   0   45.60    9.30
  10   1   0   40.70   10.30
   9  -2   0  288.97   18.30
   9  -2   0  291.07   16.10
   9  -2   0  271.17   19.00
   9  -2   0  316.97   17.10
  -9   2   0  280.37   16.40
  -9   2   0  293.57   18.60
  -9   2   0  269.27   19.70
  -9   2   0  313.27   17.50
   8  -2   0   58.69   10.20
   8  -2   0   62.49    8.30
   8  -2   0   79.09    8.40
   8  -2   0   72.89   10.10
  -8   2   0   58.59   10.10
  -8   2   0   64.19    8.70
  -8   2   0   91.59   11.50
  -8   2   0   71.69    8.90
   7  -2   0 2050.19   50.59
   7  -2   0 2012.00   52.39
   7  -2   0 2133.99   50.49
   7  -2   0 2043.20   51.49
  -7   2   0 2062.19   51.49
  -7   2   0 2124.39   50.79
  -7   2   0 2035.60   50.49
  -7   2   0 2110.79   52.29
  -7   2   0 2157.08   53.59
   6  -2   0  565.54   17.40
   6  -2   0  572.04   19.10
   6  -2   0  559.94   19.30
   6  -2   0  573.64   17.90
  -6   2   0  581.74   20.90
  -6   2   0  569.14   17.90
  -6   2   0  553.64   17.50
  -6   2   0  545.75   18.80
  -6   2   0  582.54   19.40
   5  -2   0  804.12   22.60
   5  -2   0  838.12   22.70
   5  -2   0  781.42   21.70
   5  -2   0  806.42   21.60
  -5   2   0  779.32   22.60
  -5   2   0  794.62   24.40
  -5   2   0  801.22   21.90
  -5   2   0  787.22   21.60
   4  -2   0   23.40    4.30
   4  -2   0   22.50    4.00
   4  -2   0   27.00    4.30
   4  -2   0   27.70    3.90
  -4   2   0   27.10    4.20
  -4   2   0   26.70    4.20
  -4   2   0   23.30    5.40
  -4   2   0   27.30    4.00
   3  -2   0 4320.57   94.69
   3  -2   0 4147.79   94.99
   3  -2   0 4258.57   94.79
   3  -2   0 4401.36   94.69
  -3   2   0 4236.88   94.69
  -3   2   0 4031.50   94.69
  -3   2   0 4316.47   96.79
  -3   2   0 4241.48   94.59
  -3   2   0 4252.07   94.69
   2  -2   0 3417.06   77.39
   2  -2   0 3468.35   77.69
   2  -2   0 3511.55   77.59
   2  -2   0 3481.75   77.59
  -2   2   0 3383.46   77.39
  -2   2   0 3515.85   77.59
  -2   2   0 3343.97   77.29
  -2   2   0 3665.33   79.79
   1  -2   0   65.79    3.90
   1  -2   0   69.19    4.10
   1  -2   0   69.69    3.80
   1  -2   0   75.99    4.00
  -1   2   0   72.89    4.00
  -1   2   0   61.99    4.60
  -1   2   0   59.79    5.30
  -1   2   0   71.39    3.80
  -1   2   0   72.79    3.90
   0  -2   0 1280.87   30.00
   0  -2   0 1286.67   29.90
   0  -2   0 1270.37   29.90
   0  -2   0 1272.57   29.90
   0   2   0 1306.17   29.90
   0   2   0 1297.67   30.00
   0   2   0 1268.07   29.90
   0   2   0 1299.87   29.80
  -1  -2   0 1007.70   24.00
  -1  -2   0 1015.10   23.80
  -1  -2   0 1005.40   24.00
   1   2   0  986.20   23.90
   1   2   0  995.00   22.30
   1   2   0  993.90   23.80
   1   2   0 1015.00   23.90
  -2  -2   0 3612.14   80.59
  -2  -2   0 3536.35   80.39
  -2  -2   0 3569.84   80.39
  -2  -2   0 3644.84   80.39
   2   2   0 3656.53   80.49
   2   2   0 3577.24   80.59
   2   2   0 3615.54   80.49
   2   2   0 3677.93   80.39
  -3  -2   0  108.89    5.70
  -3  -2   0  120.39    5.70
  -3  -2   0  120.39    5.70
   3   2   0  115.59    5.80
   3   2   0  117.39    5.60
   3   2   0  119.39    5.70
   3   2   0  117.49    5.70
  -4  -2   0  126.09    6.80
  -4  -2   0  145.49    6.90
  -4  -2   0  145.09    7.00
   4   2   0  135.69    6.90
   4   2   0  138.59    7.10
   4   2   0  133.49    7.10
   4   2   0  142.29    6.70
  -5  -2   0   47.30    5.40
  -5  -2   0   51.59    5.10
  -5  -2   0   44.80    4.90
   5   2   0   59.59    5.50
   5   2   0   47.50    4.20
   5   2   0   49.60    5.30
   5   2   0   55.19    5.50
   5   2   0   42.30    4.80
  -6  -2   0 1420.16   35.70
  -6  -2   0 1389.26   35.00
  -6  -2   0 1364.66   34.90
  -6  -2   0 1391.56   35.30
   6   2   0 1398.16   35.90
   6   2   0 1376.96   32.50
   6   2   0 1392.46   35.50
   6   2   0 1408.56   34.90
  -7  -2   0  369.76   15.20
  -7  -2   0  343.87   15.80
  -7  -2   0  373.76   15.40
  -7  -2   0  390.66   14.60
   7   2   0  368.36   11.40
   7   2   0  362.66   15.00
   7   2   0  333.17   14.80
   7   2   0  379.86   15.50
   7   2   0  368.66   14.20
  -8  -2   0   92.79    8.90
  -8  -2   0   91.49    9.40
  -8  -2   0   90.49    9.70
  -8  -2   0  113.09   10.70
   8   2   0   97.09   10.00
   8   2   0  109.29    9.10
   8   2   0  102.09    9.40
   8   2   0   83.09    9.10
  -9  -2   0   35.50    8.40
  -9  -2   0   36.00    8.50
  -9  -2   0   51.09    8.80
  -9  -2   0   39.80    9.30
   9   2   0   30.70    7.90
   9   2   0   43.30    8.70
   9   2   0   56.39    9.00
 -10  -2   0  501.45   21.90
 -10  -2   0  492.35   26.10
 -10  -2   0  480.95   21.40
 -10  -2   0  508.95   21.90
  10   2   0  475.15   20.60
  10   2   0  481.55   21.80
  10   2   0  474.25   21.00
  10   2   0  504.45   21.60
   9  -3   0   59.29   12.80
   9  -3   0   79.99   11.90
   9  -3   0   80.39   10.80
   9  -3   0   66.69   10.40
  -9   3   0   58.19   10.80
  -9   3   0   73.59   12.00
  -9   3   0   54.59   12.20
  -9   3   0   59.09   10.50
  -9   3   0   54.89   13.10
   8  -3   0   43.10    8.40
   8  -3   0   22.90    9.40
   8  -3   0   42.70    8.30
   8  -3   0   37.60   10.70
  -8   3   0   27.90    9.40
  -8   3   0   29.50    8.50
  -8   3   0   36.80    8.70
  -8   3   0   25.80   10.10
  -8   3   0   26.70   10.40
   7  -3   0   79.09   10.20
   7  -3   0   84.89    9.00
   7  -3   0  103.99   10.70
   7  -3   0   88.89    8.60
  -7   3   0  105.29   10.40
  -7   3   0   82.99    8.90
  -7   3   0   84.29   10.70
  -7   3   0  121.99   12.20
  -7   3   0   99.69    9.30
   6  -3   0   20.00    6.50
   6  -3   0    9.90    6.30
   6  -3   0    8.90    5.20
  -6   3   0    6.40    6.30
  -6   3   0   11.20    5.60
  -6   3   0    7.80    5.80
  -6   3   0    7.20    8.00
   5  -3   0   98.39    8.30
   5  -3   0  114.19    9.40
   5  -3   0  104.49    8.20
   5  -3   0  107.79    8.30
  -5   3   0  101.39    8.70
  -5   3   0  111.19    9.10
  -5   3   0  108.29    9.00
  -5   3   0  120.09   11.00
   4  -3   0  227.08   10.00
   4  -3   0  235.98   10.10
   4  -3   0  230.38   10.10
  -4   3   0  217.28    9.80
  -4   3   0  207.98    9.60
  -4   3   0  222.38   10.00
  -4   3   0  226.78    9.90
  -4   3   0  223.28   13.50
   3  -3   0  537.85   15.90
   3  -3   0  568.24   16.30
   3  -3   0  561.64   16.10
   3  -3   0  547.05   15.60
  -3   3   0  540.25   16.10
  -3   3   0  545.15   15.70
  -3   3   0  533.85   15.70
  -3   3   0  535.95   18.90
   2  -3   0 2172.18   50.09
   2  -3   0 2181.08   50.49
   2  -3   0 2146.69   49.80
   2  -3   0 2148.09   50.09
  -2   3   0 2108.39   52.69
  -2   3   0 2182.58   49.90
  -2   3   0 2157.08   49.90
  -2   3   0 2134.59   50.09
   1  -3   0  501.85   14.00
   1  -3   0  479.75   14.30
   1  -3   0  503.25   14.30
   1  -3   0  500.45   14.20
  -1   3   0  503.95   14.50
  -1   3   0  497.75   16.40
  -1   3   0  495.25   14.10
  -1   3   0  507.35   14.40
  -1   3   0  505.65   14.00
   0  -3   0  130.79    6.10
   0  -3   0  128.59    5.90
   0  -3   0  123.79    6.20
   0  -3   0  128.69    6.20
   0   3   0  118.19    6.20
   0   3   0  126.79    6.10
   0   3   0  113.99    6.00
   0   3   0  127.29    5.90
  -1  -3   0 4748.82  105.89
  -1  -3   0 4757.32  106.09
  -1  -3   0 4758.02  105.99
  -1  -3   0 4826.32  106.19
   1   3   0 4722.73  106.09
   1   3   0 4654.93  105.79
   1   3   0 4793.52  105.99
   1   3   0 4807.62  106.09
  -2  -3   0 9773.72  215.78
  -2  -3   0 9807.32  215.68
  -2  -3   0 9964.30  215.68
  -2  -3   0 9736.53  215.48
   2   3   0 9780.12  215.48
   2   3   0 9999.00  215.78
   2   3   0 9693.13  215.68
   2   3   0 9880.51  215.68
  -3  -3   0   23.80    3.50
  -3  -3   0   25.10    3.60
  -3  -3   0   26.10    3.60
  -3  -3   0   35.00    4.00
   3   3   0   26.70    3.60
   3   3   0   25.70    3.70
   3   3   0   17.70    3.40
   3   3   0   23.10    3.70
  -4  -3   0 2072.19   48.90
  -4  -3   0 2049.89   48.70
  -4  -3   0 2109.29   49.20
  -4  -3   0 2041.30   48.80
   4   3   0 2161.78   49.10
   4   3   0 2071.49   49.00
   4   3   0 2032.40   48.90
   4   3   0 2008.90   48.60
  -5  -3   0   13.90    4.20
  -5  -3   0   16.40    4.30
  -5  -3   0   16.60    4.20
   5   3   0    7.50    4.10
   5   3   0   13.10    4.20
   5   3   0   16.70    4.50
   5   3   0    6.60    4.20
  -6  -3   0 1541.15   38.80
  -6  -3   0 1575.14   38.90
  -6  -3   0 1531.65   38.90
   6   3   0 1536.75   38.90
   6   3   0 1474.85   38.70
   6   3   0 1540.55   39.00
   6   3   0 1564.34   38.60
   6   3   0 1585.04   35.80
  -7  -3   0   -1.50    5.20
  -7  -3   0   11.40    5.80
  -7  -3   0   11.60    6.20
  -7  -3   0   11.70    5.80
   7   3   0   12.60    5.30
   7   3   0    7.40    3.20
   7   3   0   11.10    5.60
   7   3   0   11.50    5.60
   7   3   0   11.10    5.80
  -8  -3   0 1716.23   43.80
  -8  -3   0 1678.33   44.10
  -8  -3   0 1742.83   43.40
  -8  -3   0 1745.23   43.50
   8   3   0 1519.95   48.10
   8   3   0 1673.63   42.80
   8   3   0 1681.33   37.90
   8   3   0 1510.85   48.50
   8   3   0 1749.53   44.60
  -9  -3   0  500.25   21.10
  -9  -3   0  514.35   20.20
  -9  -3   0  489.95   21.10
  -9  -3   0  528.65   20.20
   9   3   0  443.36   20.20
   9   3   0  474.25   20.50
   9   3   0  492.45   19.70
   9   3   0  482.35   20.70
 -10  -3   0   46.70   10.10
 -10  -3   0   41.10   10.60
 -10  -3   0   54.09   11.30
  10   3   0   41.80   10.90
  10   3   0   35.00    9.70
  10   3   0   42.10   10.60
  10   3   0   51.29   10.90
   8  -4   0   15.10    9.00
   8  -4   0    1.10   10.90
   8  -4   0   15.00    8.80
   8  -4   0   -0.90   10.30
  -8   4   0    9.00   10.80
  -8   4   0    9.80    9.70
  -8   4   0    6.40    9.20
  -8   4   0    0.00   11.70
   7  -4   0   16.20    7.60
   7  -4   0   14.50    7.70
   7  -4   0    5.50    8.50
   7  -4   0    7.10    8.70
  -7   4   0   38.00    9.40
  -7   4   0   10.10   10.70
  -7   4   0    9.50    8.10
  -7   4   0    6.70    7.50
   6  -4   0  163.58   13.10
   6  -4   0  198.28   13.90
   6  -4   0  193.48   12.80
   6  -4   0  182.68   12.60
  -6   4   0  196.98   13.20
  -6   4   0  170.18   16.40
  -6   4   0  195.28   12.80
  -6   4   0  186.28   12.70
  -6   4   0  179.08   13.40
   5  -4   0   14.00    6.20
   5  -4   0   26.50    6.30
   5  -4   0   19.60    6.10
   5  -4   0   13.90    5.90
  -5   4   0   24.80    6.20
  -5   4   0   26.10    7.00
  -5   4   0   20.90    6.20
  -5   4   0   17.50    7.80
  -5   4   0   21.50    6.30
   4  -4   0   74.79    6.80
   4  -4   0   64.99    6.40
   4  -4   0   62.79    6.70
   4  -4   0   61.59    6.70
  -4   4   0   65.69    6.90
  -4   4   0   35.00    5.90
  -4   4   0   75.49   10.40
  -4   4   0   68.99    6.50
  -4   4   0   71.19    6.60
   3  -4   0  232.38   10.80
   3  -4   0  251.57   10.30
   3  -4   0  229.38   10.80
   3  -4   0  227.48   10.50
  -3   4   0  239.88   10.80
  -3   4   0  224.68   14.20
  -3   4   0  236.58   10.00
  -3   4   0  219.78    9.80
   2  -4   0  141.39    8.60
   2  -4   0  132.49    7.60
   2  -4   0  126.49    7.80
   2  -4   0  139.49    8.10
  -2   4   0  127.19    7.60
  -2   4   0  131.49    8.30
  -2   4   0  139.69    8.80
  -2   4   0  118.99   11.20
  -2   4   0  141.59    7.60
   1  -4   0 2017.20   47.60
   1  -4   0 2019.30   48.10
   1  -4   0 1992.40   47.80
   1  -4   0 2030.90   47.90
  -1   4   0 2010.60   47.90
  -1   4   0 1990.60   50.49
  -1   4   0 2033.70   47.50
  -1   4   0 1964.30   48.00
  -1   4   0 2014.50   47.80
   0  -4   0 1482.45   36.20
   0  -4   0 1447.26   36.00
   0  -4   0 1434.56   35.70
   0  -4   0 1466.15   36.00
   0   4   0 1444.06   36.30
   0   4   0 1472.55   36.10
   0   4   0 1460.65   35.70
   0   4   0 1515.15   36.10
  -1  -4   0   11.80    3.20
  -1  -4   0   11.30    3.60
  -1  -4   0    4.90    3.10
  -1  -4   0   16.60    3.60
   1   4   0   11.40    3.50
   1   4   0   12.30    3.50
   1   4   0   11.50    3.60
   1   4   0   17.60    3.60
  -2  -4   0   12.10    3.60
  -2  -4   0   21.20    4.10
  -2  -4   0   18.20    3.90
  -2  -4   0   14.90    3.60
   2   4   0   22.40    4.20
   2   4   0   18.20    3.90
   2   4   0   21.20    2.10
   2   4   0   20.40    3.70
   2   4   0   11.90    3.60
  -3  -4   0 2259.97   53.69
  -3  -4   0 2290.47   53.59
  -3  -4   0 2283.87   53.49
  -3  -4   0 2256.87   53.59
   3   4   0 2253.57   53.59
   3   4   0 2206.18   53.39
   3   4   0 2258.37   53.59
   3   4   0 2242.48   53.29
  -4  -4   0 2432.86   56.89
  -4  -4   0 2384.86   56.79
  -4  -4   0 2403.36   56.69
  -4  -4   0 2379.36   56.99
   4   4   0 2300.57   56.49
   4   4   0 2332.17   56.79
   4   4   0 2507.95   56.99
   4   4   0 2431.86   57.09
  -5  -4   0    7.80    4.30
  -5  -4   0   12.00    4.90
  -5  -4   0    5.40    4.70
  -5  -4   0    8.70    4.40
   5   4   0    3.40    4.20
   5   4   0    9.40    4.40
   5   4   0    2.70    4.30
   5   4   0    4.90    4.50
  -6  -4   0  328.17   13.60
  -6  -4   0  348.07   14.10
  -6  -4   0  325.17   13.80
  -6  -4   0  336.77   13.80
   6   4   0  299.67   13.00
   6   4   0  321.37   14.00
   6   4   0  318.07   13.30
   6   4   0  338.77   13.60
  -7  -4   0   70.69    7.90
  -7  -4   0   58.39   12.10
  -7  -4   0   90.69    8.50
   7   4   0   71.19    8.20
   7   4   0   75.59    8.20
   7   4   0   79.49    8.40
   7   4   0   64.29    7.60
  -8  -4   0  250.87   14.50
  -8  -4   0  241.18   14.10
  -8  -4   0  262.07   14.20
   8   4   0  254.57   15.20
   8   4   0  225.68   14.10
   8   4   0  274.77   14.70
   8   4   0  237.58   14.70
   8   4   0  243.98    8.60
  -9  -4   0   36.80    9.50
  -9  -4   0   49.40    9.70
  -9  -4   0   51.29   10.40
   9   4   0   60.69   10.20
   9   4   0   47.10   10.40
   9   4   0   51.69    9.20
   9   4   0   49.20    8.70
 -10  -4   0   19.80   11.10
 -10  -4   0   12.80    9.50
 -10  -4   0   27.50   11.00
  10   4   0   22.50    9.80
  10   4   0   24.80   10.10
  10   4   0   25.50   10.20
  10   4   0   37.10   10.20
 -11  -4   0   42.90   12.80
 -11  -4   0   21.40   12.80
 -11  -4   0   14.60   12.70
 -11  -4   0   12.20   11.00
  11   4   0   -8.30   11.00
  11   4   0   -1.20   11.70
  11   4   0    5.60   11.30
  11   4   0    3.20   11.10
   7  -5   0   27.30    9.60
   7  -5   0   24.40    9.30
   7  -5   0   27.70    9.20
   7  -5   0   36.20   10.90
  -7   5   0   13.40   13.00
  -7   5   0   31.60    9.60
  -7   5   0   21.30   10.10
  -7   5   0   32.00    9.80
   6  -5   0  401.26   18.90
   6  -5   0  433.56   19.00
   6  -5   0  443.76   18.80
   6  -5   0  406.76   18.60
  -6   5   0  447.26   18.60
  -6   5   0  410.86   18.70
  -6   5   0  448.56   24.40
  -6   5   0  430.36   19.50
   5  -5   0 2177.58   66.09
   5  -5   0 2411.26   59.29
   5  -5   0 2455.55   59.09
   5  -5   0 2462.45   58.49
  -5   5   0 2421.36   58.49
  -5   5   0 2414.26   58.39
  -5   5   0 2319.57   58.79
  -5   5   0 2385.56   63.89
  -5   5   0 2489.45   59.39
   4  -5   0   14.60    5.90
   4  -5   0    8.60    5.80
   4  -5   0    6.80    5.80
   4  -5   0   11.50    5.70
  -4   5   0   13.50    5.40
  -4   5   0   23.60    8.20
  -4   5   0    8.90    5.90
   3  -5   0 1580.54   40.60
   3  -5   0 1558.94   39.80
   3  -5   0 1591.94   40.30
   3  -5   0 1634.34   39.70
  -3   5   0 1589.34   39.70
  -3   5   0 1567.04   44.20
  -3   5   0 1405.16   46.90
  -3   5   0 1570.04   40.50
  -3   5   0 1612.14   39.70
   2  -5   0  170.28    9.80
   2  -5   0  177.58   10.20
   2  -5   0  164.88   10.20
   2  -5   0  166.98   10.30
  -2   5   0  190.58   10.90
  -2   5   0  156.08   14.00
  -2   5   0  187.28    9.80
  -2   5   0  175.78   10.90
  -2   5   0  180.68    9.40
   1  -5   0 4690.03  106.59
   1  -5   0 4734.13  106.29
   1  -5   0 4605.34  105.79
   1  -5   0 4715.63  106.29
  -1   5   0 4735.23  109.59
  -1   5   0 4671.73  106.39
  -1   5   0 4655.83  105.79
  -1   5   0 4607.64  105.99
  -1   5   0 4540.65  106.29
   0  -5   0  872.81   24.60
   0  -5   0  872.91   23.90
   0  -5   0  851.41   24.00
   0  -5   0  839.82   24.10
   0   5   0  883.71   24.80
   0   5   0  850.91   23.70
   0   5   0  855.51   24.00
   0   5   0  848.62   24.40
   0   5   0  903.41   27.20
  -1  -5   0 2827.42   65.19
  -1  -5   0 2750.82   65.09
  -1  -5   0 2761.82   65.29
  -1  -5   0 2758.42   65.39
   1   5   0 2754.62   65.19
   1   5   0 2742.93   65.49
   1   5   0 2710.73   65.19
   1   5   0 2851.61   65.09
  -2  -5   0 2943.11   69.09
  -2  -5   0 2938.21   68.79
  -2  -5   0 2919.01   68.89
  -2  -5   0 2969.60   68.79
   2   5   0 2882.61   68.99
   2   5   0 2928.51   68.79
   2   5   0 2931.51   68.79
  -3  -5   0  875.61   24.70
  -3  -5   0  893.51   25.00
  -3  -5   0  869.51   24.50
  -3  -5   0  830.92   24.60
   3   5   0  887.41   24.50
   3   5   0  860.91   21.20
   3   5   0  870.71   25.10
   3   5   0  878.01   24.80
   3   5   0  901.41   25.00
  -4  -5   0 1125.59   30.60
  -4  -5   0 1096.79   30.30
  -4  -5   0 1163.48   30.60
  -4  -5   0 1138.69   30.70
   4   5   0 1176.28   30.60
   4   5   0 1084.19   30.60
   4   5   0 1128.59   30.60
   4   5   0 1097.59   30.30
  -5  -5   0  786.92   23.90
  -5  -5   0  799.62   23.70
  -5  -5   0  816.22   23.90
  -5  -5   0  762.72   23.20
   5   5   0  826.72   24.30
   5   5   0  787.72   23.60
   5   5   0  768.82   23.60
   5   5   0  788.52   23.90
  -6  -5   0 1169.48   32.50
  -6  -5   0 1163.08   32.70
  -6  -5   0 1192.68   32.40
  -6  -5   0 1190.98   32.60
   6   5   0 1193.78   32.60
   6   5   0 1154.98   32.10
   6   5   0 1164.58   32.40
   6   5   0 1192.68   32.90
  -7  -5   0  186.08   13.40
  -7  -5   0  175.28   14.40
  -7  -5   0  210.48   13.00
  -7  -5   0  195.18   12.60
   7   5   0  210.18   13.80
   7   5   0  215.18   13.30
   7   5   0  223.48   13.00
   7   5   0  198.48   12.70
  -8  -5   0   55.69    8.60
  -8  -5   0   82.19    9.70
  -8  -5   0   65.99    9.20
  -8  -5   0   69.29    9.30
   8   5   0   63.69    9.30
   8   5   0   60.89   14.00
   8   5   0   66.99    9.40
   8   5   0   81.69    9.10
  -9  -5   0    5.20    9.20
  -9  -5   0   -9.10    8.20
   9   5   0   11.10    8.40
   9   5   0   22.70    8.70
   9   5   0    8.80    7.90
   9   5   0   13.60    8.50
 -10  -5   0   -5.00   10.40
 -10  -5   0   22.50   10.80
  10   5   0   -0.10   10.60
  10   5   0   13.10    9.80
  10   5   0   24.60   10.80
  10   5   0   13.60    9.20
 -11  -5   0  -16.30   12.10
 -11  -5   0   14.80   12.50
 -11  -5   0   -1.00   12.50
 -11  -5   0   14.00   11.40
  11   5   0    4.00   12.00
  11   5   0    1.70   12.50
  11   5   0   14.50   11.30
  11   5   0   33.60   13.20
   7  -6   0   49.10   11.70
   7  -6   0   31.80   12.20
   7  -6   0   60.89   12.20
   7  -6   0   41.40   11.80
  -7   6   0   39.30   12.00
  -7   6   0   36.70   15.30
  -7   6   0   65.79   12.60
  -7   6   0   56.69   13.20
  -7   6   0   44.10   11.90
   6  -6   0   34.30    9.80
   6  -6   0   39.90    9.80
   6  -6   0   43.80    9.70
   6  -6   0   66.69   10.30
  -6   6   0   38.50    9.50
  -6   6   0   44.10   11.00
  -6   6   0   24.40   10.20
  -6   6   0   54.39   13.70
   5  -6   0  111.09   10.80
   5  -6   0  102.39   10.40
   5  -6   0  102.69   11.10
   5  -6   0  102.29   10.60
  -5   6   0  114.39   10.60
  -5   6   0  106.09   11.20
  -5   6   0  115.29   11.70
  -5   6   0   86.79   15.10
   4  -6   0  527.65   20.00
   4  -6   0  486.35   18.80
   4  -6   0  471.85   18.30
  -4   6   0  509.85   19.90
  -4   6   0  467.05   24.50
  -4   6   0  484.75   18.50
   3  -6   0 1946.61   49.60
   3  -6   0 1986.00   49.20
   3  -6   0 1907.91   48.00
   3  -6   0 1883.71   48.50
  -3   6   0 1878.11   49.00
  -3   6   0 1892.61   48.10
  -3   6   0 1897.61   49.80
  -3   6   0 1972.30   54.09
  -3   6   0 1926.41   48.10
   2  -6   0    0.80    5.00
   2  -6   0    3.80    4.90
   2  -6   0    3.80    5.10
   2  -6   0   -0.30    5.40
  -2   6   0   -3.80    7.10
  -2   6   0    2.50    6.00
  -2   6   0   -0.60    4.70
  -2   6   0    5.40    6.60
  -2   6   0    4.10    4.80
   1  -6   0  175.78   10.20
   1  -6   0  181.58   11.30
   1  -6   0  163.18   11.10
   1  -6   0  148.09   10.10
  -1   6   0  149.99   13.00
  -1   6   0  151.48   11.30
  -1   6   0  165.78   10.40
  -1   6   0  164.18   11.90
  -1   6   0  158.08   10.00
   0  -6   0 1153.28   31.80
   0  -6   0 1138.09   31.50
   0  -6   0 1173.88   31.40
   0  -6   0 1152.58   31.90
   0   6   0 1179.88   31.30
   0   6   0 1146.39   34.70
   0   6   0 1108.69   32.00
   0   6   0 1183.88   32.10
   0   6   0 1149.89   31.40
  -1  -6   0 1264.57   34.20
  -1  -6   0 1320.77   34.30
  -1  -6   0 1332.47   34.80
  -1  -6   0 1286.77   34.90
   1   6   0 1277.17   34.40
   1   6   0 1279.07   34.50
   1   6   0 1291.57   34.00
   1   6   0 1242.68   34.70
  -2  -6   0   76.49    7.80
  -2  -6   0   73.39    7.30
  -2  -6   0   65.19    7.70
  -2  -6   0   62.89    6.90
   2   6   0   60.69    7.30
   2   6   0   59.69    6.70
   2   6   0   63.69    7.40
   2   6   0   66.89    7.20
  -3  -6   0   49.30    6.50
  -3  -6   0   66.89    7.50
  -3  -6   0   47.60    6.60
  -3  -6   0   57.59    7.00
   3   6   0   56.29    4.20
   3   6   0   61.29    6.80
   3   6   0   53.79    7.40
   3   6   0   45.70    6.50
   3   6   0   58.59    7.20
  -4  -6   0   18.40    6.00
  -4  -6   0   27.00    6.90
  -4  -6   0   21.30    5.80
  -4  -6   0   16.80    5.60
   4   6   0   25.20    5.90
   4   6   0   22.20    6.00
   4   6   0   24.50    5.90
   4   6   0   28.10    6.60
   4   6   0   25.60    3.90
  -5  -6   0   89.69    8.70
  -5  -6   0  107.79    9.60
  -5  -6   0   87.99    8.90
  -5  -6   0   76.79    8.40
   5   6   0  116.69   10.70
   5   6   0   87.19    7.70
   5   6   0   64.89    7.90
   5   6   0   98.19    9.40
   5   6   0  109.19    9.20
  -6  -6   0  346.07   16.30
  -6  -6   0  388.46   17.20
  -6  -6   0  389.76   16.60
  -6  -6   0  378.46   16.70
   6   6   0  378.56   16.20
   6   6   0  353.06   16.80
   6   6   0  392.16   16.80
   6   6   0  365.96   16.40
  -7  -6   0   35.00    8.10
  -7  -6   0   55.69    8.50
  -7  -6   0   48.40    8.40
  -7  -6   0   41.00    7.70
   7   6   0   36.90    7.90
   7   6   0   41.90    8.60
   7   6   0   47.30    8.30
   7   6   0   54.59    8.70
  -8  -6   0   29.20    8.40
  -8  -6   0   41.40    8.80
  -8  -6   0   28.20    8.40
  -8  -6   0   24.70    8.60
   8   6   0   35.90    9.30
   8   6   0   38.70    7.90
   8   6   0   27.80    8.60
   8   6   0   31.30    8.60
  -9  -6   0  131.09   12.80
  -9  -6   0  136.29   13.60
  -9  -6   0  145.69   13.40
   9   6   0  150.38   14.10
   9   6   0  140.69   13.30
   9   6   0  153.48   13.30
   9   6   0  143.19   12.50
 -10  -6   0  777.52   28.60
 -10  -6   0  775.82   29.20
  10   6   0  728.73   30.10
  10   6   0  756.92   28.90
  10   6   0  779.62   29.10
  10   6   0  688.83   27.90
   6  -7   0  179.18   15.60
   6  -7   0  183.58   15.00
   6  -7   0  167.98   15.30
   6  -7   0  190.98   16.20
  -6   7   0  178.78   15.80
  -6   7   0  175.98   14.90
  -6   7   0  171.78   20.50
  -6   7   0  167.78   15.40
  -6   7   0  193.38   15.20
   5  -7   0  161.08   13.60
   5  -7   0  142.69   13.40
   5  -7   0  154.78   13.00
   5  -7   0  165.88   13.50
  -5   7   0  144.39   13.70
  -5   7   0  123.79   16.80
   4  -7   0  298.87   16.50
   4  -7   0  262.57   17.20
   4  -7   0  275.57   16.80
   4  -7   0  322.67   17.10
  -4   7   0  295.77   23.30
  -4   7   0  270.37   16.10
  -4   7   0  299.37   17.90
  -4   7   0  286.97   23.80
   3  -7   0  487.05   20.00
   3  -7   0  469.75   20.40
   3  -7   0  497.95   20.00
   3  -7   0  506.05   19.10
  -3   7   0  468.55   18.90
  -3   7   0  478.15   27.90
  -3   7   0  489.25   20.50
  -3   7   0  474.75   21.20
  -3   7   0  474.95   18.80
   2  -7   0  312.67   15.20
   2  -7   0  292.77   16.10
   2  -7   0  275.67   15.20
   2  -7   0  295.97   15.50
  -2   7   0  289.07   14.20
  -2   7   0  285.07   14.90
  -2   7   0  278.07   16.80
  -2   7   0  284.37   15.90
  -2   7   0  300.07   20.70
   1  -7   0 1169.48   33.20
   1  -7   0 1140.39   33.60
   1  -7   0 1169.18   32.60
   1  -7   0 1161.88   33.30
  -1   7   0 1153.78   37.30
  -1   7   0 1124.59   33.90
  -1   7   0 1190.18   33.00
  -1   7   0 1145.39   33.70
  -1   7   0 1151.28   35.40
   0  -7   0  179.68   11.80
   0  -7   0  177.28    6.10
   0  -7   0  225.38   12.60
   0  -7   0  180.68   12.80
   0  -7   0  191.38   12.40
   0   7   0  198.88   15.60
   0   7   0  194.88   13.70
   0   7   0  196.48   11.70
   0   7   0  177.58   13.10
   0   7   0  201.18   12.30
  -1  -7   0   97.99    9.20
  -1  -7   0   99.59    9.90
  -1  -7   0   98.89    9.60
  -1  -7   0   95.79    9.10
   1   7   0  103.79    8.80
   1   7   0  100.79    9.20
   1   7   0   96.79   10.60
   1   7   0   93.29    9.90
   1   7   0   79.79    9.00
  -2  -7   0  157.18   12.40
  -2  -7   0  140.09   10.40
  -2  -7   0  167.38   11.40
  -2  -7   0  164.98   12.50
   2   7   0  163.78   11.70
   2   7   0  148.99   12.50
   2   7   0  168.18   11.70
   2   7   0  153.38   11.70
  -3  -7   0   38.30    7.30
  -3  -7   0   47.80    8.20
  -3  -7   0   51.09    7.90
  -3  -7   0   46.40    7.50
   3   7   0   36.20    7.10
   3   7   0   45.70    8.10
   3   7   0   44.20    7.10
   3   7   0   46.80    7.60
  -4  -7   0  402.06   17.80
  -4  -7   0  401.06   17.60
  -4  -7   0  388.66   16.80
  -4  -7   0  386.96   16.80
   4   7   0  372.36   16.80
   4   7   0  396.56   17.60
   4   7   0  401.96   16.60
   4   7   0  395.56   11.90
   4   7   0  393.86   17.70
  -5  -7   0  692.93   23.80
  -5  -7   0  656.93   22.50
  -5  -7   0  643.34   23.30
  -5  -7   0  646.54   22.60
   5   7   0  639.94   22.90
   5   7   0  671.83   18.80
   5   7   0  648.34   23.50
   5   7   0  672.23   22.90
   5   7   0  630.34   22.70
  -6  -7   0   16.30    7.20
  -6  -7   0   37.20    8.10
  -6  -7   0   31.00    7.90
   6   7   0   35.30    8.80
   6   7   0   34.70    8.00
   6   7   0   29.70    6.00
   6   7   0   37.20    8.00
   6   7   0   33.30    8.00
  -7  -7   0  588.54   21.90
  -7  -7   0  497.15   21.90
  -7  -7   0  574.14   22.40
  -7  -7   0  545.15   21.70
   7   7   0  478.05   20.90
   7   7   0  492.05   19.00
   7   7   0  547.75   22.70
   7   7   0  463.45   21.70
   7   7   0  568.24   21.80
  -8  -7   0  275.57   18.40
  -8  -7   0  298.37   17.80
  -8  -7   0  264.47   17.80
  -8  -7   0  283.47   17.60
   8   7   0  277.67   17.80
   8   7   0  271.17   17.20
   8   7   0  300.07   19.50
   8   7   0  289.77   17.60
   8   7   0  279.37   17.30
  -9  -7   0  110.79   12.80
  -9  -7   0  106.59   12.70
  -9  -7   0   83.69   12.30
   9   7   0   91.29   11.70
   9   7   0   96.59   12.90
   9   7   0   87.39   12.40
   9   7   0   97.09   12.70
   9   7   0   88.89   12.80
 -10  -7   0   92.69   14.50
 -10  -7   0   87.19   14.30
 -10  -7   0   94.89   13.30
 -10  -7   0   80.49   13.30
  10   7   0   82.59   13.30
  10   7   0   98.59    8.10
  10   7   0  104.49   13.10
  10   7   0  115.89   13.90
  10   7   0   95.49   14.60
  10   7   0   94.89    7.50
   5  -8   0   20.60   10.70
   5  -8   0   30.20   12.00
   5  -8   0   13.40   10.60
   5  -8   0   19.60   10.90
  -5   8   0   33.60   12.10
  -5   8   0   36.60   16.50
  -5   8   0   14.80   10.60
  -5   8   0   22.20   11.90
   4  -8   0   85.79   12.50
   4  -8   0   94.49   11.90
   4  -8   0   99.29   12.60
   4  -8   0   81.49   12.30
  -4   8   0  112.79   14.40
  -4   8   0  102.49   13.20
  -4   8   0   83.19   16.40
  -4   8   0  100.19   12.30
   3  -8   0  237.38   17.30
   3  -8   0  244.18   16.70
   3  -8   0  240.98   17.60
   3  -8   0  244.18   17.50
  -3   8   0  227.18   19.20
  -3   8   0  250.07   18.40
  -3   8   0  247.88   24.80
   2  -8   0    6.00    7.50
   2  -8   0   -5.10    7.50
   2  -8   0   -0.80    7.70
   2  -8   0    5.90    8.00
  -2   8   0    9.30    9.10
  -2   8   0    6.80    9.20
  -2   8   0    6.30    7.10
  -2   8   0   23.80   11.70
  -2   8   0   -3.30    6.50
   1  -8   0  117.49   16.80
   1  -8   0  149.49   12.40
   1  -8   0  144.49    7.80
   1  -8   0  161.88   13.50
   1  -8   0  145.79   12.70
  -1   8   0  146.39   13.60
  -1   8   0  140.59   13.30
  -1   8   0  125.69   14.60
  -1   8   0  167.48   15.00
  -1   8   0  152.88   12.60
   0  -8   0   43.40    8.20
   0  -8   0   22.20    7.60
   0  -8   0   15.70    7.00
   0  -8   0   11.10    7.40
   0   8   0   21.00   10.30
   0   8   0   22.80    7.90
   0   8   0   15.30    6.80
   0   8   0   18.20    7.10
   0   8   0   17.70    8.30
  -1  -8   0  403.06   18.70
  -1  -8   0  409.46   18.40
  -1  -8   0  400.36   18.80
  -1  -8   0  385.56   18.00
   1   8   0  358.66   17.40
   1   8   0  378.26   16.90
   1   8   0  408.96   22.40
   1   8   0  399.36   19.30
   1   8   0  369.46   17.60
  -2  -8   0   15.40    7.30
  -2  -8   0    8.10    6.80
  -2  -8   0   18.80    7.60
  -2  -8   0   16.20    7.10
   2   8   0   16.10    7.50
   2   8   0   16.70    9.40
   2   8   0   10.10   11.00
   2   8   0   14.40    7.90
   2   8   0   11.40    7.00
  -3  -8   0 2300.17   57.69
  -3  -8   0 2236.68   56.69
  -3  -8   0 2201.88   56.69
  -3  -8   0 2217.88   57.49
   3   8   0 2209.28   57.09
   3   8   0 2201.58   56.49
   3   8   0 2146.59   56.89
   3   8   0 2186.88   57.59
  -4  -8   0  637.04   24.00
  -4  -8   0  646.04   24.20
  -4  -8   0  630.64   23.00
   4   8   0  626.44   23.80
   4   8   0  613.14   23.60
   4   8   0  604.64   22.60
   4   8   0  587.74   23.60
  -5  -8   0  463.05   19.40
  -5  -8   0  481.65   21.50
  -5  -8   0  459.75   21.00
  -5  -8   0  478.05   20.70
   5   8   0  479.05   20.40
   5   8   0  441.06   19.80
   5   8   0  471.55   20.60
   5   8   0  496.45   15.10
   5   8   0  463.75   21.00
  -6  -8   0   22.50    9.20
  -6  -8   0   18.50    8.00
  -6  -8   0   10.20    7.30
  -6  -8   0    8.70    8.60
   6   8   0   22.80    8.50
   6   8   0   18.60    8.60
   6   8   0   14.70    8.10
   6   8   0   15.30    5.50
   6   8   0   18.40    8.80
  -7  -8   0  750.12   26.90
  -7  -8   0  815.22   28.80
  -7  -8   0  767.32   28.40
   7   8   0  745.93   27.20
   7   8   0  755.32   24.00
   7   8   0  749.82   28.40
   7   8   0  745.63   27.00
   7   8   0  748.23   27.90
  -8  -8   0  392.66   22.20
  -8  -8   0  416.26   22.40
  -8  -8   0  385.96   20.20
   8   8   0  422.06   21.50
   8   8   0  422.16   19.40
   8   8   0  439.06   23.00
   8   8   0  405.66   21.10
   8   8   0  352.06   20.80
  -9  -8   0    8.70   10.90
  -9  -8   0   -8.60    9.30
  -9  -8   0    1.40   11.10
  -9  -8   0   -3.80   10.30
   9   8   0    4.80    9.90
   9   8   0    1.00   11.40
   9   8   0    7.60   11.00
   9   8   0    4.00    9.30
   9   8   0  -13.40    9.20
   9   8   0   10.90    9.00
 -10  -8   0   75.29   12.70
 -10  -8   0   58.19   14.40
 -10  -8   0   71.29   14.30
 -10  -8   0   71.79   13.50
  10   8   0   69.59   12.90
  10   8   0   74.99   15.70
  10   8   0   90.99   10.30
  10   8   0   78.09   14.40
  10   8   0   59.19   13.90
  10   8   0   73.79   14.70
   4  -9   0    9.20   11.60
   4  -9   0   23.60   11.40
   4  -9   0   25.90   11.60
   4  -9   0    9.60   11.50
   4  -9   0    7.80    9.40
  -4   9   0   -2.40   16.30
  -4   9   0   21.50   12.00
  -4   9   0   20.40   11.90
  -4   9   0   13.30   10.00
  -4   9   0    4.30   14.20
   3  -9   0   35.60    8.00
   3  -9   0   44.90   11.70
   3  -9   0   41.10   11.50
   3  -9   0   39.10   11.40
   3  -9   0   31.90   11.50
  -3   9   0   46.30   15.90
  -3   9   0   50.09   11.30
  -3   9   0   10.30   10.50
  -3   9   0   35.20   12.60
  -3   9   0   31.70   10.30
   2  -9   0  540.05   24.40
   2  -9   0  484.25   24.10
   2  -9   0  505.45   23.20
   2  -9   0  514.75   17.20
   2  -9   0  532.35   22.90
  -2   9   0  516.35   23.50
  -2   9   0  516.45   30.20
  -2   9   0  504.75   23.60
  -2   9   0  520.75   25.70
   1  -9   0  359.16   20.80
   1  -9   0  379.46   19.80
   1  -9   0  405.06   20.70
   1  -9   0  386.96   12.30
   1  -9   0  395.86   21.20
  -1   9   0  404.16   20.40
  -1   9   0  363.56   26.10
  -1   9   0  387.36   20.40
  -1   9   0  415.66   22.80
   0  -9   0  145.69   13.10
   0  -9   0  179.08   15.10
   0  -9   0  149.49   13.40
   0  -9   0  183.88   17.30
   0   9   0  172.98   15.00
   0   9   0  173.38   15.80
   0   9   0  172.78   15.70
   0   9   0  152.18   16.60
  -1  -9   0  154.78   14.10
  -1  -9   0  172.18   14.10
  -1  -9   0  167.28   14.30
  -1  -9   0  161.98   14.30
   1   9   0  168.58   15.00
   1   9   0  157.48   16.70
   1   9   0  143.19   13.00
   1   9   0  139.29   12.50
   1   9   0  139.59   12.50
  -2  -9   0  299.67   19.00
  -2  -9   0  400.16   20.20
  -2  -9   0  397.26   19.80
   2   9   0  375.76   18.00
   2   9   0  372.86   20.30
   2   9   0  346.27   18.80
   2   9   0  291.97   26.70
  -3  -9   0  501.35   22.30
  -3  -9   0  463.15   21.70
  -3  -9   0  476.25   20.70
  -3  -9   0  471.35   21.30
   3   9   0  455.35   20.70
   3   9   0  432.56   21.10
   3   9   0  476.05   24.70
   3   9   0  452.75   22.50
   3   9   0  455.05   21.50
  -4  -9   0  196.48   16.10
  -4  -9   0  159.48   13.70
  -4  -9   0  169.38   15.10
  -4  -9   0  180.98   15.50
   4   9   0  176.48   15.30
   4   9   0  187.08   16.50
   4   9   0  192.58   16.50
   4   9   0  187.48   15.00
  -5  -9   0  696.73   25.50
  -5  -9   0  624.74   27.80
  -5  -9   0  677.33   25.60
  -5  -9   0  645.04   26.40
   5   9   0  658.73   25.30
   5   9   0  676.23   26.70
   5   9   0  650.83   26.50
   5   9   0  651.73   26.20
  -6  -9   0   40.40    9.90
  -6  -9   0   29.20   10.20
   6   9   0   43.60   11.20
   6   9   0   35.80   10.00
   6   9   0   35.60    6.30
  -7  -9   0    2.00    9.40
  -7  -9   0    3.60   10.50
  -7  -9   0    3.40    9.70
   7   9   0    3.60    6.70
   7   9   0   -1.80    9.90
   7   9   0   -6.00   10.10
   7   9   0    2.60    9.30
   7   9   0    2.70    9.10
  -8  -9   0   71.49   13.70
  -8  -9   0  111.09   14.10
  -8  -9   0   96.39   13.30
   8   9   0  102.89   13.60
   8   9   0   92.39   13.80
   8   9   0   97.39   13.10
   8   9   0   82.99   12.10
   8   9   0   93.89   12.70
   8   9   0   92.59   10.50
  -9  -9   0  174.58   16.20
  -9  -9   0  172.28   16.50
  -9  -9   0  155.78   17.10
  -9  -9   0  151.98   16.90
   9   9   0  189.68   14.80
   9   9   0  189.78   17.40
   9   9   0  153.78   15.90
   9   9   0  172.68   15.00
   9   9   0  157.98   17.40
   9   9   0  150.48   16.00
   2 -10   0  253.17   22.00
   2 -10   0  241.48   12.70
   2 -10   0  266.57   21.10
   2 -10   0  152.78   26.00
   2 -10   0  259.57   22.60
  -2  10   0  248.48   20.70
  -2  10   0  264.47   22.40
  -2  10   0  261.27   22.20
  -2  10   0  225.88   23.80
  -2  10   0  251.57   20.10
   1 -10   0  126.89   14.10
   1 -10   0  184.88   16.10
   1 -10   0  136.09   15.90
   1 -10   0  135.89   15.00
  -1  10   0  114.59   15.80
  -1  10   0  120.19   19.00
  -1  10   0  114.49   14.70
  -1  10   0   96.99   13.90
   0 -10   0  817.62   29.80
   0 -10   0  757.02   30.70
   0 -10   0  764.42   30.40
   0 -10   0  788.22   29.00
   0  10   0  714.33   29.20
   0  10   0  743.33   30.40
   0  10   0  815.42   36.30
   0  10   0  731.33   31.10
  -1 -10   0  968.80   33.00
  -1 -10   0  941.71   32.60
  -1 -10   0  934.01   33.70
  -1 -10   0  989.60   34.00
   1  10   0  931.31   32.90
   1  10   0  965.70   33.40
   1  10   0  902.61   37.90
   1  10   0  950.20   34.60
  -2 -10   0   21.60   15.30
  -2 -10   0    0.50    9.10
  -2 -10   0    3.30    9.50
  -2 -10   0   -6.40    9.40
   2  10   0   -1.10    9.10
   2  10   0   -7.20   10.30
   2  10   0    5.10   12.30
   2  10   0   -2.20    9.40
  -3 -10   0  130.29   14.40
  -3 -10   0  140.89   13.70
  -3 -10   0  136.89   15.20
  -3 -10   0  128.49   14.60
   3  10   0  163.08   14.40
   3  10   0  132.99   15.90
   3  10   0  134.09   14.20
   3  10   0  143.79   13.80
   3  10   0  136.49   14.20
  -4 -10   0   16.40    9.30
  -4 -10   0    6.70    9.70
  -4 -10   0    4.60   10.30
   4  10   0  -24.20    9.00
   4  10   0    5.10   11.10
   4  10   0   14.20   10.20
   4  10   0    3.10    9.60
  -5 -10   0  213.98   17.40
  -5 -10   0  212.48   19.20
  -5 -10   0  229.38   20.00
  -5 -10   0  185.88   15.70
   5  10   0  214.58   20.00
   5  10   0  181.48   16.00
   5  10   0  213.78   18.50
   5  10   0  200.78   18.30
   5  10   0  232.88   19.40
  -6 -10   0   69.69   11.20
  -6 -10   0   65.89   14.30
  -6 -10   0   59.59   12.40
  -6 -10   0   56.09   12.60
   6  10   0   64.39   13.10
   6  10   0   68.09   12.80
   6  10   0   68.09   12.80
   6  10   0   73.59   12.70
  -7 -10   0   15.60   10.40
  -7 -10   0   29.60   12.00
  -7 -10   0  -11.60   12.50
  -7 -10   0  -13.50   11.00
   7  10   0   -9.10   10.50
   7  10   0   -2.50   11.50
   7  10   0   -1.10    6.70
   7  10   0   -2.90   10.60
   7  10   0   14.10   11.00
   7  10   0    0.80   10.90
  -8 -10   0   80.29   14.30
  -8 -10   0   79.09   14.90
  -8 -10   0   96.49   15.60
  -8 -10   0   99.99   14.90
   8  10   0  109.49   11.20
   8  10   0  121.19   14.90
   8  10   0  116.69   15.60
   8  10   0   97.79   15.30
   8  10   0  123.19   15.20
   8  10   0  110.69   15.90
  -9 -10   0  320.27   26.60
  -9 -10   0  300.17   26.40
  -9 -10   0  314.97   24.60
  -9 -10   0  310.97   27.20
   9  10   0  404.26   26.40
   9  10   0  373.56   25.00
   9  10   0  372.26   24.80
   9  10   0  335.17   27.50
   9  10   0  331.77   25.20
   9  10   0  306.67   20.60
   1 -11   0   -2.20   13.40
   1 -11   0   -5.80   13.20
   1 -11   0    4.10   12.40
   1 -11   0    9.30   13.10
  -1  11   0   -1.10   13.00
  -1  11   0    4.90   13.50
  -1  11   0   -9.40   12.00
  -1  11   0   19.60   18.40
  -1  11   0    7.60   14.30
   0 -11   0   45.90   13.90
   0 -11   0   44.70   13.80
   0 -11   0   67.19   14.30
   0 -11   0   44.50   12.70
   0  11   0   42.30   13.20
   0  11   0   28.80   17.00
   0  11   0   52.59   15.10
   0  11   0   68.49   14.20
   0  11   0   48.20   12.40
  -1 -11   0    7.00   12.00
  -1 -11   0   10.70   12.20
  -1 -11   0   23.10   12.00
  -1 -11   0   26.30   12.30
   1  11   0   18.40   13.80
   1  11   0   25.70   12.40
   1  11   0   -0.80   10.90
   1  11   0   21.80   17.60
   1  11   0   15.80   11.90
  -2 -11   0  288.47   21.80
  -2 -11   0  345.97   23.80
  -2 -11   0  330.57   24.90
  -2 -11   0  326.47   22.80
   2  11   0  305.47   21.80
   2  11   0  304.17   23.60
   2  11   0  297.47   22.80
   2  11   0  307.37   23.30
   2  11   0  312.97   28.00
  -3 -11   0   75.09   14.40
  -3 -11   0   49.80   12.20
  -3 -11   0   82.99   27.00
  -3 -11   0   37.00   12.10
   3  11   0   42.70   13.30
   3  11   0   72.69   13.10
   3  11   0   44.20   13.00
   3  11   0   54.79   15.10
   3  11   0   64.39   13.80
  -4 -11   0   55.89   13.70
  -4 -11   0   27.50   12.00
  -4 -11   0   44.90   14.20
   4  11   0   44.90   13.90
   4  11   0   64.09   12.70
   4  11   0   42.50   15.40
   4  11   0   35.10   12.60
   4  11   0   60.79   13.10
  -5 -11   0  346.77   22.30
  -5 -11   0  309.07   23.40
  -5 -11   0  392.06   25.80
  -5 -11   0  315.87   25.20
   5  11   0  364.86   24.10
   5  11   0  350.66   24.30
   5  11   0  331.17   27.50
   5  11   0  300.67   24.40
   5  11   0  315.97   24.40
  -6 -11   0   73.29   14.50
  -6 -11   0   58.49   12.60
  -6 -11   0   71.39   14.50
  -6 -11   0   62.29   15.20
   6  11   0   28.90   13.40
   6  11   0   63.59   14.30
   6  11   0   35.90   15.20
   6  11   0   66.59   14.90
   6  11   0   55.39   14.20
  -7 -11   0   70.59   15.10
  -7 -11   0   76.89   15.40
  -7 -11   0   81.49   14.70
  -7 -11   0   54.99   13.70
   7  11   0   61.39   14.70
   7  11   0   83.39   16.80
   7  11   0   61.79   14.40
   7  11   0   51.59   15.00
   7  11   0   85.29   15.40
  -8 -11   0    4.40   15.30
  -8 -11   0   -1.10   11.80
  -8 -11   0  -17.90   13.70
  -8 -11   0    8.20   13.80
   8  11   0  -11.10   12.00
   8  11   0   14.20   14.70
   8  11   0   -0.10   14.90
   8  11   0  -14.00   14.20
   8  11   0    0.10   13.80
   8  11   0   12.40    9.50
  -2 -12   0  127.59   17.70
  -2 -12   0   89.89   16.70
  -2 -12   0  106.89   17.40
  -2 -12   0   39.30   26.30
   2  12   0  113.29   17.20
   2  12   0  127.79   18.10
   2  12   0  130.39   18.20
   2  12   0   82.09   15.70
   2  12   0   87.19   20.90
  -3 -12   0    4.00   15.00
  -3 -12   0   22.10   15.20
  -3 -12   0   16.50   13.70
  -3 -12   0   10.20   14.00
   3  12   0   24.60   14.40
   3  12   0   13.90   14.90
   3  12   0    2.70   17.30
   3  12   0   11.60   13.70
   3  12   0    6.20   14.00
  -4 -12   0  110.49   17.10
  -4 -12   0   82.19   17.50
  -4 -12   0   96.09   16.50
  -4 -12   0   74.19   15.80
   4  12   0   95.99   16.90
   4  12   0   57.89   15.60
   4  12   0   86.09   17.20
   4  12   0   78.79   19.60
   4  12   0   54.19   15.00
  -5 -12   0   13.50   13.40
  -5 -12   0    8.60   14.40
  -5 -12   0  -15.80   13.40
  -5 -12   0   -7.90   15.60
   5  12   0   -0.90   13.50
   5  12   0  -14.90   14.40
   5  12   0    3.00   16.60
   5  12   0    3.90   14.20
   5  12   0   -6.30   14.30
  -6 -12   0  440.06   30.10
  -6 -12   0  475.45   32.20
  -6 -12   0  422.26   28.90
  -6 -12   0  500.25   30.10
   6  12   0  505.95   32.20
   6  12   0  535.85   31.60
   6  12   0  480.45   31.10
   6  12   0  501.75   34.30
   6  12   0  455.05   30.80
   5  12  -1  768.92   40.20
   5  12  -1  818.02   37.10
   5  12  -1  769.12   36.10
   5  12  -1  819.12   37.50
   5  12  -1  785.72   37.10
  -5 -12   1  726.23   36.30
  -5 -12   1  840.32   38.90
  -5 -12   1  764.12   35.80
  -5 -12   1  800.42   34.90
   4  12  -1   89.19   16.70
   4  12  -1   79.59   19.90
   4  12  -1   65.19   16.10
   4  12  -1   23.50   18.20
   4  12  -1   77.29   16.50
  -4 -12   1   61.59   14.70
  -4 -12   1   76.49   17.70
  -4 -12   1   35.80   15.00
  -4 -12   1   68.69   16.90
   3  12  -1  233.88   24.30
   3  12  -1  288.87   27.50
   3  12  -1  298.67   26.40
   3  12  -1  257.27   21.90
   3  12  -1  315.87   28.00
  -3 -12   1  236.18   21.00
  -3 -12   1  258.97   22.70
  -3 -12   1  285.67   26.00
  -3 -12   1  270.97   22.50
   7  11  -1   96.29   17.30
   7  11  -1  134.99   18.20
   7  11  -1   97.59   16.40
   7  11  -1  131.39   17.20
   7  11  -1   83.79   16.10
   7  11  -1  125.49    9.40
  -7 -11   1  171.28   18.80
  -7 -11   1  133.89   16.90
  -7 -11   1   81.39   16.50
  -7 -11   1  127.49   18.30
   6  11  -1  -27.70   13.00
   6  11  -1   -9.30   12.50
   6  11  -1   -8.10   12.10
   6  11  -1   13.30   12.90
   6  11  -1    7.90   14.30
  -6 -11   1  -19.80   12.90
  -6 -11   1   -3.10   11.90
  -6 -11   1   -7.70   13.50
  -6 -11   1   38.10   14.70
   5  11  -1   14.10   13.00
   5  11  -1   14.70   12.50
   5  11  -1   14.60   13.10
   5  11  -1   19.50   12.70
   5  11  -1   19.30   14.30
  -5 -11   1   19.50   11.90
  -5 -11   1   44.10   20.90
  -5 -11   1   18.60   12.60
  -5 -11   1   20.90   12.60
   4  11  -1   83.29   14.20
   4  11  -1   53.19   15.60
   4  11  -1   85.89   14.90
   4  11  -1   66.69   14.30
   4  11  -1   60.99   14.60
  -4 -11   1   90.09   15.40
  -4 -11   1   70.89   12.90
  -4 -11   1   48.80   13.60
  -4 -11   1   64.19   14.30
   3  11  -1  254.17   21.40
   3  11  -1  277.57   23.50
   3  11  -1  244.78   22.10
   3  11  -1  302.07   23.10
   3  11  -1  260.47   22.60
  -3 -11   1  243.78   21.10
  -3 -11   1  259.57   22.90
  -3 -11   1  284.37   22.40
  -3 -11   1  273.47   24.70
   2  11  -1  118.99   15.20
   2  11  -1  115.79   19.40
   2  11  -1  119.49   15.50
   2  11  -1  118.69   16.10
   2  11  -1  113.69   14.90
  -2 -11   1   98.99   14.30
  -2 -11   1  142.29   17.00
  -2 -11   1  146.69   16.20
  -2 -11   1  106.99   15.10
   1  11  -1   65.99   13.60
   1  11  -1   71.19   13.60
   1  11  -1   63.29   17.30
   1  11  -1   63.79   14.10
   1  11  -1   66.69   14.90
  -1 -11   1   72.49   14.10
  -1 -11   1   50.59   12.30
  -1 -11   1   76.09   14.00
  -1 -11   1   69.99   14.10
   0  11  -1   77.99   19.10
   0  11  -1   37.90   14.20
   0  11  -1   59.79   14.50
   0  11  -1   55.19   13.30
   0  11  -1   64.29   16.00
   0 -11   1   75.49   15.20
   0 -11   1   78.59   13.80
   0 -11   1   74.09   14.10
   0 -11   1   88.89   15.10
   8  10  -1  511.15   27.40
   8  10  -1  587.84   29.40
   8  10  -1  569.04   29.40
   8  10  -1  603.44   31.40
   8  10  -1  567.94   22.00
   8  10  -1  550.04   28.60
  -8 -10   1  555.64   29.60
  -8 -10   1  525.45   27.90
  -8 -10   1  551.84   30.90
  -8 -10   1  523.25   28.50
   7  10  -1  168.88   16.70
   7  10  -1  194.78   17.60
   7  10  -1  185.78   17.70
   7  10  -1  194.98   18.30
   7  10  -1  190.68   13.00
   7  10  -1  188.78   17.60
  -7 -10   1  148.89   16.90
  -7 -10   1  172.98   16.60
  -7 -10   1  190.68   18.30
  -7 -10   1  167.58   15.90
   6  10  -1  189.68   16.90
   6  10  -1  166.88   10.50
   6  10  -1  196.88   18.20
   6  10  -1  200.08   17.10
   6  10  -1  180.58   17.30
   6  10  -1  180.78   16.40
  -6 -10   1  188.58   16.90
  -6 -10   1  198.28   17.40
  -6 -10   1  213.28   17.50
  -6 -10   1  227.28   20.90
   5  10  -1   58.89   12.30
   5  10  -1   79.69   13.50
   5  10  -1   64.99   12.70
   5  10  -1   45.70   13.40
  -5 -10   1   88.09   13.40
  -5 -10   1   63.89   12.60
  -5 -10   1   68.99   11.90
  -5 -10   1   80.99   12.80
   4  10  -1   -7.70    9.50
   4  10  -1    0.90    9.60
   4  10  -1    9.70   10.20
   4  10  -1   -0.90    9.70
   4  10  -1    2.60   11.10
  -4 -10   1   11.50    9.10
  -4 -10   1    7.50   10.60
  -4 -10   1    3.00   12.40
  -4 -10   1   10.20    9.90
   3  10  -1   12.90    9.70
   3  10  -1   -1.60   10.20
   3  10  -1  -18.70   11.40
   3  10  -1   -2.60    9.60
   3  10  -1   12.40    9.30
  -3 -10   1    4.50   10.60
  -3 -10   1    7.00   10.10
  -3 -10   1   13.60   11.00
  -3 -10   1   -6.20    8.80
   2  10  -1    5.70    9.70
   2  10  -1    3.90   10.80
   2  10  -1   -9.00   12.10
   2  10  -1   -0.80    8.90
  -2 -10   1    3.10    9.70
  -2 -10   1    3.20    9.30
  -2 -10   1  -16.40    9.00
  -2 -10   1    6.20    9.00
   1  10  -1   42.00   12.30
   1  10  -1   19.80   10.50
   1  10  -1   25.80   13.50
   1  10  -1   31.40   10.70
  -1 -10   1   26.80    9.80
  -1 -10   1   14.40   10.90
  -1 -10   1   20.40   10.20
  -1 -10   1   32.40   11.80
   0  10  -1  262.67   26.20
   0  10  -1  309.57   20.50
   0  10  -1  286.87   22.80
   0  10  -1  263.87   20.80
   0 -10   1  263.77   20.60
   0 -10   1  275.47   21.60
   0 -10   1  279.17   19.20
   0 -10   1  295.07   19.80
  -1  10  -1  360.56   29.80
  -1  10  -1  339.07   21.90
  -1  10  -1  369.36   25.20
  -1  10  -1  357.66   22.90
  -1  10  -1  314.27   20.00
   1 -10   1  324.87   21.50
   1 -10   1  316.17   25.40
   1 -10   1  373.66   23.60
   1 -10   1  340.97   22.50
  -2  10  -1   56.49   13.00
  -2  10  -1   55.09   17.40
  -2  10  -1   27.40   14.50
  -2  10  -1    6.20   11.70
  -2  10  -1   54.99   12.70
   2 -10   1   55.69   12.90
   2 -10   1   72.79   13.30
   2 -10   1   47.40   12.70
   2 -10   1   57.29   12.60
   2 -10   1   44.40    6.50
   9   9  -1    9.60   10.70
   9   9  -1    1.90   13.10
   9   9  -1   13.90   12.50
   9   9  -1   32.30   14.90
   9   9  -1   30.10   12.70
   9   9  -1   23.90   10.80
  -9  -9   1   11.20   13.00
  -9  -9   1   12.30   13.00
  -9  -9   1    1.60   11.80
  -9  -9   1    5.80   13.40
   8   9  -1  169.58   14.50
   8   9  -1  168.48   15.80
   8   9  -1  170.18   16.40
   8   9  -1  165.28   15.50
   8   9  -1  160.68   14.90
   8   9  -1  186.68   17.00
  -8  -9   1  155.88   16.90
  -8  -9   1  194.18   17.00
   7   9  -1   45.00   11.40
   7   9  -1   55.89   10.90
   7   9  -1   52.59   10.90
   7   9  -1   46.60   11.60
   7   9  -1   43.00   11.80
   7   9  -1   50.39    8.20
  -7  -9   1   45.40   12.80
  -7  -9   1   65.99   12.90
  -7  -9   1   54.49   12.10
   6   9  -1   17.00    9.60
   6   9  -1   33.00   10.20
   6   9  -1   27.50   12.60
   6   9  -1   48.40   10.60
   6   9  -1   33.50   10.90
   6   9  -1   23.60    6.10
  -6  -9   1   39.10   12.00
  -6  -9   1   36.20   10.90
  -6  -9   1   25.30   10.10
  -6  -9   1   35.40   10.90
   5   9  -1   15.60    9.80
   5   9  -1    1.90    4.00
   5   9  -1   -5.20    8.80
   5   9  -1  -14.60    8.00
   5   9  -1   -8.20    8.80
   5   9  -1    3.80    8.70
  -5  -9   1   -6.30    9.30
  -5  -9   1   -2.10    8.20
  -5  -9   1    5.10    8.50
  -5  -9   1   -0.10    8.90
   4   9  -1  543.45   25.30
   4   9  -1  497.15   23.40
   4   9  -1  507.35   23.20
   4   9  -1  488.45   31.30
   4   9  -1  500.95   22.30
  -4  -9   1  562.84   24.20
  -4  -9   1  473.95   30.30
  -4  -9   1  543.05   22.80
  -4  -9   1  523.75   23.30
   3   9  -1  871.81   32.70
   3   9  -1  874.21   29.20
   3   9  -1  885.41   30.90
   3   9  -1  874.51   30.40
   3   9  -1  859.81   30.10
  -3  -9   1  779.22   30.40
  -3  -9   1  879.31   29.80
  -3  -9   1  826.72   30.00
  -3  -9   1  910.21   30.70
   2   9  -1   52.49    9.50
   2   9  -1   60.19   10.80
   2   9  -1   43.80   13.30
   2   9  -1   44.90    9.90
   2   9  -1   44.70   10.90
  -2  -9   1   57.19    9.50
  -2  -9   1   46.20   13.40
  -2  -9   1   43.60    9.50
  -2  -9   1   42.20   10.20
   1   9  -1  707.03   25.60
   1   9  -1  731.83   27.00
   1   9  -1  671.73   31.00
   1   9  -1  725.13   28.60
   1   9  -1  776.62   27.30
  -1  -9   1  737.93   27.80
  -1  -9   1  754.62   26.70
  -1  -9   1  756.92   26.20
  -1  -9   1  699.43   27.20
   0   9  -1   30.60    9.10
   0   9  -1   36.80   12.80
   0   9  -1   41.70   10.30
   0   9  -1   44.40    9.30
   0  -9   1   39.30    9.50
   0  -9   1   56.29   10.40
   0  -9   1   32.90   10.20
   0  -9   1   34.60    9.80
  -1   9  -1  404.06   23.10
  -1   9  -1  436.06   21.00
  -1   9  -1  385.86   26.80
  -1   9  -1  409.56   20.40
   1  -9   1  383.76   21.30
   1  -9   1  438.26   22.10
   1  -9   1  434.56   20.20
   1  -9   1  396.66   20.20
  -2   9  -1   98.09   12.60
  -2   9  -1   70.79   13.10
  -2   9  -1   82.99   11.70
  -2   9  -1   88.49   17.50
   2  -9   1   97.79   13.30
   2  -9   1   78.69    7.30
   2  -9   1   75.19   11.70
   2  -9   1   77.49   11.90
   2  -9   1   78.39   11.70
  -3   9  -1  775.92   37.50
  -3   9  -1  657.63   27.50
  -3   9  -1  717.43   31.00
  -3   9  -1  780.22   29.30
  -3   9  -1  743.73   28.10
   3  -9   1  752.72   28.50
   3  -9   1  736.13   23.20
   3  -9   1  711.33   27.50
   3  -9   1  750.42   29.00
   3  -9   1  735.23   29.20
  -4   9  -1  193.98   23.00
  -4   9  -1  221.18   19.10
  -4   9  -1  209.38   17.60
  -4   9  -1  195.78   16.00
   4  -9   1  161.58   15.80
   4  -9   1  201.98   16.70
   4  -9   1  213.08   19.60
   4  -9   1  217.28   17.40
   4  -9   1  192.68   16.60
  10   8  -1   22.80   12.30
  10   8  -1   14.20   14.80
  10   8  -1   35.30   13.90
  10   8  -1   21.60    6.90
  10   8  -1   21.00   14.30
 -10  -8   1    3.40   12.90
 -10  -8   1   22.10   13.90
 -10  -8   1    3.00   12.10
 -10  -8   1   29.70   14.30
   9   8  -1   -2.10    8.40
   9   8  -1    5.20   12.00
   9   8  -1    4.10   10.20
   9   8  -1    3.20    9.70
   9   8  -1   -5.90   10.80
   9   8  -1  -16.30   22.20
  -9  -8   1   10.40   11.60
  -9  -8   1  -11.30   11.30
  -9  -8   1   -6.00   10.60
  -9  -8   1   -5.50   11.60
   8   8  -1   46.50   11.00
   8   8  -1   48.50    9.50
   8   8  -1   33.60    9.70
   8   8  -1   29.00   10.40
   8   8  -1   59.99   13.30
   8   8  -1   32.00   11.90
  -8  -8   1   53.09   12.20
  -8  -8   1   49.20   10.90
  -8  -8   1   29.60   11.10
   7   8  -1   14.50    9.30
   7   8  -1   27.80    9.20
   7   8  -1    1.70    9.70
   7   8  -1   20.30    7.20
   7   8  -1   28.60   10.50
   7   8  -1    8.20    8.60
  -7  -8   1   25.90   10.70
  -7  -8   1   18.90    9.20
  -7  -8   1   10.20    9.80
   6   8  -1  485.45   21.20
   6   8  -1  462.75   21.50
   6   8  -1  478.25   17.00
   6   8  -1  498.35   22.60
   6   8  -1  524.65   23.00
   6   8  -1  506.15   22.50
  -6  -8   1  510.75   23.00
  -6  -8   1  487.75   21.90
  -6  -8   1  497.95   22.80
  -6  -8   1  464.75   21.00
   5   8  -1  377.16   19.00
   5   8  -1  343.77   19.20
   5   8  -1  340.87   18.60
   5   8  -1  363.06   12.60
   5   8  -1  354.06   17.80
   5   8  -1  331.67   18.70
  -5  -8   1  366.76   17.60
  -5  -8   1  362.26   18.60
  -5  -8   1  355.86   19.20
  -5  -8   1  341.27   19.10
   4   8  -1   13.90    3.20
   4   8  -1   18.30    8.30
   4   8  -1    5.10    7.30
   4   8  -1    1.90    7.40
   4   8  -1   16.60    8.10
   4   8  -1   10.10    7.60
  -4  -8   1   11.10    7.80
  -4  -8   1    4.00    8.00
  -4  -8   1    7.40    7.90
  -4  -8   1   -1.30    6.70
   3   8  -1   13.10    7.80
   3   8  -1    6.90    7.30
   3   8  -1   20.80    7.80
   3   8  -1    7.30    8.00
  -3  -8   1    7.70    7.20
  -3  -8   1    3.80    7.10
  -3  -8   1   24.60    8.70
  -3  -8   1    7.20    7.80
   2   8  -1 1102.89   34.10
   2   8  -1 1122.39   33.00
   2   8  -1 1113.49   33.30
   2   8  -1 1073.09   33.20
   2   8  -1 1077.79   35.70
  -2  -8   1 1079.29   33.10
  -2  -8   1 1120.99   33.10
  -2  -8   1 1083.29   32.70
  -2  -8   1 1108.79   33.70
   1   8  -1 1393.86   38.30
   1   8  -1 1321.67   38.90
   1   8  -1 1372.06   39.70
   1   8  -1 1352.06   42.90
   1   8  -1 1406.56   39.00
  -1  -8   1 1382.76   38.90
  -1  -8   1 1350.06   39.30
  -1  -8   1 1365.16   38.60
  -1  -8   1 1411.76   39.60
   0   8  -1   23.90    7.20
   0   8  -1   25.80    8.50
   0   8  -1   18.70   10.20
   0   8  -1   43.60    8.30
   0   8  -1   33.60    8.90
   0  -8   1   19.00    7.30
   0  -8   1   17.40    7.40
   0  -8   1    9.20    7.20
   0  -8   1   30.20    8.60
  -1   8  -1   89.59    9.70
  -1   8  -1   58.59   10.40
  -1   8  -1   87.39    9.80
  -1   8  -1   80.69   12.90
  -1   8  -1   80.69   10.30
   1  -8   1   89.39   10.50
   1  -8   1  102.79   11.20
   1  -8   1   76.99    9.80
   1  -8   1   86.29   13.10
   1  -8   1   78.89    6.20
  -2   8  -1  148.59   13.40
  -2   8  -1  138.19   12.90
  -2   8  -1  137.39   15.90
  -2   8  -1  130.49   12.80
  -2   8  -1  143.19   12.90
   2  -8   1  139.89   12.10
   2  -8   1  131.79   11.70
   2  -8   1  143.69    9.30
   2  -8   1  134.79   12.00
   2  -8   1  119.29   11.80
  -3   8  -1    4.90   11.90
  -3   8  -1   11.00   12.20
  -3   8  -1   16.90    9.40
  -3   8  -1    8.90   10.10
   3  -8   1   29.20    8.80
   3  -8   1   17.10    8.90
   3  -8   1    6.50    8.50
   3  -8   1    3.70    8.20
   3  -8   1   10.40    6.30
  -4   8  -1   82.09   13.70
  -4   8  -1   59.29   15.60
  -4   8  -1   53.19   11.60
   4  -8   1   71.49    9.50
   4  -8   1   55.19   10.80
   4  -8   1   73.39   11.70
   4  -8   1   71.59   10.90
   4  -8   1   73.59   11.00
  -5   8  -1   53.59   17.60
  -5   8  -1   31.60   11.70
  -5   8  -1   35.90   11.50
  -5   8  -1    6.20   11.60
  -5   8  -1   29.70   10.60
   5  -8   1   35.30   11.90
   5  -8   1   18.60   11.10
   5  -8   1   34.20    9.90
   5  -8   1   29.60   10.40
   5  -8   1   48.40   11.70
  10   7  -1  563.04   27.90
  10   7  -1  659.83   29.70
  10   7  -1  585.64   27.40
  10   7  -1  596.64   30.90
 -10  -7   1  633.24   26.70
 -10  -7   1  603.54   29.70
 -10  -7   1  615.34   28.60
 -10  -7   1  599.94   29.20
   9   7  -1   -0.50   10.90
   9   7  -1    6.80    6.40
   9   7  -1    5.00   11.50
   9   7  -1   12.80    9.90
   9   7  -1    4.50    9.70
  -9  -7   1   26.50   10.10
  -9  -7   1   13.90   10.50
  -9  -7   1   -7.80   10.60
  -9  -7   1   29.80   11.50
   8   7  -1  804.92   28.60
   8   7  -1  804.22   30.40
   8   7  -1  841.12   29.20
   8   7  -1  788.52   28.40
   8   7  -1  779.72   24.00
  -8  -7   1  764.22   27.50
  -8  -7   1  789.62   29.60
  -8  -7   1  784.32   29.10
   7   7  -1   76.59   10.60
   7   7  -1   65.59   10.90
   7   7  -1   67.19    9.90
   7   7  -1   68.49    9.00
  -7  -7   1   70.09    9.30
  -7  -7   1   62.59   10.10
  -7  -7   1   83.69   17.80
  -7  -7   1   68.59   10.50
   6   7  -1 2044.90   52.79
   6   7  -1 2052.69   51.49
   6   7  -1 2010.80   52.79
   6   7  -1 2058.69   53.39
   6   7  -1 2038.10   53.39
  -6  -7   1 2039.90   53.09
  -6  -7   1 1862.31   57.19
  -6  -7   1 2027.70   52.89
  -6  -7   1 1961.40   52.19
   5   7  -1   32.10    8.20
   5   7  -1   37.60    7.70
   5   7  -1   32.90    7.80
   5   7  -1   30.80    7.60
   5   7  -1   38.70    7.90
  -5  -7   1   29.50    7.90
  -5  -7   1   33.80    7.90
  -5  -7   1   29.80    8.50
   4   7  -1 2589.04   64.99
   4   7  -1 2594.34   59.29
   4   7  -1 2681.03   65.49
   4   7  -1 2616.24   65.59
   4   7  -1 2640.44   65.59
   4   7  -1 2648.33   64.99
  -4  -7   1 2593.64   65.19
  -4  -7   1 2611.14   64.89
  -4  -7   1 2672.63   65.69
  -4  -7   1 2530.55   64.29
   3   7  -1  840.52   26.70
   3   7  -1  894.51   28.90
   3   7  -1  877.51   26.70
   3   7  -1  857.51   27.10
   3   7  -1  829.22   27.30
  -3  -7   1  853.71   27.40
  -3  -7   1  835.52   27.30
  -3  -7   1  857.81   27.00
  -3  -7   1  826.62   26.30
   2   7  -1   11.10    6.40
   2   7  -1    6.50    6.80
   2   7  -1   13.60    6.30
   2   7  -1    6.50    5.70
   2   7  -1   11.50    6.50
  -2  -7   1   14.00    6.00
  -2  -7   1    4.20    5.20
  -2  -7   1    7.50    6.40
  -2  -7   1    8.10    6.10
   1   7  -1   60.19    7.40
   1   7  -1   61.89    7.70
   1   7  -1   35.70    8.60
   1   7  -1   48.20    7.70
   1   7  -1   52.39    8.10
  -1  -7   1   64.19    8.40
  -1  -7   1   67.49    8.50
  -1  -7   1   55.09    8.40
  -1  -7   1   50.29    7.20
   0   7  -1  303.77   14.10
   0   7  -1  295.07   15.00
   0   7  -1  282.27   15.60
   0   7  -1  292.57   14.60
   0   7  -1  305.27   18.10
   0  -7   1  286.87   13.80
   0  -7   1  293.67   14.80
   0  -7   1  311.37   15.20
   0  -7   1  307.67   14.60
  -1   7  -1 1155.88   34.00
  -1   7  -1 1180.98   34.30
  -1   7  -1 1167.68   38.30
  -1   7  -1 1226.58   33.60
   1  -7   1 1185.98   28.30
   1  -7   1 1185.28   33.90
   1  -7   1 1211.88   34.30
   1  -7   1 1125.99   33.30
   1  -7   1 1233.38   33.40
  -2   7  -1  325.77   17.20
  -2   7  -1  326.57   16.80
  -2   7  -1  350.96   16.00
  -2   7  -1  357.06   22.30
  -2   7  -1  372.66   15.80
   2  -7   1  337.17   16.80
   2  -7   1  369.06   16.60
   2  -7   1  353.46   16.70
   2  -7   1  367.56   16.00
   2  -7   1  362.96   12.70
  -3   7  -1   80.49   13.50
  -3   7  -1   88.79    9.10
  -3   7  -1   81.39   10.70
  -3   7  -1   71.69   10.30
   3  -7   1   95.99    8.10
   3  -7   1   67.59    9.20
   3  -7   1   70.19    9.10
   3  -7   1   95.29   10.00
   3  -7   1   73.89    9.00
  -4   7  -1    5.70    8.90
  -4   7  -1    4.10    7.30
  -4   7  -1   -4.10   10.90
   4  -7   1    4.20    6.50
   4  -7   1   -2.50    7.40
   4  -7   1   -1.00    7.20
   4  -7   1   -3.70    7.60
   4  -7   1    0.10    7.50
  -5   7  -1   89.09   15.60
  -5   7  -1   66.99   11.20
  -5   7  -1   85.09   12.50
   5  -7   1   90.49   12.80
   5  -7   1   72.99   12.70
   5  -7   1  108.19   11.60
   5  -7   1   96.49   10.90
   5  -7   1   71.39   10.80
  -6   7  -1   99.29   13.80
  -6   7  -1   69.29   16.80
  -6   7  -1   79.79   12.40
  -6   7  -1   91.09   13.10
  -6   7  -1   76.29   11.20
   6  -7   1   80.79   12.50
   6  -7   1   76.39   11.80
   6  -7   1   73.69   11.60
   6  -7   1   82.89   12.40
   6  -7   1   73.79   11.80
  10   6  -1   24.30   12.00
  10   6  -1   16.00   10.50
  10   6  -1    1.00   11.50
  10   6  -1   10.10   12.00
 -10  -6   1   -5.00   12.00
 -10  -6   1   -1.20   11.10
 -10  -6   1   42.70   13.30
 -10  -6   1    5.00   11.40
   9   6  -1  314.37   19.90
   9   6  -1  319.67   21.30
   9   6  -1  313.57   19.60
   9   6  -1  305.37   19.00
  -9  -6   1  335.87   21.20
  -9  -6   1  305.57   20.10
  -9  -6   1  321.97   20.00
   8   6  -1  439.06   14.90
   8   6  -1  426.06   20.30
   8   6  -1  440.06   21.70
   8   6  -1  448.76   20.80
   8   6  -1  471.05   20.70
  -8  -6   1  459.65   20.60
  -8  -6   1  437.06   20.50
  -8  -6   1  505.95   21.60
  -8  -6   1  442.16   21.20
   7   6  -1    1.70    7.90
   7   6  -1    5.50    7.40
   7   6  -1   18.70    7.80
   7   6  -1    9.90    5.80
  -7  -6   1    4.60    7.60
  -7  -6   1   17.70    7.20
  -7  -6   1    8.10    7.50
  -7  -6   1   10.40    8.10
   6   6  -1   48.70    8.00
   6   6  -1   70.89    9.60
   6   6  -1   66.49    7.70
   6   6  -1   74.89    9.60
   6   6  -1   70.29    9.10
  -6  -6   1   52.09    8.40
  -6  -6   1   48.10    8.20
  -6  -6   1   49.60    8.30
  -6  -6   1   49.50    8.10
   5   6  -1  147.59   11.30
   5   6  -1  169.88   12.20
   5   6  -1  171.38   13.00
   5   6  -1  164.68   11.40
   5   6  -1  167.08   12.80
  -5  -6   1  168.08   12.40
  -5  -6   1  181.98   12.60
  -5  -6   1  164.88   12.90
  -5  -6   1  171.48   12.80
   4   6  -1  373.36   16.70
   4   6  -1  383.26   16.60
   4   6  -1  413.96   16.70
   4   6  -1  418.06   16.10
   4   6  -1  358.46   15.60
  -4  -6   1  393.66   16.10
  -4  -6   1  400.76   16.50
  -4  -6   1  429.36   17.10
  -4  -6   1  378.86   16.70
   3   6  -1   78.19    4.70
   3   6  -1   72.39    8.40
   3   6  -1   92.49    9.00
   3   6  -1   81.79    7.90
   3   6  -1   74.19    8.00
   3   6  -1   81.49    7.80
  -3  -6   1   99.59    8.90
  -3  -6   1   66.79    7.70
  -3  -6   1   99.29    9.10
  -3  -6   1   87.89    8.00
   2   6  -1   99.39    9.80
   2   6  -1   93.79    8.50
   2   6  -1   97.29    9.10
   2   6  -1  101.69    8.80
   2   6  -1  105.69    8.90
  -2  -6   1  103.79    9.00
  -2  -6   1  102.19    9.10
  -2  -6   1   97.09    8.90
  -2  -6   1  109.39   10.10
   1   6  -1    3.20    4.50
   1   6  -1    4.80    6.20
   1   6  -1    2.40    5.10
   1   6  -1    2.60    4.60
   1   6  -1   10.30    5.30
  -1  -6   1    1.70    4.50
  -1  -6   1    4.00    4.80
  -1  -6   1   10.10    5.30
  -1  -6   1    4.10    5.00
   0   6  -1  585.84   22.90
   0   6  -1  604.14   19.10
   0   6  -1  574.04   19.60
   0   6  -1  584.24   19.40
   0   6  -1  575.74   20.00
   0  -6   1  594.44   19.70
   0  -6   1  570.94   19.00
   0  -6   1  569.04   19.70
   0  -6   1  614.14   19.40
  -1   6  -1  189.78   12.20
  -1   6  -1  196.08   11.00
  -1   6  -1  197.38   14.50
  -1   6  -1  196.48   11.90
  -1   6  -1  175.18   10.30
   1  -6   1  198.98    7.50
   1  -6   1  188.38   11.20
   1  -6   1  182.48   10.80
   1  -6   1  200.58   11.90
   1  -6   1  167.28   10.40
  -2   6  -1   54.79    9.90
  -2   6  -1   42.40    7.50
  -2   6  -1   45.00    6.50
  -2   6  -1   47.00    7.40
  -2   6  -1   47.50    6.50
   2  -6   1   47.70    5.20
   2  -6   1   41.00    6.80
   2  -6   1   33.10    6.20
   2  -6   1   58.89    7.10
   2  -6   1   42.80    7.00
  -3   6  -1   -0.40    8.20
  -3   6  -1   -7.70    6.10
  -3   6  -1    3.20    5.30
  -3   6  -1   -1.70    7.50
  -3   6  -1    4.70    5.10
   3  -6   1   -4.00    5.50
   3  -6   1    3.60    5.30
   3  -6   1   -3.30    5.20
   3  -6   1    1.30    4.70
   3  -6   1   -6.60    5.50
  -4   6  -1  759.42   24.90
  -4   6  -1  729.23   24.70
  -4   6  -1  766.62   30.50
  -4   6  -1  752.92   23.40
  -4   6  -1  766.12   23.40
   4  -6   1  756.02   24.20
   4  -6   1  754.12   24.20
   4  -6   1  751.32   23.40
   4  -6   1  734.83   24.60
  -5   6  -1 1205.28   33.40
  -5   6  -1 1202.68   35.00
  -5   6  -1 1181.68   34.60
  -5   6  -1 1213.68   41.80
  -5   6  -1 1191.38   40.70
   5  -6   1 1157.58   33.70
   5  -6   1 1209.78   34.80
   5  -6   1 1235.48   33.40
   5  -6   1 1165.88   33.90
  -6   6  -1   42.20   10.10
  -6   6  -1   28.60    9.60
  -6   6  -1   26.70   12.90
  -6   6  -1   28.70   10.40
  -6   6  -1   24.40    8.40
   6  -6   1   30.50    9.90
   6  -6   1   21.40    8.80
   6  -6   1   21.80    8.50
   6  -6   1   29.50    9.00
   6  -6   1   35.30    9.30
  -7   6  -1   85.29   13.00
  -7   6  -1   92.09   12.40
  -7   6  -1   69.09   12.60
  -7   6  -1   83.99   12.80
  -7   6  -1   99.09   17.00
   7  -6   1   83.89   11.60
   7  -6   1   76.79   13.40
   7  -6   1   83.79   12.10
   7  -6   1   98.59   12.70
   7  -6   1   75.39   11.90
  10   5  -1   43.10   12.00
  10   5  -1   48.50   12.20
  10   5  -1   69.59   12.40
  10   5  -1   45.10   12.80
 -10  -5   1   69.49   13.50
 -10  -5   1   44.10   12.60
   9   5  -1  375.26   20.20
   9   5  -1  348.27   19.80
   9   5  -1  343.67   19.20
   9   5  -1  366.26   20.80
  -9  -5   1  384.86   28.40
  -9  -5   1  368.66   19.70
  -9  -5   1  343.47   21.40
   8   5  -1  164.68   14.70
   8   5  -1  153.28   13.20
   8   5  -1  145.09   12.60
   8   5  -1  159.28   13.80
  -8  -5   1  164.28   15.40
  -8  -5   1  142.19   12.30
  -8  -5   1  148.09   12.50
  -8  -5   1  155.68   12.80
   7   5  -1  370.16   17.90
   7   5  -1  376.76   17.40
   7   5  -1  366.16   17.20
   7   5  -1  368.76   17.00
   7   5  -1  370.96   12.20
  -7  -5   1  370.06   16.80
  -7  -5   1  331.77   16.60
  -7  -5   1  355.46   17.20
  -7  -5   1  392.06   17.40
   6   5  -1  995.90   26.00
   6   5  -1  982.40   29.10
   6   5  -1  981.20   29.00
   6   5  -1 1008.20   29.60
   6   5  -1  940.31   28.70
  -6  -5   1 1023.70   29.40
  -6  -5   1  982.30   29.30
  -6  -5   1 1004.20   29.20
  -6  -5   1 1038.80   29.80
   5   5  -1  364.76   15.90
   5   5  -1  368.86   15.20
   5   5  -1  404.66   16.10
   5   5  -1  412.56   15.90
  -5  -5   1  379.46   15.80
  -5  -5   1  402.76   15.80
  -5  -5   1  377.96   16.00
  -5  -5   1  396.86   15.50
   4   5  -1  252.47   12.10
   4   5  -1  278.47   13.00
   4   5  -1  269.37   12.90
   4   5  -1  251.67   12.30
  -4  -5   1  246.98   12.70
  -4  -5   1  286.67   12.90
  -4  -5   1  245.48   11.90
  -4  -5   1  265.67   12.10
   3   5  -1  763.82   23.10
   3   5  -1  760.22   23.20
   3   5  -1  771.72   23.10
   3   5  -1  795.62   22.90
   3   5  -1  786.72   23.10
  -3  -5   1  748.03   22.50
  -3  -5   1  790.42   23.30
  -3  -5   1  803.52   23.10
  -3  -5   1  767.82   23.20
   2   5  -1  189.18    9.80
   2   5  -1  198.38   10.70
   2   5  -1  186.58   10.00
   2   5  -1  184.48   11.10
   2   5  -1  177.48   10.00
  -2  -5   1  175.88    9.50
  -2  -5   1  155.48    9.40
  -2  -5   1  187.78   10.30
  -2  -5   1  180.88   10.30
   1   5  -1  985.60   27.50
   1   5  -1 1003.30   27.00
   1   5  -1  970.80   27.20
   1   5  -1 1005.20   29.20
   1   5  -1 1025.80   27.40
  -1  -5   1  986.50   27.50
  -1  -5   1 1024.30   27.30
  -1  -5   1 1039.40   27.70
  -1  -5   1  987.40   27.10
   0   5  -1 3701.43   86.79
   0   5  -1 3697.03   86.59
   0   5  -1 3810.72   86.39
   0   5  -1 3752.52   86.59
   0   5  -1 3692.73   89.19
   0  -5   1 3765.22   86.59
   0  -5   1 3850.01   86.69
   0  -5   1 3738.53   86.79
   0  -5   1 3818.92   86.79
  -1   5  -1   25.70    4.70
  -1   5  -1   25.50    5.50
  -1   5  -1   32.00    7.60
  -1   5  -1   26.50    5.60
  -1   5  -1   28.00    4.70
   1  -5   1   25.80    5.20
   1  -5   1   26.60    4.80
   1  -5   1   29.80    3.30
   1  -5   1   28.50    5.20
   1  -5   1   15.10    4.90
  -2   5  -1 2096.29   55.99
  -2   5  -1 2136.19   52.19
  -2   5  -1 2141.99   52.79
  -2   5  -1 2151.88   51.69
  -2   5  -1 2163.98   51.59
   2  -5   1 2112.79   52.29
   2  -5   1 2170.68   51.59
   2  -5   1 2199.08   52.09
   2  -5   1 2168.68   51.99
  -3   5  -1   81.59    7.90
  -3   5  -1  100.79   11.20
  -3   5  -1   83.89    7.00
  -3   5  -1   92.59    7.30
   3  -5   1   86.79    7.60
   3  -5   1   86.09    7.40
   3  -5   1   88.59    7.90
   3  -5   1   89.89    7.50
  -4   5  -1  482.45   22.60
  -4   5  -1  494.35   16.70
  -4   5  -1  511.75   17.10
  -4   5  -1  536.35   18.30
  -4   5  -1  510.25   18.00
   4  -5   1  530.45   17.20
   4  -5   1  518.75   18.20
   4  -5   1  475.55   21.00
   4  -5   1  494.45   17.40
  -5   5  -1   11.80    6.80
  -5   5  -1    7.80    5.40
  -5   5  -1    8.00    9.80
  -5   5  -1    2.60    6.50
  -5   5  -1    7.50    5.70
   5  -5   1    7.30    6.00
   5  -5   1   -2.10    5.60
   5  -5   1    4.40    6.10
   5  -5   1    6.20    5.80
  -6   5  -1  860.81   34.30
  -6   5  -1  878.71   27.70
  -6   5  -1  936.21   29.70
  -6   5  -1  896.21   27.00
  -6   5  -1  921.91   28.20
   6  -5   1  880.61   26.80
   6  -5   1  871.81   26.90
   6  -5   1  943.81   28.00
   6  -5   1  912.21   27.30
  -7   5  -1  726.23   25.60
  -7   5  -1  724.63   25.10
  -7   5  -1  733.43   25.80
  -7   5  -1  716.53   25.70
  -7   5  -1  723.13   32.30
   7  -5   1  724.83   25.70
   7  -5   1  749.42   24.70
   7  -5   1  677.53   24.80
   7  -5   1  780.12   25.50
  10   4  -1   41.90   11.20
  10   4  -1   27.80   11.90
  10   4  -1   36.20   11.80
  10   4  -1   45.60   13.00
 -10  -4   1   60.29   12.70
 -10  -4   1   42.20   11.90
 -10  -4   1   54.69   12.70
   9   4  -1   92.19   12.40
   9   4  -1  101.79   11.60
   9   4  -1  117.19   12.30
   9   4  -1  102.19   12.00
  -9  -4   1  139.49   13.10
  -9  -4   1  118.59   12.20
   8   4  -1  255.47   16.70
   8   4  -1  255.07   17.70
   8   4  -1  289.37   15.60
   8   4  -1  269.57   15.90
  -8  -4   1  272.57   16.90
  -8  -4   1  279.07   16.30
  -8  -4   1  276.57   16.70
  -8  -4   1  273.17   16.30
   7   4  -1   60.19    8.10
   7   4  -1   77.49    9.20
   7   4  -1   65.19    8.70
   7   4  -1   80.19    8.70
  -7  -4   1   67.99    8.30
  -7  -4   1   68.99    9.10
  -7  -4   1   71.99    8.60
  -7  -4   1   71.19    8.70
   6   4  -1 1040.90   29.80
   6   4  -1 1065.79   30.40
   6   4  -1 1080.09   25.70
   6   4  -1 1060.69   30.10
   6   4  -1 1109.49   30.20
  -6  -4   1 1046.80   30.10
  -6  -4   1 1062.99   29.70
  -6  -4   1 1068.59   29.90
  -6  -4   1 1089.09   30.30
   5   4  -1   89.09    7.70
   5   4  -1   86.29    7.50
   5   4  -1  100.19    8.60
   5   4  -1   98.19    9.00
  -5  -4   1   92.49    7.90
  -5  -4   1   93.79    8.80
  -5  -4   1   83.99    7.70
  -5  -4   1   80.19    7.60
   4   4  -1  523.05   16.80
   4   4  -1  505.15   16.70
   4   4  -1  505.35   17.20
   4   4  -1  522.05   17.10
  -4  -4   1  514.75   16.90
  -4  -4   1  501.55   16.60
  -4  -4   1  544.05   17.30
  -4  -4   1  517.25   17.10
   3   4  -1 2927.71   68.89
   3   4  -1 2935.61   68.69
   3   4  -1 2973.10   68.69
   3   4  -1 2973.60   68.99
  -3  -4   1 2906.81   68.79
  -3  -4   1 2909.61   68.79
  -3  -4   1 2985.90   69.19
  -3  -4   1 2983.60   68.69
   2   4  -1 7008.90  153.28
   2   4  -1 6797.52  153.18
   2   4  -1 6958.70  153.08
   2   4  -1 6919.41  153.58
   2   4  -1 6781.42  153.28
  -2  -4   1 6867.01  153.18
  -2  -4   1 6862.91  153.38
  -2  -4   1 6855.51  152.98
  -2  -4   1 6797.22  153.08
   1   4  -1  575.84   18.10
   1   4  -1  580.14   16.70
   1   4  -1  561.74   16.80
   1   4  -1  552.74   17.00
   1   4  -1  539.25   16.60
  -1  -4   1  557.84   16.80
  -1  -4   1  580.34   16.80
  -1  -4   1  556.74   16.90
  -1  -4   1  543.25   16.50
   0   4  -1  535.25   16.30
   0   4  -1  542.65   18.30
   0   4  -1  566.14   16.20
   0   4  -1  528.15   15.80
   0   4  -1  531.75   16.10
   0  -4   1  534.55   15.90
   0  -4   1  529.55   16.20
   0  -4   1  531.75   15.90
   0  -4   1  535.75   16.20
  -1   4  -1  334.57   14.50
  -1   4  -1  337.27   11.70
  -1   4  -1  333.57   12.10
  -1   4  -1  341.77   11.40
  -1   4  -1  323.17   11.70
   1  -4   1  311.37   11.70
   1  -4   1  342.47   11.80
   1  -4   1  325.17    9.50
   1  -4   1  338.17   11.60
   1  -4   1  325.87   11.50
  -2   4  -1 3387.26   76.69
  -2   4  -1 3352.66   76.99
  -2   4  -1 3299.07   80.49
  -2   4  -1 3354.96   76.69
   2  -4   1 3364.06   76.59
   2  -4   1 3351.46   76.89
   2  -4   1 3386.26   77.29
   2  -4   1 3378.26   76.99
  -3   4  -1  371.26   13.60
  -3   4  -1  386.66   13.70
  -3   4  -1  396.36   12.90
  -3   4  -1  396.26   13.00
  -3   4  -1  386.16   17.40
   3  -4   1  373.66   13.40
   3  -4   1  402.66   13.00
   3  -4   1  380.16   13.60
   3  -4   1  368.06   13.60
  -4   4  -1  311.47   16.90
  -4   4  -1  284.67   11.50
  -4   4  -1  307.07   12.30
  -4   4  -1  292.57   11.30
  -4   4  -1  280.07   12.30
   4  -4   1  256.07   11.30
   4  -4   1  290.57   11.30
   4  -4   1  273.17   11.90
   4  -4   1  291.97   12.10
  -5   4  -1   27.40    8.50
  -5   4  -1   10.70    5.60
  -5   4  -1   25.60    5.60
  -5   4  -1   23.30    6.00
  -5   4  -1   17.50    5.20
   5  -4   1   22.10    5.60
   5  -4   1   23.30    5.60
   5  -4   1   15.80    5.80
   5  -4   1   15.00    5.20
  -6   4  -1   36.20    6.80
  -6   4  -1   24.20    6.80
  -6   4  -1   39.70    7.50
  -6   4  -1   34.90    9.50
   6  -4   1   27.70    7.00
   6  -4   1   42.20    7.10
   6  -4   1   39.00    6.90
   6  -4   1   42.40    7.10
  -7   4  -1   14.50   10.50
  -7   4  -1    7.70    7.60
  -7   4  -1    1.40    7.30
   7  -4   1    7.30    7.70
   7  -4   1   -6.90    7.90
   7  -4   1    4.60    7.00
   7  -4   1   -0.30    7.80
  -8   4  -1   -2.70    9.70
  -8   4  -1    0.00    8.70
  -8   4  -1    9.20    8.80
  -8   4  -1    3.00   10.80
   8  -4   1    0.90    8.00
   8  -4   1    9.50    8.00
   8  -4   1   -1.10    9.10
   8  -4   1   -1.40    9.70
  10   3  -1   42.60   11.30
  10   3  -1   59.99   11.30
  10   3  -1   58.79   11.70
  10   3  -1   46.70   15.10
 -10  -3   1   62.69   11.50
 -10  -3   1   65.09   12.40
 -10  -3   1   64.49   12.60
 -10  -3   1   71.09   13.80
   9   3  -1    0.70    8.70
   9   3  -1    9.70    8.10
   9   3  -1    0.90    9.10
  -9  -3   1    4.50    8.50
  -9  -3   1    6.60    9.30
  -9  -3   1   -1.70    8.60
   8   3  -1   98.69   10.30
   8   3  -1   89.39   12.60
   8   3  -1  111.49   10.70
   8   3  -1  106.69   10.00
  -8  -3   1   95.39   11.00
  -8  -3   1  115.59   10.50
  -8  -3   1  115.59   10.70
   7   3  -1  863.31   26.50
   7   3  -1  873.71   26.70
   7   3  -1  886.71   26.20
   7   3  -1  846.32   26.10
  -7  -3   1  808.42   29.70
  -7  -3   1  825.52   28.30
  -7  -3   1  884.51   26.10
  -7  -3   1  877.11   26.50
   6   3  -1  627.14   20.50
   6   3  -1  643.04   20.50
   6   3  -1  679.33   21.20
   6   3  -1  666.13   20.70
  -6  -3   1  648.44   20.80
  -6  -3   1  631.64   20.70
  -6  -3   1  684.53   21.50
  -6  -3   1  653.93   20.60
   5   3  -1  386.56   14.50
   5   3  -1  400.16   14.10
   5   3  -1  385.76   14.20
   5   3  -1  387.46   14.40
  -5  -3   1  387.36   14.20
  -5  -3   1  380.66   14.10
  -5  -3   1  376.96   14.00
  -5  -3   1  371.76   14.50
   4   3  -1  703.53   20.00
   4   3  -1  682.33   19.80
   4   3  -1  687.03   19.70
   4   3  -1  668.43   19.70
  -4  -3   1  671.03   19.80
  -4  -3   1  725.53   19.90
  -4  -3   1  655.93   19.80
  -4  -3   1  701.63   19.80
   3   3  -1 1321.07   32.60
   3   3  -1 1285.97   32.70
   3   3  -1 1301.47   32.60
   3   3  -1 1340.17   32.50
  -3  -3   1 1301.87   32.40
  -3  -3   1 1293.87   32.70
  -3  -3   1 1328.07   32.70
  -3  -3   1 1290.37   32.60
   2   3  -1 1524.25   36.50
   2   3  -1 1513.35   36.90
   2   3  -1 1549.54   36.90
   2   3  -1 1512.05   36.70
   2   3  -1 1523.05   36.60
  -2  -3   1 1520.75   36.50
  -2  -3   1 1496.65   36.70
  -2  -3   1 1523.15   36.70
  -2  -3   1 1537.35   37.00
   1   3  -1  720.23   18.90
   1   3  -1  720.33   19.20
   1   3  -1  688.23   18.80
   1   3  -1  712.33   19.60
   1   3  -1  726.83   19.00
  -1  -3   1  708.73   18.90
  -1  -3   1  706.33   19.00
  -1  -3   1  700.13   19.00
  -1  -3   1  721.53   18.90
   0   3  -1 2169.68   50.49
   0   3  -1 2197.18   50.19
   0   3  -1 2169.28   50.29
   0   3  -1 2180.88   50.29
   0   3  -1 2169.58   51.89
   0  -3   1 2157.08   50.19
   0  -3   1 2183.78   50.29
   0  -3   1 2174.48   50.39
   0  -3   1 2164.28   50.19
  -1   3  -1   22.10    3.20
  -1   3  -1   15.50    4.20
  -1   3  -1   15.10    3.00
  -1   3  -1   18.00    3.10
  -1   3  -1   17.70    3.90
   1  -3   1   20.10    3.10
   1  -3   1   21.10    3.10
   1  -3   1   20.90    3.30
   1  -3   1   23.40    4.90
   1  -3   1   20.80    2.40
   1  -3   1   21.30    3.40
  -2   3  -1   98.59    6.10
  -2   3  -1   94.09    5.40
  -2   3  -1   92.89    5.40
  -2   3  -1   99.79    8.70
   2  -3   1   82.19    5.90
   2  -3   1   93.49    8.50
   2  -3   1   88.39    5.50
   2  -3   1  111.99    6.00
   2  -3   1   93.19    6.00
  -3   3  -1  755.92   19.50
  -3   3  -1  750.62   19.50
  -3   3  -1  737.93   20.00
  -3   3  -1  746.13   23.40
  -3   3  -1  765.62   20.20
   3  -3   1  719.03   23.30
   3  -3   1  749.82   19.50
   3  -3   1  737.63   19.80
   3  -3   1  730.63   20.10
   3  -3   1  761.32   20.00
  -4   3  -1  926.41   28.30
  -4   3  -1  934.81   24.50
  -4   3  -1  918.21   23.90
  -4   3  -1  934.11   24.40
  -4   3  -1  924.31   24.00
   4  -3   1  919.91   24.20
   4  -3   1  950.50   24.40
   4  -3   1  939.81   23.90
   4  -3   1  958.00   24.70
  -5   3  -1   72.49    6.10
  -5   3  -1   52.79    6.10
  -5   3  -1   61.19    9.10
  -5   3  -1   50.79    5.90
  -5   3  -1   54.09    6.00
   5  -3   1   61.09    6.10
   5  -3   1   61.59    6.00
   5  -3   1   66.69    6.40
   5  -3   1   70.79    6.20
  -6   3  -1  204.18   11.20
  -6   3  -1  243.38   16.40
  -6   3  -1  203.28   11.60
  -6   3  -1  212.88   11.70
  -6   3  -1  205.08   11.30
   6  -3   1  213.48   11.80
   6  -3   1  196.38   10.90
   6  -3   1  217.58   11.80
   6  -3   1  199.38   10.50
  -7   3  -1  267.37   14.90
  -7   3  -1  293.47   13.60
  -7   3  -1  235.28   14.10
  -7   3  -1  289.17   13.70
  -7   3  -1  287.67   18.00
   7  -3   1  243.08   14.20
   7  -3   1  260.07   14.90
   7  -3   1  243.08   13.00
   7  -3   1  282.07   13.10
  -8   3  -1    3.40    8.50
  -8   3  -1   -3.10    7.50
  -8   3  -1   11.00   10.30
  -8   3  -1    1.20    6.80
   8  -3   1    3.60    6.70
   8  -3   1   -0.60    6.60
   8  -3   1   -5.80    8.60
   8  -3   1   -7.00    7.20
  -9   3  -1   23.30    8.90
  -9   3  -1   21.20   12.40
  -9   3  -1   11.10    8.80
  -9   3  -1    0.60   11.70
  -9   3  -1    2.20    9.20
   9  -3   1   17.40   10.00
   9  -3   1   14.30    9.80
   9  -3   1   10.10    8.70
   9  -3   1    9.90    8.10
  10   2  -1   46.40   10.80
  10   2  -1   75.99   12.60
  10   2  -1   62.59   12.00
  10   2  -1   69.49   11.60
 -10  -2   1   57.79   11.90
 -10  -2   1   66.29   11.40
 -10  -2   1   51.79   12.40
 -10  -2   1   56.99   12.50
   9   2  -1 1086.49   37.00
   9   2  -1 1248.58   35.20
   9   2  -1 1223.88   35.40
  -9  -2   1 1181.28   35.70
  -9  -2   1 1224.08   35.30
  -9  -2   1 1199.98   35.40
   8   2  -1   68.59    9.40
   8   2  -1   56.49    9.10
   8   2  -1   63.79    9.60
   8   2  -1   58.49    8.80
  -8  -2   1   53.69    9.20
  -8  -2   1   61.79    8.70
  -8  -2   1   63.89    8.90
  -8  -2   1   60.29    9.50
   7   2  -1  702.53   23.90
   7   2  -1  728.63   24.50
   7   2  -1  785.62   24.20
   7   2  -1  787.42   23.40
  -7  -2   1  718.13   23.90
  -7  -2   1  768.12   23.40
  -7  -2   1  774.52   23.50
   6   2  -1   54.49    7.10
   6   2  -1   57.19    7.10
   6   2  -1   49.70    6.50
   6   2  -1   47.40    6.80
  -6  -2   1   54.59    8.90
  -6  -2   1   44.90    7.00
  -6  -2   1   56.69    6.50
  -6  -2   1   53.69    6.60
   5   2  -1 4007.60   91.09
   5   2  -1 4009.10   90.79
   5   2  -1 3942.71   90.79
   5   2  -1 4002.90   90.49
  -5  -2   1 3944.91   90.99
  -5  -2   1 3896.41   90.49
  -5  -2   1 3963.30   90.59
  -5  -2   1 3922.91   90.49
   4   2  -1 6597.74  147.49
   4   2  -1 6636.14  147.79
   4   2  -1 6723.03  147.79
   4   2  -1 6635.84  147.79
  -4  -2   1 6803.72  147.89
  -4  -2   1 6579.14  147.69
  -4  -2   1 6625.84  147.49
  -4  -2   1 6527.55  147.69
   3   2  -1   35.70    4.20
   3   2  -1   41.20    2.90
   3   2  -1   36.30    4.10
   3   2  -1   43.40    4.20
   3   2  -1   33.90    4.10
  -3  -2   1   39.80    4.30
  -3  -2   1   35.10    3.90
  -3  -2   1   43.30    4.30
  -3  -2   1   35.20    4.00
   2   2  -1  429.16   12.30
   2   2  -1  446.36   11.40
   2   2  -1  437.46   12.30
   2   2  -1  433.26   12.50
   2   2  -1  427.96   12.50
  -2  -2   1  428.76   12.30
  -2  -2   1  405.96   12.20
  -2  -2   1  427.06   12.40
  -2  -2   1  439.86   12.50
   1   2  -1 3807.42   86.19
   1   2  -1 3987.40   86.39
   1   2  -1 3834.72   86.29
   1   2  -1 3893.91   86.39
   1   2  -1 3897.01   86.39
  -1  -2   1 3829.52   86.29
  -1  -2   1 3796.52   86.29
  -1  -2   1 3967.90   86.29
  -1  -2   1 3870.21   86.29
   0   2  -1 1532.95   36.00
   0   2  -1 1493.15   34.70
   0   2  -1 1495.15   33.30
   0   2  -1 1494.45   34.80
   0   2  -1 1543.55   35.00
   0   2  -1 1516.05   34.90
   0  -2   1 1491.05   34.80
   0  -2   1 1522.85   35.00
   0  -2   1 1501.65   34.90
   0  -2   1 1495.45   35.80
   0  -2   1 1497.05   34.70
  -1   2  -1  660.83   16.50
  -1   2  -1  642.34   18.20
  -1   2  -1  675.03   16.50
  -1   2  -1  668.33   16.40
   1  -2   1  668.53   16.50
   1  -2   1  649.04   16.30
   1  -2   1  657.23   16.00
   1  -2   1  669.33   18.40
   1  -2   1  659.73   16.40
   1  -2   1  643.14   16.50
  -2   2  -1  462.15   12.30
  -2   2  -1  488.15   12.30
  -2   2  -1  486.35   12.60
  -2   2  -1  470.45   12.50
  -2   2  -1  436.76   14.90
   2  -2   1  466.45   12.20
   2  -2   1  471.35   12.50
   2  -2   1  456.85   12.40
   2  -2   1  463.65   12.60
   2  -2   1  440.56   14.80
  -3   2  -1 1002.70   24.10
  -3   2  -1  997.30   24.20
  -3   2  -1 1005.90   24.30
  -3   2  -1  978.60   27.20
  -3   2  -1 1004.60   24.00
   3  -2   1  987.00   24.10
   3  -2   1 1004.90   24.40
   3  -2   1 1027.70   24.30
   3  -2   1 1003.70   23.90
   3  -2   1  970.30   27.10
  -4   2  -1 2575.74   56.99
  -4   2  -1 2494.55   56.99
  -4   2  -1 2483.55   56.89
  -4   2  -1 2441.96   60.19
  -4   2  -1 2525.05   56.99
   4  -2   1 2533.95   57.09
   4  -2   1 2558.84   56.89
   4  -2   1 2523.55   56.99
   4  -2   1 2424.66   56.99
   4  -2   1 2401.66   60.19
  -5   2  -1  133.39    8.10
  -5   2  -1  124.59   10.10
  -5   2  -1  125.29    7.40
  -5   2  -1  127.29    7.30
  -5   2  -1  141.69    8.20
   5  -2   1  130.49    7.80
   5  -2   1  129.59   11.10
   5  -2   1  130.39    7.50
   5  -2   1  125.19    8.00
   5  -2   1  126.09    7.30
  -6   2  -1  249.08   10.70
  -6   2  -1  227.38   10.40
  -6   2  -1  234.08   11.00
  -6   2  -1  242.18   11.70
  -6   2  -1  252.67   15.10
   6  -2   1  235.68   11.60
   6  -2   1  241.48   10.20
   6  -2   1  224.28   11.30
   6  -2   1  246.08   10.30
  -7   2  -1   51.69    7.40
  -7   2  -1   48.20    6.40
  -7   2  -1   55.49    6.80
  -7   2  -1   63.49   10.00
  -7   2  -1   49.60    6.80
   7  -2   1   43.40    6.10
   7  -2   1   41.30    7.70
   7  -2   1   34.70    6.40
  -8   2  -1 1428.66   36.30
  -8   2  -1 1449.95   36.80
  -8   2  -1 1453.65   37.60
  -8   2  -1 1368.76   36.40
  -8   2  -1 1456.05   41.10
   8  -2   1 1356.76   37.80
   8  -2   1 1424.96   36.10
   8  -2   1 1401.06   36.50
   8  -2   1 1414.16   36.60
  -9   2  -1  391.66   16.50
  -9   2  -1  388.76   17.20
  -9   2  -1  354.46   18.30
  -9   2  -1  336.77   20.80
  -9   2  -1  357.36   16.60
   9  -2   1  388.96   18.80
   9  -2   1  353.56   15.90
   9  -2   1  337.07   16.40
   9  -2   1  369.96   17.70
  10   1  -1  280.57   18.90
  10   1  -1  279.67   20.40
  10   1  -1  290.07   21.60
  10   1  -1  287.87   18.80
 -10  -1   1  294.27   19.60
 -10  -1   1  253.07   20.00
 -10  -1   1  286.37   20.10
 -10  -1   1  295.57   21.30
   9   1  -1  562.14   21.50
   9   1  -1  515.05   22.00
   9   1  -1  562.14   23.60
   9   1  -1  509.05   22.20
  -9  -1   1  591.84   22.90
  -9  -1   1  533.65   21.80
  -9  -1   1  557.34   22.10
   8   1  -1   79.79    9.70
   8   1  -1   86.69    9.60
   8   1  -1   68.89   10.00
   8   1  -1   89.19    9.40
  -8  -1   1   88.89    9.40
  -8  -1   1   93.29    9.50
  -8  -1   1   88.59    9.80
  -8  -1   1  100.89   10.00
   7   1  -1  440.36   17.30
   7   1  -1  474.35   18.20
   7   1  -1  470.35   17.50
  -7  -1   1  410.76   17.40
  -7  -1   1  477.15   17.30
  -7  -1   1  473.05   17.60
  -7  -1   1  438.46   17.50
   6   1  -1   20.70    5.70
   6   1  -1   26.10    5.90
   6   1  -1   17.90    5.30
   6   1  -1   17.50    6.00
  -6  -1   1   15.30    6.00
  -6  -1   1   32.60    5.90
  -6  -1   1   36.00    5.80
   5   1  -1    3.80    4.60
   5   1  -1    0.80    4.00
   5   1  -1    3.40    4.20
   5   1  -1    5.10    4.40
  -5  -1   1    5.20    4.00
  -5  -1   1    2.30    4.60
  -5  -1   1   -3.20    3.70
   4   1  -1  360.06   11.90
   4   1  -1  327.27   12.50
   4   1  -1  366.26   12.50
   4   1  -1  357.96   12.60
  -4  -1   1  333.57   12.40
  -4  -1   1  368.26   12.10
  -4  -1   1  359.26   12.00
   3   1  -1 1022.10   25.70
   3   1  -1 1004.80   25.80
   3   1  -1 1022.70   25.40
   3   1  -1 1058.79   25.80
  -3  -1   1 1011.60   25.80
  -3  -1   1 1037.20   25.60
  -3  -1   1 1033.80   25.70
  -3  -1   1 1026.10   25.60
   2   1  -1 4161.08   92.09
   2   1  -1 4089.89   92.19
   2   1  -1 4129.99   92.19
   2   1  -1 4205.58   92.29
  -2  -1   1 4200.48   92.09
  -2  -1   1 4253.37   92.29
  -2  -1   1 4082.09   92.19
  -2  -1   1 4085.89   92.19
   1   1  -1 2971.40   64.79
   1   1  -1 2956.20   64.69
   1   1  -1 2939.51   63.99
   1   1  -1 2974.10   64.79
   1   1  -1 2875.51   64.79
  -1  -1   1 2842.02   64.69
  -1  -1   1 2800.02   64.69
  -1  -1   1 2873.31   63.99
  -1  -1   1 2971.70   64.79
  -1  -1   1 2925.31   64.69
   0   1  -1 1361.96   30.70
   0   1  -1 1361.16   30.70
   0   1  -1 1366.66   31.20
   0   1  -1 1368.66   30.60
   0  -1   1 1360.96   30.60
   0  -1   1 1304.07   31.10
   0  -1   1 1374.66   30.70
  -1   1  -1  129.69    4.00
  -1   1  -1  119.79    5.40
  -1   1  -1  131.29    4.00
  -1   1  -1  127.79    3.90
   1  -1   1  122.79    3.90
   1  -1   1  124.39    4.00
   1  -1   1  120.79    4.30
   1  -1   1  130.79    5.50
   1  -1   1  129.39    4.00
  -2   1  -1  463.35   11.30
  -2   1  -1  451.15   11.10
  -2   1  -1  448.56   13.30
  -2   1  -1  462.75   11.10
   2  -1   1  460.85   11.10
   2  -1   1  463.35   11.20
   2  -1   1  471.85   13.50
   2  -1   1  455.85   11.20
   2  -1   1  443.66   11.20
  -3   1  -1  784.32   21.50
  -3   1  -1  788.42   19.00
  -3   1  -1  818.12   19.10
   3  -1   1  782.02   21.50
   3  -1   1  821.12   19.10
   3  -1   1  761.02   19.00
   3  -1   1  838.02   19.20
   3  -1   1  794.32   19.00
  -4   1  -1 1786.92   43.20
  -4   1  -1 1798.32   40.50
  -4   1  -1 1649.23   40.90
   4  -1   1 1831.32   40.50
   4  -1   1 1784.22   40.60
   4  -1   1 1805.52   43.50
   4  -1   1 1825.32   41.00
   4  -1   1 1680.33   40.80
  -5   1  -1  217.48    9.60
  -5   1  -1  248.28    9.40
  -5   1  -1  260.67    8.80
  -5   1  -1  256.87   12.10
   5  -1   1  246.58    8.80
   5  -1   1  220.18    9.80
   5  -1   1  245.58    9.30
   5  -1   1  245.28    8.70
   5  -1   1  246.38   12.20
  -6   1  -1 1631.84   39.00
  -6   1  -1 1695.73   39.60
  -6   1  -1 1706.53   42.40
  -6   1  -1 1563.24   39.00
  -6   1  -1 1645.44   39.90
   6  -1   1 1617.04   40.10
   6  -1   1 1639.14   38.90
   6  -1   1 1693.03   39.50
   6  -1   1 1650.03   42.40
   6  -1   1 1587.34   39.00
  -7   1  -1   53.79    5.90
  -7   1  -1   45.70    6.00
  -7   1  -1   51.49    8.30
  -7   1  -1   52.39    5.90
  -7   1  -1   54.39    6.60
   7  -1   1   51.79    6.90
   7  -1   1   50.49    5.30
   7  -1   1   49.10    5.70
   7  -1   1   47.80    6.20
  -8   1  -1  193.88   11.30
  -8   1  -1  173.98   10.90
  -8   1  -1  163.58   13.30
  -8   1  -1  177.68   10.90
   8  -1   1  163.98   11.20
   8  -1   1  170.08   12.80
   8  -1   1  182.18   10.50
   8  -1   1  178.18   10.20
  -9   1  -1   15.50    7.20
  -9   1  -1   23.50    8.20
  -9   1  -1   19.80    6.50
   9  -1   1   28.80    8.60
   9  -1   1    8.00    8.60
   9  -1   1   15.30    7.70
   9  -1   1   26.30    6.80
 -10   1  -1  131.49   10.60
 -10   1  -1  121.49   11.70
 -10   1  -1  129.59   11.20
  10  -1   1  136.49   11.10
  10  -1   1  113.99   11.90
  10  -1   1  152.98   13.20
  10   0  -1   13.70   11.50
  10   0  -1   12.00    9.70
  10   0  -1   11.50    9.40
  10   0  -1    6.30   11.70
 -10   0   1   16.30   12.30
 -10   0   1    5.30    9.90
 -10   0   1   14.30   10.70
 -10   0   1   12.90   11.30
   9   0  -1   27.40   10.40
   9   0  -1   35.60    8.80
   9   0  -1   29.70   10.10
   9   0  -1   27.70    8.50
  -9   0   1   27.40    9.10
  -9   0   1   35.00   10.00
  -9   0   1   40.00    9.90
  -9   0   1   36.70    9.60
   8   0  -1  324.27   18.80
   8   0  -1  351.26   16.70
   8   0  -1  316.37   17.90
   8   0  -1  347.37   17.40
  -8   0   1  339.77   16.50
  -8   0   1  356.06   16.50
  -8   0   1  366.46   16.80
  -8   0   1  331.97   17.40
   7   0  -1  656.63   21.00
   7   0  -1  633.74   20.20
   7   0  -1  528.15   24.40
   7   0  -1  593.84   20.50
  -7   0   1  640.14   20.80
  -7   0   1  652.63   20.50
  -7   0   1  629.64   20.80
  -7   0   1  507.55   29.00
   6   0  -1  119.09    9.60
   6   0  -1  153.98    9.60
   6   0  -1  147.99   11.50
   6   0  -1  185.38   11.00
  -6   0   1  140.59   10.40
  -6   0   1  142.29    9.90
  -6   0   1  152.18    8.40
  -6   0   1  157.88   10.70
  -6   0   1  175.18   10.50
   5   0  -1   71.09    6.80
   5   0  -1   85.59    6.90
   5   0  -1   66.09    6.60
   5   0  -1   56.89    6.60
  -5   0   1   71.19    6.00
  -5   0   1   72.49    6.60
  -5   0   1   73.59    6.60
  -5   0   1   68.19    6.50
   4   0  -1  141.89    7.80
   4   0  -1  151.78    8.00
   4   0  -1  125.89    8.10
  -4   0   1  134.79    8.00
  -4   0   1  153.08    7.90
  -4   0   1  145.89    8.20
  -4   0   1  137.49    6.30
   3   0  -1  852.81   22.90
   3   0  -1  914.81   23.00
   3   0  -1  912.71   22.90
   3   0  -1  883.01   23.10
  -3   0   1  909.81   23.00
  -3   0   1  928.81   21.30
  -3   0   1  897.01   22.80
  -3   0   1  909.11   23.20
  -3   0   1  872.91   25.80
   2   0  -1  474.15   13.40
   2   0  -1  504.75   13.60
   2   0  -1  485.85   13.30
  -2   0   1  495.25   13.60
  -2   0   1  492.35   13.40
  -2   0   1  491.05   13.50
  -2   0   1  494.85   13.50
   1   0  -1  944.61   21.80
   1   0  -1  956.20   21.70
   1   0  -1  899.31   21.60
   1   0  -1  890.61   21.70
  -1   0   1  883.71   21.50
  -1   0   1  886.41   21.60
  -1   0   1  914.31   21.70
  -1   0   1  932.71   21.80
   1   0   1 2131.59   47.70
  -2   0  -1 3625.14   78.39
  -2   0  -1 3653.13   80.09
   2   0   1 3572.34   80.09
   2   0   1 3568.04   78.29
  -3   0  -1 1552.34   35.10
  -3   0  -1 1570.84   35.30
  -3   0  -1 1570.44   37.00
  -3   0  -1 1584.44   35.40
   3   0   1 1581.84   35.20
   3   0   1 1560.54   35.20
   3   0   1 1576.94   35.40
   3   0   1 1575.34   37.00
  -4   0  -1 1227.58   30.70
  -4   0  -1 1259.07   28.90
  -4   0  -1 1262.37   29.10
  -4   0  -1 1272.57   29.30
   4   0   1 1256.97   29.20
   4   0   1 1264.17   29.40
   4   0   1 1271.37   29.10
   4   0   1 1191.58   30.70
   4   0   1 1235.38   28.90
  -5   0  -1 2917.31   64.79
  -5   0  -1 2879.31   66.29
  -5   0  -1 2804.32   64.29
  -5   0  -1 2870.51   64.59
   5   0   1 2860.91   64.69
   5   0   1 2894.91   64.59
   5   0   1 2895.11   64.89
   5   0   1 2825.02   66.39
   5   0   1 2828.62   64.29
  -6   0  -1 2186.98   55.39
  -6   0  -1 2424.96   55.09
  -6   0  -1 2382.46   54.49
  -6   0  -1 2403.46   54.89
   6   0   1 2448.26   54.89
   6   0   1 2485.15   55.39
   6   0   1 2390.56   54.49
   6   0   1 2325.97   56.79
   6   0   1 2352.86   54.89
  -7   0  -1   92.39    8.10
  -7   0  -1  105.39    7.90
  -7   0  -1  104.89    7.80
  -7   0  -1   86.69    7.90
   7   0   1   90.59    7.40
   7   0   1   82.79    7.60
   7   0   1  111.69    9.20
   7   0   1   91.29    7.90
   7   0   1  103.89    9.10
  -8   0  -1  327.27   13.40
  -8   0  -1  329.77   13.80
  -8   0  -1  329.37   13.20
  -8   0  -1  341.27   13.10
   8   0   1  330.57   12.50
   8   0   1  335.67   13.50
   8   0   1  339.57   16.20
   8   0   1  326.87   13.20
   8   0   1  344.17   14.50
  -9   0  -1    5.90    6.60
  -9   0  -1   12.70    7.00
  -9   0  -1   -1.90    6.30
  -9   0  -1    7.90    6.00
   9   0   1    3.20    7.30
   9   0   1    0.90    5.70
   9   0   1    6.60    5.80
   9   0   1   10.60    6.60
 -10   0  -1   58.29    8.40
 -10   0  -1   52.19    9.50
 -10   0  -1   44.80    9.40
 -10   0  -1   43.80    8.80
  10   0   1   48.10    9.30
  10   0   1   50.99    7.80
  10   0   1   54.89    9.80
  10   0   1   46.70    8.40
   9  -1  -1   27.50    8.40
   9  -1  -1   22.70   10.30
   9  -1  -1   22.10    8.80
   9  -1  -1   27.20   10.40
  -9   1   1   22.60    9.20
  -9   1   1   29.10    9.40
  -9   1   1   40.50   10.60
   8  -1  -1  147.79   12.80
   8  -1  -1  174.08   13.10
   8  -1  -1  182.98   14.90
   8  -1  -1  176.18   13.20
  -8   1   1  157.98   12.80
  -8   1   1  151.68   13.50
  -8   1   1  175.28   13.60
  -8   1   1  168.58   13.80
   7  -1  -1  860.61   24.70
   7  -1  -1  875.11   26.10
   7  -1  -1  839.52   25.00
   7  -1  -1  757.22   26.30
  -7   1   1  868.11   25.80
  -7   1   1  780.52   25.60
  -7   1   1  824.82   24.50
  -7   1   1  809.72   24.40
  -7   1   1  807.02   24.60
   6  -1  -1  136.39    9.30
   6  -1  -1  130.39   11.00
   6  -1  -1  139.69   10.00
  -6   1   1  155.38   10.40
  -6   1   1  149.19   11.50
  -6   1   1  144.49   10.00
  -6   1   1  132.29   10.20
   5  -1  -1  189.88    9.60
   5  -1  -1  204.98    9.90
   5  -1  -1  195.38   10.90
   5  -1  -1  169.48   11.10
  -5   1   1  197.48   10.90
  -5   1   1  196.78   10.10
  -5   1   1  189.58   10.00
  -5   1   1  184.38   10.50
   4  -1  -1  332.57   11.50
   4  -1  -1  322.37   12.50
   4  -1  -1  351.76   12.10
   4  -1  -1  350.36   12.80
  -4   1   1  323.87   11.90
  -4   1   1  350.76   12.70
  -4   1   1  335.37   12.50
  -4   1   1  355.76   11.80
   3  -1  -1 5994.40  130.09
   3  -1  -1 5925.41  129.79
   3  -1  -1 5828.52  130.09
   3  -1  -1 5901.91  130.19
  -3   1   1 5855.41  129.89
  -3   1   1 5804.52  129.69
  -3   1   1 5710.73  130.29
   2  -1  -1  893.41   22.00
   2  -1  -1  915.21   22.10
   2  -1  -1  887.11   21.80
   2  -1  -1  896.71   22.00
  -2   1   1  809.22   22.80
  -2   1   1  885.31   21.90
  -2   1   1  925.41   22.10
  -2   1   1  928.91   22.20
   1  -1  -1 2652.23   59.79
   1  -1  -1 2729.53   59.89
   1  -1  -1 2680.23   59.89
   1  -1  -1 2691.03   59.99
  -1   1   1 2623.94   59.89
  -1   1   1 2692.43   59.89
  -1   1   1 2681.73   59.99
  -1   1   1 2743.33   59.99
   0  -1  -1  326.27    9.10
   0  -1  -1  361.66    8.70
   0  -1  -1  350.56    8.60
   0   1   1  279.57    8.40
   0   1   1  353.06    8.70
   0   1   1  345.47    9.00
  -1  -1  -1 2703.63   59.89
  -1  -1  -1 2769.12   60.19
  -1  -1  -1 2703.53   59.89
   1   1   1 2708.13   60.19
   1   1   1 2747.53   59.89
   1   1   1 2724.03   59.99
  -2  -1  -1    4.40    1.30
  -2  -1  -1    5.70    1.20
  -2  -1  -1    4.30    1.20
   2   1   1    6.60    1.30
   2   1   1    5.80    1.20
   2   1   1    6.30    1.30
   2   1   1    3.20    1.60
   2   1   1    4.10    1.30
  -3  -1  -1 1295.67   29.00
  -3  -1  -1 1228.08   28.90
  -3  -1  -1 1247.08   28.90
   3   1   1 1273.97   28.90
   3   1   1 1272.97   28.90
   3   1   1 1275.57   29.00
   3   1   1 1245.58   28.80
  -4  -1  -1 1368.16   33.00
  -4  -1  -1 1385.86   32.70
  -4  -1  -1 1411.56   32.70
   4   1   1 1406.86   32.60
   4   1   1 1428.46   33.50
   4   1   1 1440.46   33.00
   4   1   1 1441.66   32.90
   4   1   1 1420.46   33.10
  -5  -1  -1  172.58    7.90
  -5  -1  -1  197.88    7.60
  -5  -1  -1  179.78    8.10
  -5  -1  -1  189.88    7.40
   5   1   1  196.28    7.80
   5   1   1  174.48    8.20
   5   1   1  194.38    8.20
   5   1   1  210.18    7.50
   5   1   1  185.88    8.40
  -6  -1  -1  248.48    9.50
  -6  -1  -1  254.07    9.70
  -6  -1  -1  246.98   10.20
  -6  -1  -1  269.97   10.00
   6   1   1  258.77    9.50
   6   1   1  228.18   10.30
   6   1   1  243.18   10.10
   6   1   1  246.78   10.70
   6   1   1  256.87   10.10
  -7  -1  -1  382.36   13.50
  -7  -1  -1  395.46   13.40
  -7  -1  -1  382.36   13.70
  -7  -1  -1  380.26   13.40
   7   1   1  402.86   13.90
   7   1   1  404.36   13.60
   7   1   1  376.26   14.60
   7   1   1  375.36   13.10
  -8  -1  -1    6.70    5.20
  -8  -1  -1    4.80    5.10
  -8  -1  -1    4.60    5.40
  -8  -1  -1    4.00    5.50
   8   1   1   10.60    6.50
   8   1   1    6.40    6.00
   8   1   1    6.30    4.70
   8   1   1   13.20    5.70
   8   1   1    9.50    5.10
  -9  -1  -1   20.30    7.00
  -9  -1  -1   27.70    7.10
  -9  -1  -1   20.10    6.70
  -9  -1  -1   26.80    7.10
   9   1   1   23.90    6.30
   9   1   1   15.50    7.30
   9   1   1   21.80    6.90
   9   1   1   25.80    6.70
 -10  -1  -1  374.86   17.20
 -10  -1  -1  383.86   17.60
 -10  -1  -1  350.06   17.60
 -10  -1  -1  344.07   15.70
  10   1   1  350.76   16.90
  10   1   1  342.57   15.70
  10   1   1  351.76   18.40
  10   1   1  351.96   16.90
   9  -2  -1   -7.40   11.00
   9  -2  -1    7.50   11.60
   9  -2  -1   12.50    8.50
   9  -2  -1   10.60    8.80
  -9   2   1   13.80   10.20
  -9   2   1    1.70   11.60
  -9   2   1   21.60   10.30
  -9   2   1   24.30   10.40
  -9   2   1    3.70    9.30
   8  -2  -1  271.17   19.80
   8  -2  -1  336.07   16.60
   8  -2  -1  330.47   16.60
   8  -2  -1  341.27   19.10
  -8   2   1  379.16   19.10
  -8   2   1  368.66   17.70
  -8   2   1  382.36   17.60
  -8   2   1  362.26   19.70
   7  -2  -1  170.18   14.00
   7  -2  -1  174.78   15.20
   7  -2  -1  167.38   12.10
   7  -2  -1  165.18   12.20
  -7   2   1  161.18   12.10
  -7   2   1  171.18   13.00
  -7   2   1  181.48   15.00
  -7   2   1  166.68   13.40
  -7   2   1  179.28   14.40
   6  -2  -1 1268.27   33.80
   6  -2  -1 1269.57   35.00
   6  -2  -1 1270.17   33.40
  -6   2   1 1272.77   36.00
  -6   2   1 1255.27   35.00
  -6   2   1 1315.77   35.30
  -6   2   1 1255.17   33.50
  -6   2   1 1304.77   33.80
   5  -2  -1 1364.86   35.40
   5  -2  -1 1326.07   34.30
   5  -2  -1 1339.27   34.00
   5  -2  -1 1386.16   35.30
  -5   2   1 1384.46   35.80
  -5   2   1 1305.47   35.10
  -5   2   1 1335.97   35.00
  -5   2   1 1308.47   34.10
   4  -2  -1  210.98    9.80
   4  -2  -1  237.78   10.50
   4  -2  -1  228.88   10.60
   4  -2  -1  212.78    9.40
  -4   2   1  235.78    9.90
  -4   2   1  228.58   11.80
  -4   2   1  227.78   10.30
  -4   2   1  242.88   10.40
   3  -2  -1  205.48    8.40
   3  -2  -1  210.98    8.80
   3  -2  -1  208.98    8.70
   3  -2  -1  215.58    8.90
  -3   2   1  207.28    8.60
  -3   2   1  204.48   10.30
  -3   2   1  212.98    8.70
  -3   2   1  212.08    8.80
  -3   2   1  198.08   10.10
   2  -2  -1 2753.62   62.39
   2  -2  -1 2717.53   62.49
   2  -2  -1 2763.72   62.29
   2  -2  -1 2771.02   62.49
  -2   2   1 2754.02   62.49
  -2   2   1 2719.73   62.29
  -2   2   1 2719.73   62.49
  -2   2   1 2770.92   62.39
   1  -2  -1 5989.20  132.19
   1  -2  -1 5984.30  132.39
   1  -2  -1 6007.50  132.49
   1  -2  -1 6091.59  132.39
  -1   2   1 5966.70  132.19
  -1   2   1 6017.70  132.29
  -1   2   1 6060.59  132.49
  -1   2   1 5947.30  132.29
   0  -2  -1  244.48    7.70
   0  -2  -1  246.08    7.60
   0  -2  -1  241.58    7.60
   0   2   1  235.48    7.70
   0   2   1  233.68    7.50
   0   2   1  248.98    7.60
  -1  -2  -1  381.36   10.40
  -1  -2  -1  384.16   10.50
  -1  -2  -1  380.46   10.60
  -1  -2  -1  401.96    9.90
  -1  -2  -1  384.16   10.50
   1   2   1  382.96   10.50
   1   2   1  391.06   10.60
   1   2   1  390.46   10.40
   1   2   1  383.26   10.60
  -2  -2  -1  212.28    6.90
  -2  -2  -1  211.68    6.70
  -2  -2  -1  211.68    6.80
  -2  -2  -1  208.28    6.80
  -2  -2  -1  204.48    7.90
   2   2   1  211.28    6.90
   2   2   1  228.18    6.90
   2   2   1  217.48    6.90
   2   2   1  216.58    6.70
   2   2   1  210.88    7.00
  -3  -2  -1  419.86   11.80
  -3  -2  -1  435.66   11.80
  -3  -2  -1  417.16   11.60
   3   2   1  425.16   11.70
   3   2   1  432.06   11.80
   3   2   1  410.06   12.20
   3   2   1  436.96   11.90
   3   2   1  412.06   11.80
  -4  -2  -1   85.29    5.20
  -4  -2  -1   67.59    4.90
  -4  -2  -1   77.19    5.00
  -4  -2  -1   74.79    5.00
   4   2   1   73.89    5.00
   4   2   1   76.29    5.10
   4   2   1   61.49    5.50
   4   2   1   82.29    5.00
  -5  -2  -1  351.36   11.40
  -5  -2  -1  380.86   11.80
  -5  -2  -1  346.37   11.40
  -5  -2  -1  363.86   11.60
   5   2   1  329.27   11.40
   5   2   1  352.16   11.60
   5   2   1  374.96   11.50
   5   2   1  371.46   11.40
   5   2   1  344.27   11.50
  -6  -2  -1   68.19    6.40
  -6  -2  -1   64.79    6.20
  -6  -2  -1   71.29    6.00
  -6  -2  -1   64.89    5.70
   6   2   1   80.59    6.60
   6   2   1   71.19    5.80
   6   2   1   70.89    6.00
   6   2   1   78.09    6.40
   6   2   1   74.59    5.90
  -7  -2  -1  208.28   11.30
  -7  -2  -1  239.18   10.80
  -7  -2  -1  220.88   11.80
  -7  -2  -1  222.88   10.60
   7   2   1  211.48   11.60
   7   2   1  222.78   11.30
   7   2   1  230.78   10.70
   7   2   1  243.08   10.50
   7   2   1  239.18   11.00
  -8  -2  -1  644.54   19.90
  -8  -2  -1  672.93   20.40
  -8  -2  -1  679.73   20.10
  -8  -2  -1  595.14   20.60
   8   2   1  606.24   20.00
   8   2   1  579.44   20.50
   8   2   1  646.54   19.20
   8   2   1  636.84   19.60
   8   2   1  636.44   20.00
  -9  -2  -1   21.30    7.10
  -9  -2  -1   24.70    7.00
  -9  -2  -1   20.40    7.30
  -9  -2  -1   30.50    7.90
   9   2   1   25.10    7.10
   9   2   1   14.20    7.30
   9   2   1   22.00    6.20
   9   2   1   30.30    7.10
 -10  -2  -1   52.19    9.80
 -10  -2  -1   61.79    8.90
 -10  -2  -1   62.89    9.90
 -10  -2  -1   46.80   10.60
  10   2   1   53.09    9.20
  10   2   1   54.59    9.90
  10   2   1   63.29    8.60
  10   2   1   45.90    8.90
 -11  -2  -1   59.19   10.10
 -11  -2  -1   69.39   11.10
 -11  -2  -1   77.89   11.50
  11   2   1   67.69   11.50
  11   2   1   84.79   10.20
  11   2   1   69.39   10.30
  11   2   1   61.19   10.70
  11   2   1   82.59   17.40
   8  -3  -1  259.07   19.70
   8  -3  -1  232.78   16.20
   8  -3  -1  243.28   16.20
   8  -3  -1  200.68   18.50
  -8   3   1  236.38   18.70
  -8   3   1  249.68   16.80
  -8   3   1  266.07   17.50
  -8   3   1  215.88   17.90
   7  -3  -1  173.28   13.30
   7  -3  -1  165.08   15.40
   7  -3  -1  182.58   16.70
   7  -3  -1  142.29   13.00
  -7   3   1  159.58   13.60
  -7   3   1  189.98   14.30
  -7   3   1  193.58   17.20
  -7   3   1  145.79   13.70
   6  -3  -1 1233.18   34.70
   6  -3  -1 1258.17   33.60
   6  -3  -1 1239.68   33.80
  -6   3   1 1267.67   34.80
  -6   3   1 1211.28   33.60
  -6   3   1 1267.97   34.70
  -6   3   1 1189.38   33.40
  -6   3   1 1255.97   36.30
   5  -3  -1 1078.19   28.70
   5  -3  -1 1030.00   28.80
   5  -3  -1 1006.90   27.80
   5  -3  -1  985.30   28.00
  -5   3   1 1068.09   28.70
  -5   3   1 1036.10   30.80
  -5   3   1  952.70   31.30
  -5   3   1  971.40   27.90
   4  -3  -1  345.07   13.30
   4  -3  -1  340.17   13.00
   4  -3  -1  330.67   12.90
   4  -3  -1  298.57   12.50
  -4   3   1  377.16   13.40
  -4   3   1  363.76   13.00
  -4   3   1  334.27   15.80
  -4   3   1  322.17   12.90
   3  -3  -1 1172.68   29.50
   3  -3  -1 1124.69   29.50
   3  -3  -1 1097.39   29.30
   3  -3  -1 1160.88   29.30
  -3   3   1 1151.68   31.80
  -3   3   1 1203.18   29.40
  -3   3   1 1185.48   29.50
  -3   3   1 1128.69   30.00
  -3   3   1 1133.79   29.40
   2  -3  -1  346.77   11.40
   2  -3  -1  335.77   11.80
   2  -3  -1  359.16   11.70
   2  -3  -1  342.77   11.60
  -2   3   1  351.86   11.80
  -2   3   1  334.37   11.30
  -2   3   1  370.76   12.20
  -2   3   1  352.86   11.50
   1  -3  -1   22.20    3.40
   1  -3  -1   22.80    3.40
   1  -3  -1   19.80    3.30
   1  -3  -1   26.80    3.80
  -1   3   1   24.40    3.30
  -1   3   1   30.60    3.90
  -1   3   1   22.00    3.50
  -1   3   1   27.50    3.50
   0  -3  -1    8.30    2.50
   0  -3  -1    4.10    2.20
   0  -3  -1    4.90    2.70
   0  -3  -1    8.10    2.60
   0   3   1   11.40    2.60
   0   3   1    1.80    2.40
   0   3   1    6.90    2.30
   0   3   1    9.70    2.80
  -1  -3  -1  296.47    9.70
  -1  -3  -1  293.07    9.80
  -1  -3  -1  288.37    9.60
   1   3   1  307.87    9.70
   1   3   1  306.47    9.60
   1   3   1  304.37   10.00
   1   3   1  289.17    9.60
  -2  -3  -1  986.40   24.30
  -2  -3  -1  984.10   24.50
  -2  -3  -1  979.40   24.60
  -2  -3  -1  927.51   24.20
  -2  -3  -1  982.70   23.00
   2   3   1  977.10   24.40
   2   3   1 1004.50   24.50
   2   3   1  981.50   24.50
   2   3   1  974.40   23.10
   2   3   1  989.60   24.30
  -3  -3  -1 3596.54   79.89
  -3  -3  -1 3537.05   79.89
  -3  -3  -1 3490.85   79.99
  -3  -3  -1 3606.64   80.09
   3   3   1 3557.84   80.19
   3   3   1 3531.85   79.89
   3   3   1 3543.05   79.99
   3   3   1 3522.05   79.89
   3   3   1 3518.85   79.39
  -4  -3  -1  471.15   14.10
  -4  -3  -1  475.75   13.90
  -4  -3  -1  468.95   14.00
   4   3   1  465.45   14.00
   4   3   1  468.35   14.30
   4   3   1  469.55   13.90
   4   3   1  467.45   14.30
   4   3   1  468.95   14.20
  -5  -3  -1 1564.54   37.80
  -5  -3  -1 1565.04   38.00
  -5  -3  -1 1573.84   38.20
   5   3   1 1621.34   38.00
   5   3   1 1504.35   37.90
   5   3   1 1576.24   38.10
   5   3   1 1556.14   37.90
  -6  -3  -1  254.57   10.60
  -6  -3  -1  244.78   10.50
  -6  -3  -1  262.17   10.70
  -6  -3  -1  237.48   10.30
   6   3   1  245.28   11.00
   6   3   1  239.18   10.40
   6   3   1  210.08   11.20
   6   3   1  249.48   10.70
  -7  -3  -1 1244.58   32.30
  -7  -3  -1 1284.17   32.70
  -7  -3  -1 1256.97   32.80
  -7  -3  -1 1247.38   32.40
   7   3   1 1257.87   32.70
   7   3   1 1233.18   32.60
   7   3   1 1235.58   32.70
   7   3   1 1231.38   32.30
   7   3   1 1236.38   31.00
  -8  -3  -1  586.04   19.10
  -8  -3  -1  566.64   18.90
  -8  -3  -1  532.45   19.30
  -8  -3  -1  562.54   19.90
   8   3   1  574.84   17.10
   8   3   1  586.54   18.80
   8   3   1  543.65   19.30
   8   3   1  550.24   19.20
   8   3   1  540.75   19.30
  -9  -3  -1  514.35   18.70
  -9  -3  -1  458.85   19.50
  -9  -3  -1  492.25   18.70
  -9  -3  -1  487.65   19.50
   9   3   1  539.25   18.80
   9   3   1  496.85   16.20
   9   3   1  526.05   19.50
   9   3   1  431.96   19.00
   9   3   1  470.25   19.40
 -10  -3  -1  933.01   28.10
 -10  -3  -1  899.81   27.80
 -10  -3  -1  832.22   28.10
  10   3   1  881.81   27.50
  10   3   1  899.01   28.50
  10   3   1  790.92   27.50
  10   3   1  898.31   27.40
 -11  -3  -1   18.10   10.00
 -11  -3  -1    3.80    9.60
 -11  -3  -1   -0.50    9.90
  11   3   1   11.10   10.20
  11   3   1   -0.50    9.30
  11   3   1    4.70    9.10
  11   3   1   -0.70   15.00
   8  -4  -1  507.15   25.40
   8  -4  -1  536.45   26.10
   8  -4  -1  496.15   22.00
   8  -4  -1  488.45   22.60
  -8   4   1  454.45   22.60
  -8   4   1  466.85   24.70
  -8   4   1  482.15   26.60
  -8   4   1  501.75   27.30
  -8   4   1  524.65   23.00
   7  -4  -1  146.69   11.90
   7  -4  -1  136.19   11.80
   7  -4  -1  147.49   13.30
   7  -4  -1  129.39   13.40
  -7   4   1  133.79   15.90
  -7   4   1  166.68   15.00
  -7   4   1  121.59   13.70
  -7   4   1  141.59   12.30
  -7   4   1  139.29   12.10
   6  -4  -1   92.29    9.30
   6  -4  -1   97.69   10.80
   6  -4  -1  104.49    9.90
   6  -4  -1   92.59   10.10
  -6   4   1  106.99   10.60
  -6   4   1   78.39    9.10
  -6   4   1   95.39   11.70
  -6   4   1   97.79    9.70
   5  -4  -1   62.99    8.00
   5  -4  -1   74.59    8.60
   5  -4  -1   61.99    8.00
   5  -4  -1   68.89    8.60
  -5   4   1   65.99    8.00
  -5   4   1   51.89    7.50
  -5   4   1   52.89    9.80
  -5   4   1   68.69    8.00
   4  -4  -1 1057.29   30.20
   4  -4  -1 1141.69   30.40
   4  -4  -1 1115.89   30.20
   4  -4  -1 1102.89   30.20
  -4   4   1 1136.59   30.10
  -4   4   1 1052.49   30.00
  -4   4   1 1142.89   33.80
  -4   4   1 1159.48   30.30
   3  -4  -1   33.20    5.40
   3  -4  -1   30.60    5.30
   3  -4  -1   33.50    5.60
   3  -4  -1   30.50    5.30
  -3   4   1   48.10    5.70
  -3   4   1   29.30    5.70
  -3   4   1   38.60    7.90
  -3   4   1   40.40    5.20
  -3   4   1   28.40    5.70
   2  -4  -1    3.30    3.70
   2  -4  -1   -0.60    3.50
   2  -4  -1   11.00    4.10
   2  -4  -1    7.70    3.80
  -2   4   1    3.00    3.60
  -2   4   1    3.50    5.80
  -2   4   1    8.60    4.20
  -2   4   1    7.30    3.40
  -2   4   1    1.30    4.00
   1  -4  -1  406.26   13.20
   1  -4  -1  404.56   13.30
   1  -4  -1  404.26   13.40
   1  -4  -1  397.76   13.70
  -1   4   1  381.46   13.40
  -1   4   1  393.26   12.90
  -1   4   1  406.46   13.30
  -1   4   1  379.96   13.60
   0  -4  -1  360.16   12.40
   0  -4  -1  372.46   12.20
   0  -4  -1  362.16   12.40
   0  -4  -1  352.66   12.60
   0   4   1  353.56   12.30
   0   4   1  356.26   12.80
   0   4   1  362.36   12.30
  -1  -4  -1 1941.11   45.50
  -1  -4  -1 1892.21   45.60
  -1  -4  -1 1901.81   45.80
  -1  -4  -1 1893.91   45.70
   1   4   1 1890.51   45.30
   1   4   1 1945.71   45.70
   1   4   1 1914.71   45.80
   1   4   1 1927.51   45.70
  -2  -4  -1   10.00    2.00
  -2  -4  -1   10.40    3.30
  -2  -4  -1   13.60    3.40
  -2  -4  -1   10.80    3.30
  -2  -4  -1   10.50    3.30
   2   4   1   13.70    3.50
   2   4   1   16.40    3.70
   2   4   1    7.60    3.00
   2   4   1   12.10    3.80
  -3  -4  -1  202.48    9.10
  -3  -4  -1  194.08    9.20
  -3  -4  -1  213.88    9.50
  -3  -4  -1  207.58    9.40
   3   4   1  229.98    9.40
   3   4   1  223.88    9.00
   3   4   1  223.08    7.70
   3   4   1  217.08    9.50
   3   4   1  219.98    9.30
  -4  -4  -1  638.74   18.60
  -4  -4  -1  641.24   18.70
  -4  -4  -1  640.24   18.90
  -4  -4  -1  635.34   18.80
   4   4   1  640.04   18.90
   4   4   1  660.33   18.60
   4   4   1  645.94   17.80
   4   4   1  634.34   18.70
   4   4   1  639.64   18.90
  -5  -4  -1 2722.13   65.69
  -5  -4  -1 2793.72   65.99
  -5  -4  -1 2924.81   66.19
  -5  -4  -1 2821.22   66.29
   5   4   1 2844.82   66.29
   5   4   1 2800.82   65.99
   5   4   1 2767.82   66.09
   5   4   1 2889.71   66.09
   5   4   1 2887.91   66.19
  -6  -4  -1  682.13   20.70
  -6  -4  -1  698.73   20.70
  -6  -4  -1  686.13   20.50
   6   4   1  673.83   20.50
   6   4   1  710.03   20.70
   6   4   1  692.03   21.00
   6   4   1  673.93   20.50
  -7  -4  -1   48.30    6.80
  -7  -4  -1   53.19    7.10
  -7  -4  -1   36.90    6.20
  -7  -4  -1   65.89    7.20
   7   4   1   57.19    7.00
   7   4   1   64.89    7.30
   7   4   1   48.80    7.00
   7   4   1   49.10    6.70
  -8  -4  -1    9.80    6.50
  -8  -4  -1   -5.70    6.20
  -8  -4  -1   11.40    6.30
  -8  -4  -1    4.20    5.70
   8   4   1    0.90    6.10
   8   4   1   -4.80    5.70
   8   4   1   -1.30    6.20
   8   4   1   -3.90    4.70
   8   4   1    9.90    6.20
  -9  -4  -1  202.18   15.80
  -9  -4  -1  195.68   14.30
  -9  -4  -1  211.48   15.00
  -9  -4  -1  232.98   14.30
   9   4   1  237.28   14.70
   9   4   1  220.78   15.20
   9   4   1  217.98   14.70
   9   4   1  225.48   11.30
 -10  -4  -1   66.79   11.80
 -10  -4  -1   62.89   11.60
 -10  -4  -1   74.39   11.40
 -10  -4  -1   77.09   10.60
  10   4   1   60.49   10.60
  10   4   1   64.09   10.20
  10   4   1   67.49    6.50
  10   4   1   60.09   10.40
  10   4   1   92.99   11.60
 -11  -4  -1   42.80   12.20
 -11  -4  -1   35.70   12.50
 -11  -4  -1   38.70   11.70
 -11  -4  -1   20.70   10.60
  11   4   1   31.80   11.00
  11   4   1   43.20   15.70
  11   4   1   32.20   11.40
  11   4   1   32.70   11.50
  11   4   1   45.50   11.80
   7  -5  -1    6.30   10.40
   7  -5  -1    9.60    8.80
   7  -5  -1   10.40   11.20
   7  -5  -1   -9.20    8.70
  -7   5   1   13.10   11.10
  -7   5   1   -4.40    9.60
  -7   5   1    2.70    9.60
   6  -5  -1   13.00    8.90
   6  -5  -1   29.90    9.70
   6  -5  -1   19.10    8.20
   6  -5  -1   30.50    8.20
  -6   5   1   23.70    9.20
  -6   5   1   35.10   11.90
  -6   5   1   28.60    9.20
  -6   5   1   23.00    8.20
   5  -5  -1  293.07   15.60
   5  -5  -1  322.67   16.30
   5  -5  -1  304.77   15.90
   5  -5  -1  320.87   15.70
  -5   5   1  309.47   20.00
  -5   5   1  322.97   15.60
  -5   5   1  336.57   16.80
   4  -5  -1  613.44   21.30
   4  -5  -1  587.34   20.00
   4  -5  -1  623.94   20.90
   4  -5  -1  561.44   20.50
  -4   5   1  600.54   21.10
  -4   5   1  605.64   20.20
  -4   5   1  610.14   21.60
  -4   5   1  618.04   24.50
  -4   5   1  595.54   20.40
   3  -5  -1  124.49   10.10
   3  -5  -1  134.39    9.90
   3  -5  -1  128.69   10.40
   3  -5  -1  133.79   10.60
  -3   5   1  132.89   11.50
  -3   5   1  145.29   13.20
  -3   5   1  150.48   10.10
  -3   5   1  147.89    9.70
  -3   5   1  137.39   10.70
   2  -5  -1  219.88   11.40
   2  -5  -1  223.78   11.40
   2  -5  -1  246.78   12.30
   2  -5  -1  232.08   11.30
  -2   5   1  236.78   12.40
  -2   5   1  249.88   11.50
  -2   5   1  244.68   11.10
  -2   5   1  226.38   11.90
  -2   5   1  244.58   15.80
   1  -5  -1   15.10    4.70
   1  -5  -1   19.80    4.90
   1  -5  -1   21.40    5.10
   1  -5  -1   20.30    4.80
  -1   5   1   27.60    5.60
  -1   5   1   33.10    6.00
  -1   5   1   26.40    4.80
  -1   5   1   21.50    4.90
   0  -5  -1 3774.92   85.99
   0  -5  -1 3735.83   86.29
   0  -5  -1 3811.82   86.39
   0  -5  -1 3737.73   86.69
   0   5   1 3701.13   86.09
   0   5   1 3741.03   86.49
   0   5   1 3710.53   86.59
   0   5   1 3717.93   85.89
  -1  -5  -1 2128.19   52.39
  -1  -5  -1 2162.58   52.39
  -1  -5  -1 2217.08   52.39
  -1  -5  -1 2210.28   52.89
   1   5   1 2148.98   52.69
   1   5   1 2196.08   52.59
   1   5   1 2178.08   52.39
   1   5   1 2196.28   52.09
  -2  -5  -1 1740.83   44.40
  -2  -5  -1 1854.41   44.90
  -2  -5  -1 1796.02   40.80
  -2  -5  -1 1836.42   45.00
  -2  -5  -1 1824.92   44.60
   2   5   1 1810.82   45.00
   2   5   1 1804.42   44.60
   2   5   1 1839.22   44.80
   2   5   1 1859.11   44.50
  -3  -5  -1 2636.84   62.19
  -3  -5  -1 2679.03   62.49
  -3  -5  -1 2571.44   62.39
  -3  -5  -1 2653.03   62.19
   3   5   1 2633.34   62.59
   3   5   1 2590.34   59.19
   3   5   1 2665.73   62.09
   3   5   1 2622.74   62.29
   3   5   1 2576.34   62.19
  -4  -5  -1  164.98    9.30
  -4  -5  -1  160.48    9.80
  -4  -5  -1  163.48    9.70
  -4  -5  -1  158.48    9.90
   4   5   1  159.58    9.50
   4   5   1  156.78    7.70
   4   5   1  164.18   10.00
   4   5   1  166.78    9.70
   4   5   1  179.18   10.00
  -5  -5  -1  953.60   26.60
  -5  -5  -1  935.01   26.40
  -5  -5  -1  965.00   26.90
  -5  -5  -1  941.91   26.70
   5   5   1  966.60   27.00
   5   5   1  936.31   26.90
   5   5   1  955.00   25.40
   5   5   1  976.90   26.80
   5   5   1  909.51   26.30
  -6  -5  -1  380.26   15.00
  -6  -5  -1  346.37   14.50
  -6  -5  -1  353.76   15.10
  -6  -5  -1  350.76   14.50
   6   5   1  382.16   14.70
   6   5   1  339.07   13.90
   6   5   1  350.86   14.40
   6   5   1  360.66   15.20
   6   5   1  358.76   14.30
  -7  -5  -1 1906.41   47.30
  -7  -5  -1 1712.53   54.29
  -7  -5  -1 1855.31   46.80
   7   5   1 1902.61   47.90
   7   5   1 1881.31   46.90
   7   5   1 1859.61   47.60
   7   5   1 1913.01   47.40
   7   5   1 1861.91   47.20
  -8  -5  -1  371.06   16.50
  -8  -5  -1  369.36   16.80
  -8  -5  -1  402.96   16.80
   8   5   1  376.26   16.60
   8   5   1  352.76   18.10
   8   5   1  336.67   18.30
   8   5   1  372.46   17.50
   8   5   1  404.26   16.90
  -9  -5  -1   26.20    8.50
  -9  -5  -1    5.70    7.30
  -9  -5  -1   11.70    8.20
   9   5   1   10.90    5.70
   9   5   1   21.00    8.00
   9   5   1    3.90    7.20
   9   5   1    7.10    8.20
   9   5   1   16.60    9.70
 -10  -5  -1   12.00   10.10
 -10  -5  -1   -4.40    9.40
 -10  -5  -1    9.10    8.60
 -10  -5  -1   -3.70   10.30
  10   5   1   -3.20    8.20
  10   5   1    7.40    8.90
  10   5   1    3.70    9.90
  10   5   1   -4.90    8.70
  10   5   1   -1.60    5.70
 -11  -5  -1   17.60   11.00
 -11  -5  -1   -8.00   11.00
 -11  -5  -1   12.20   12.00
 -11  -5  -1   24.00   12.40
  11   5   1   18.20   11.10
  11   5   1   13.90   11.50
  11   5   1   42.80   15.10
  11   5   1   21.70   11.70
  11   5   1    5.80   10.40
   6  -6  -1  130.09   13.70
   6  -6  -1  166.08   14.00
   6  -6  -1  134.49   13.40
   6  -6  -1  141.19   13.60
  -6   6   1  136.19   13.70
  -6   6   1  139.49   13.30
  -6   6   1  149.49   16.90
  -6   6   1  121.69   13.40
   5  -6  -1    1.80    7.70
   5  -6  -1  -10.00    7.80
   5  -6  -1   -0.80    7.40
   5  -6  -1    8.00    8.10
  -5   6   1   19.60    8.60
  -5   6   1   -4.40   10.20
  -5   6   1   -2.50    7.90
   4  -6  -1  246.88   15.40
   4  -6  -1  265.47   15.80
   4  -6  -1  222.18   14.90
   4  -6  -1  228.08   14.30
  -4   6   1  266.67   14.70
  -4   6   1  254.57   17.10
  -4   6   1  287.67   21.00
  -4   6   1  237.08   15.20
  -4   6   1  306.37   18.70
   3  -6  -1    8.60    6.20
   3  -6  -1    9.60    6.10
   3  -6  -1   14.20    6.50
   3  -6  -1    5.70    6.40
  -3   6   1   13.30    6.00
  -3   6   1    4.90    6.70
  -3   6   1    5.30    8.90
  -3   6   1   12.20    5.90
  -3   6   1    8.70    7.20
   2  -6  -1  902.21   26.10
   2  -6  -1  858.91   26.90
   2  -6  -1  886.21   26.70
   2  -6  -1  864.71   26.50
  -2   6   1  895.91   30.40
  -2   6   1  888.01   27.00
  -2   6   1  876.01   27.50
  -2   6   1  896.21   26.00
  -2   6   1  885.71   26.00
   1  -6  -1 1263.97   34.40
   1  -6  -1 1254.97   33.80
   1  -6  -1 1219.58   33.30
   1  -6  -1 1218.08   33.60
  -1   6   1 1234.78   34.00
  -1   6   1 1254.47   37.50
  -1   6   1 1227.88   33.10
  -1   6   1 1268.77   33.70
  -1   6   1 1203.48   34.30
   0  -6  -1    5.90    5.30
   0  -6  -1    0.90    4.70
   0  -6  -1    2.90    4.60
   0  -6  -1    6.30    5.30
   0   6   1    5.10    4.50
   0   6   1    7.20    5.50
   0   6   1    3.70    4.20
   0   6   1    7.20    5.30
  -1  -6  -1   29.00    5.80
  -1  -6  -1   29.00    6.30
  -1  -6  -1   19.70    5.20
  -1  -6  -1   24.10    5.70
   1   6   1   26.30    5.20
   1   6   1   23.40    6.10
   1   6   1   20.90    5.80
   1   6   1   22.90    5.20
  -2  -6  -1 1590.84   40.00
  -2  -6  -1 1518.85   40.40
  -2  -6  -1 1611.14   40.60
  -2  -6  -1 1514.05   40.00
   2   6   1 1547.15   40.60
   2   6   1 1519.15   40.10
   2   6   1 1561.84   39.80
   2   6   1 1579.34   40.20
  -3  -6  -1  971.60   27.10
  -3  -6  -1  968.10   27.80
  -3  -6  -1  975.70   27.60
  -3  -6  -1  943.21   27.30
   3   6   1  946.21   27.30
   3   6   1  934.51   27.10
   3   6   1  928.91   26.90
   3   6   1  935.11   27.60
  -4  -6  -1    1.30    5.10
  -4  -6  -1    0.50    4.70
  -4  -6  -1   -1.50    4.40
  -4  -6  -1    0.00    4.50
   4   6   1    4.00    3.30
   4   6   1   -3.80    4.70
   4   6   1   -2.80    4.60
   4   6   1    2.20    5.20
   4   6   1    6.30    5.10
  -5  -6  -1   41.50    6.50
  -5  -6  -1   26.90    6.50
  -5  -6  -1   40.40    6.90
  -5  -6  -1   29.00    6.80
   5   6   1   38.60    6.70
   5   6   1   25.50    6.30
   5   6   1   35.60    6.00
   5   6   1   35.40    5.10
   5   6   1   27.50    6.10
  -6  -6  -1   13.60    6.00
  -6  -6  -1   16.50    6.20
  -6  -6  -1    9.00    6.30
  -6  -6  -1    5.30    5.50
   6   6   1    2.70    5.60
   6   6   1    6.20    5.50
   6   6   1   28.10    6.20
   6   6   1   12.50    6.10
   6   6   1    5.90    5.10
  -7  -6  -1  331.27   15.60
  -7  -6  -1  305.17   16.10
  -7  -6  -1  318.67   15.60
  -7  -6  -1  317.17   15.40
   7   6   1  312.57   15.80
   7   6   1  303.77   16.30
   7   6   1  326.27   15.50
   7   6   1  317.87   15.20
   7   6   1  359.36   16.20
  -8  -6  -1   41.00    8.40
  -8  -6  -1   29.70    7.90
  -8  -6  -1   22.50    8.10
  -8  -6  -1   32.60    8.50
   8   6   1   32.40    8.30
   8   6   1   23.60    7.30
   8   6   1   29.50    8.30
  -9  -6  -1  112.59   11.70
  -9  -6  -1  125.59   12.40
   9   6   1  112.59   12.80
   9   6   1  100.19   11.30
   9   6   1  131.79   12.10
   9   6   1  121.59   12.00
   9   6   1  136.29   11.60
 -10  -6  -1   24.10    9.70
 -10  -6  -1   35.90   10.60
  10   6   1   35.60   10.80
  10   6   1   23.70   11.00
  10   6   1   17.40    9.80
  10   6   1   35.30    7.20
  10   6   1   14.60    9.00
 -11  -6  -1  620.54   27.80
 -11  -6  -1  568.44   26.00
 -11  -6  -1  618.94   27.10
 -11  -6  -1  534.85   26.90
  11   6   1  576.74   27.50
  11   6   1  566.24   31.70
  11   6   1  585.54   26.00
  11   6   1  576.04   27.30
  11   6   1  586.64   27.10
   6  -7  -1  554.14   25.40
   6  -7  -1  525.45   26.10
   6  -7  -1  547.45   26.50
   6  -7  -1  547.55   25.30
  -6   7   1  561.64   26.20
  -6   7   1  541.45   26.00
  -6   7   1  518.85   25.10
  -6   7   1  565.74   32.90
   5  -7  -1   17.90   10.30
   5  -7  -1   17.00    9.90
   5  -7  -1   -7.50    9.20
   5  -7  -1   18.00    9.70
  -5   7   1    7.90   10.00
  -5   7   1    2.50   12.80
  -5   7   1   23.50   10.30
  -5   7   1   -1.90   13.40
   4  -7  -1  445.76   20.60
   4  -7  -1  460.45   21.50
   4  -7  -1  451.85   20.80
   4  -7  -1  445.16   19.80
  -4   7   1  439.86   22.70
  -4   7   1  412.36   26.20
  -4   7   1  428.66   20.80
   3  -7  -1  174.78   14.50
   3  -7  -1  155.68   14.70
   3  -7  -1  187.48   14.30
   3  -7  -1  177.68   13.40
  -3   7   1  194.18   13.50
  -3   7   1  207.48   15.70
  -3   7   1  182.98   16.50
  -3   7   1  142.69   24.40
  -3   7   1  175.58   13.80
   2  -7  -1  824.02   25.70
   2  -7  -1  787.92   26.10
   2  -7  -1  832.82   27.10
   2  -7  -1  811.72   26.90
  -2   7   1  825.92   27.80
  -2   7   1  826.52   31.10
  -2   7   1  771.82   26.60
  -2   7   1  809.92   25.80
  -2   7   1  779.82   25.30
   1  -7  -1  116.09   10.50
   1  -7  -1  134.09   11.60
   1  -7  -1  112.19   10.60
   1  -7  -1  128.89   12.10
  -1   7   1  124.79   11.20
  -1   7   1  100.19   11.90
  -1   7   1  124.99   11.20
  -1   7   1  136.59   11.10
  -1   7   1  109.99    9.90
   0  -7  -1 1221.28   34.70
   0  -7  -1 1229.58   35.00
   0  -7  -1 1228.58   34.10
   0  -7  -1 1275.17   35.10
   0   7   1 1218.48   34.10
   0   7   1 1240.68   35.60
   0   7   1 1253.67   34.60
   0   7   1 1252.17   35.30
  -1  -7  -1  331.87   14.80
  -1  -7  -1  335.37   15.60
  -1  -7  -1  321.37   14.70
  -1  -7  -1  316.57   15.90
   1   7   1  338.57   15.50
   1   7   1  331.77   14.50
   1   7   1  310.07   16.00
   1   7   1  333.67   15.00
  -2  -7  -1   13.60    5.90
  -2  -7  -1   19.50    6.50
  -2  -7  -1   17.10    5.90
  -2  -7  -1   11.30    6.10
   2   7   1   14.30    6.30
   2   7   1   19.00    6.30
   2   7   1   10.70    5.50
   2   7   1    3.90    5.90
  -3  -7  -1  265.67   13.30
  -3  -7  -1  252.27   14.30
  -3  -7  -1  264.67   14.20
  -3  -7  -1  252.57   13.80
   3   7   1  249.08   14.60
   3   7   1  261.37   13.60
   3   7   1  253.07   13.00
   3   7   1  228.48   13.70
  -4  -7  -1  468.95   17.70
  -4  -7  -1  440.56   18.20
  -4  -7  -1  463.15   17.90
  -4  -7  -1  450.25   18.90
   4   7   1  466.55   19.00
   4   7   1  448.46   17.60
   4   7   1  469.55   18.60
   4   7   1  452.15   17.70
  -5  -7  -1  110.89   10.10
  -5  -7  -1  126.09   10.50
  -5  -7  -1  140.39   12.90
  -5  -7  -1  144.99   11.50
   5   7   1  138.29   11.10
   5   7   1  130.49   11.30
   5   7   1  113.29   10.20
   5   7   1  147.99   12.00
   5   7   1  127.79    8.60
  -6  -7  -1  301.17   15.50
  -6  -7  -1  288.37   16.10
  -6  -7  -1  279.07   15.50
  -6  -7  -1  241.88   19.60
   6   7   1  259.37   15.20
   6   7   1  275.77   12.60
   6   7   1  286.27   15.60
   6   7   1  297.07   15.30
   6   7   1  311.77   16.50
  -7  -7  -1  377.56   17.70
  -7  -7  -1  351.36   17.60
  -7  -7  -1  381.26   18.70
  -7  -7  -1  365.66   18.50
   7   7   1  371.06   22.60
   7   7   1  417.76   18.50
   7   7   1  390.76   18.10
   7   7   1  405.96   18.90
   7   7   1  392.26   16.60
  -8  -7  -1    9.50    8.20
  -8  -7  -1    8.20    8.00
  -8  -7  -1    4.30    8.50
  -8  -7  -1   28.30    8.50
   8   7   1    9.80    8.40
   8   7   1   19.60    8.10
   8   7   1    4.90    8.10
   8   7   1    3.50    7.30
   8   7   1    7.40    7.80
  -9  -7  -1  195.88   17.70
  -9  -7  -1  185.68   14.40
   9   7   1  171.58   14.70
   9   7   1  194.18   15.00
   9   7   1  162.08   13.30
   9   7   1  169.18   14.40
   9   7   1  187.38   15.90
 -10  -7  -1   12.30   10.20
 -10  -7  -1   26.50   13.40
 -10  -7  -1   13.40   11.10
  10   7   1   10.80    9.90
  10   7   1   13.50   10.60
  10   7   1   16.00   11.80
  10   7   1   24.60   12.20
  10   7   1   15.80   10.90
   5  -8  -1   42.00   12.80
   5  -8  -1   52.69   12.50
   5  -8  -1   77.19   13.50
   5  -8  -1   46.10   12.70
  -5   8   1   34.30   14.00
  -5   8   1   26.20   11.40
  -5   8   1   49.90   11.90
  -5   8   1   66.79   13.40
  -5   8   1   47.70   16.40
   4  -8  -1  374.96   21.60
   4  -8  -1  317.57   20.10
   4  -8  -1  341.77   21.00
   4  -8  -1  386.46   20.60
  -4   8   1  337.87   23.50
  -4   8   1  348.57   21.20
  -4   8   1  356.06   20.80
  -4   8   1  390.76   20.70
  -4   8   1  351.26   28.70
   3  -8  -1  164.28   14.20
   3  -8  -1  145.79   13.90
   3  -8  -1  162.48   13.30
   3  -8  -1  164.98   13.80
  -3   8   1  144.49   13.80
  -3   8   1  149.09   13.40
  -3   8   1  129.09   13.80
  -3   8   1  128.79   16.80
   2  -8  -1   14.00    7.50
   2  -8  -1   13.90    8.10
   2  -8  -1   15.20    8.50
   2  -8  -1    6.80    7.50
  -2   8   1    2.80    8.90
  -2   8   1   48.30    9.90
  -2   8   1   -3.30    7.40
  -2   8   1   15.30   11.90
   1  -8  -1   12.00    7.80
   1  -8  -1    6.40    7.20
   1  -8  -1    2.30    7.60
   1  -8  -1  -13.00    7.00
  -1   8   1   15.30   10.40
  -1   8   1    9.20    7.20
  -1   8   1   10.70    8.00
  -1   8   1   21.20    9.00
  -1   8   1    9.90    7.00
   0  -8  -1  111.19   11.40
   0  -8  -1  119.29   12.10
   0  -8  -1   92.49   10.20
   0  -8  -1   84.69   10.10
   0   8   1   81.19    9.30
   0   8   1   85.09   11.10
   0   8   1   71.19    9.70
   0   8   1   86.99   13.40
   0   8   1   71.09   10.50
  -1  -8  -1   42.00    8.90
  -1  -8  -1   39.40    8.10
  -1  -8  -1   58.59    8.30
  -1  -8  -1   47.00    8.80
   1   8   1   49.40    8.20
   1   8   1   33.40    7.60
   1   8   1   34.60    8.20
   1   8   1   49.60    9.60
  -2  -8  -1  537.75   21.00
  -2  -8  -1  529.05   20.30
  -2  -8  -1  506.95   19.80
  -2  -8  -1  513.05   21.50
   2   8   1  514.55   19.60
   2   8   1  482.85   19.90
   2   8   1  483.35   21.10
   2   8   1  497.65   20.50
  -3  -8  -1    2.00    6.50
  -3  -8  -1    7.90    6.80
  -3  -8  -1    9.80    6.50
  -3  -8  -1    3.70    7.30
   3   8   1    5.70    6.70
   3   8   1    4.50    7.30
   3   8   1    0.60    5.90
   3   8   1   -0.90    6.20
  -4  -8  -1 1376.26   39.90
  -4  -8  -1 1473.85   40.90
  -4  -8  -1 1435.26   40.90
   4   8   1 1424.66   40.80
   4   8   1 1461.95   40.60
   4   8   1 1459.85   39.90
   4   8   1 1421.16   40.30
  -5  -8  -1 1131.69   34.30
  -5  -8  -1 1211.88   35.70
  -5  -8  -1 1207.98   36.10
  -5  -8  -1 1181.28   34.70
   5   8   1 1195.28   30.00
   5   8   1 1164.18   34.80
   5   8   1 1168.78   35.60
   5   8   1 1201.78   35.40
   5   8   1 1180.28   35.50
  -6  -8  -1  147.29   13.20
  -6  -8  -1  178.28   16.00
  -6  -8  -1  161.88   14.70
  -6  -8  -1  140.59   13.00
   6   8   1  139.59   10.70
   6   8   1  140.39   12.30
   6   8   1  142.59   13.40
   6   8   1  180.08   14.20
  -7  -8  -1  311.17   19.30
  -7  -8  -1  309.07   17.40
  -7  -8  -1  326.77   18.80
   7   8   1  325.37   17.90
   7   8   1  361.16   19.90
   7   8   1  300.97   18.30
   7   8   1  362.56   18.80
   7   8   1  332.47   15.70
  -8  -8  -1  745.83   28.40
  -8  -8  -1  758.42   28.60
  -8  -8  -1  728.43   28.40
  -8  -8  -1  750.12   27.20
   8   8   1  816.52   29.00
   8   8   1  764.22   25.90
   8   8   1  767.02   27.50
   8   8   1  774.52   27.50
   8   8   1  733.23   27.60
  -9  -8  -1 1114.99   43.10
  -9  -8  -1 1244.38   38.90
  -9  -8  -1 1222.88   37.30
  -9  -8  -1 1213.78   38.30
   9   8   1 1265.77   37.60
   9   8   1 1255.77   39.60
   9   8   1 1248.58   38.20
   9   8   1 1227.58   37.80
   9   8   1 1162.78   37.70
 -10  -8  -1   25.80   10.90
 -10  -8  -1   11.60   11.80
 -10  -8  -1   -5.20   11.10
 -10  -8  -1   14.80   11.60
  10   8   1   12.20   10.00
  10   8   1   18.60   11.90
  10   8   1    6.80   11.60
  10   8   1   21.60   12.80
  10   8   1    6.40   12.00
   4  -9  -1    9.20   12.30
   4  -9  -1   23.30   12.10
  -4   9   1   -5.50   11.10
   3  -9  -1   31.40   10.60
   3  -9  -1   21.10   11.70
   3  -9  -1   38.30   12.00
   3  -9  -1   27.30   11.50
  -3   9   1   18.20   13.00
  -3   9   1   24.70   10.90
  -3   9   1   31.70   16.20
  -3   9   1   37.40   10.90
  -3   9   1   38.60   11.20
   2  -9  -1   62.69   11.30
   2  -9  -1   40.50   10.70
   2  -9  -1   68.09   12.40
   2  -9  -1   93.99   13.00
  -2   9   1   81.39   12.20
  -2   9   1   64.89   15.60
  -2   9   1   58.49   11.70
  -2   9   1   73.79   13.60
   1  -9  -1  111.09   12.80
   1  -9  -1  128.69   12.70
   1  -9  -1  103.49   12.60
   1  -9  -1  130.29   13.10
  -1   9   1  110.89   13.10
  -1   9   1  130.19   15.30
  -1   9   1  125.49   17.60
  -1   9   1  127.89   12.80
   0  -9  -1  388.26   20.40
   0  -9  -1  427.56   21.80
   0  -9  -1  438.86   21.20
   0  -9  -1  444.46   19.80
   0   9   1  441.56   21.40
   0   9   1  417.56   22.70
   0   9   1  426.96   20.60
   0   9   1  414.76   25.70
  -1  -9  -1  206.48   18.10
  -1  -9  -1  207.18   16.70
  -1  -9  -1  214.28   15.60
  -1  -9  -1  249.78   17.70
   1   9   1  221.98   20.40
   1   9   1  229.78   15.30
   1   9   1  199.08   15.70
   1   9   1  225.68   16.20
   1   9   1  219.28   17.80
  -2  -9  -1   54.89   10.00
  -2  -9  -1   70.39   10.10
  -2  -9  -1   54.89    9.90
   2   9   1   44.90    9.10
   2   9   1   52.99    9.30
   2   9   1   52.39   10.10
   2   9   1   54.59   10.20
  -3  -9  -1   36.90    8.80
  -3  -9  -1   25.10    8.50
  -3  -9  -1   18.20    7.30
  -3  -9  -1   40.40    9.60
   3   9   1   26.50    8.50
   3   9   1   21.70    9.10
   3   9   1   27.30    8.50
   3   9   1   21.00    8.30
  -4  -9  -1  787.22   27.60
  -4  -9  -1  804.72   28.40
  -4  -9  -1  819.52   29.00
  -4  -9  -1  779.92   27.40
   4   9   1  770.22   27.40
   4   9   1  751.02   28.20
   4   9   1  808.42   28.30
   4   9   1  786.12   28.70
  -5  -9  -1  129.49   13.30
  -5  -9  -1  122.69   12.30
  -5  -9  -1  108.19   12.50
  -5  -9  -1  118.39   12.30
   5   9   1  142.99   13.00
   5   9   1  152.88   14.00
   5   9   1  122.89   12.90
   5   9   1  124.59   17.00
  -6  -9  -1  410.16   21.40
  -6  -9  -1  379.76   21.50
  -6  -9  -1  378.66   19.80
  -6  -9  -1  388.06   20.40
   6   9   1  384.06   20.30
   6   9   1  403.36   21.40
   6   9   1  382.76   24.40
   6   9   1  393.36   14.90
   6   9   1  383.26   22.70
  -7  -9  -1  317.07   20.80
  -7  -9  -1  302.97   20.40
  -7  -9  -1  304.57   18.60
   7   9   1  253.97   19.80
   7   9   1  299.97   15.20
   7   9   1  336.27   19.30
   7   9   1  253.07   20.00
   7   9   1  265.07   18.40
  -8  -9  -1   -0.70   10.20
  -8  -9  -1   11.30   10.80
  -8  -9  -1    4.20    9.00
   8   9   1   26.30   10.50
   8   9   1    7.00    9.60
   8   9   1    5.40   10.70
   8   9   1   16.30   10.10
   8   9   1   -3.60    8.00
  -9  -9  -1    4.60   11.30
  -9  -9  -1    1.40   10.50
  -9  -9  -1    6.00   12.20
  -9  -9  -1   14.20   11.40
   9   9   1    1.50   10.10
   9   9   1    2.70   11.10
   9   9   1   -3.10   10.10
   9   9   1    1.90   10.40
   9   9   1    6.70   12.10
 -10  -9  -1  126.59   16.40
 -10  -9  -1  147.29   16.70
 -10  -9  -1  112.29   14.60
 -10  -9  -1  112.69   15.30
  10   9   1  135.79   15.50
  10   9   1  136.89   16.20
  10   9   1  126.39   16.30
  10   9   1  132.99   17.70
  10   9   1  130.69   16.00
   2 -10  -1  207.38   18.00
   2 -10  -1  216.28   18.30
   2 -10  -1  204.18   18.00
   2 -10  -1  198.58   17.30
   2 -10  -1  216.48   13.30
  -2  10   1  218.68   17.60
  -2  10   1  192.98   16.10
  -2  10   1  195.98   19.40
  -2  10   1  189.88   23.00
  -2  10   1  221.88   19.10
   1 -10  -1  192.28   16.40
   1 -10  -1  225.68   19.60
   1 -10  -1  196.68   16.50
   1 -10  -1  194.18   10.40
   1 -10  -1  209.48   18.20
  -1  10   1  209.78   18.60
  -1  10   1  235.58   17.60
  -1  10   1  207.38   17.50
  -1  10   1  172.78   20.60
   0 -10  -1  100.39   13.70
   0 -10  -1  100.59   13.00
   0 -10  -1  101.29   12.80
   0 -10  -1  104.69   13.00
   0  10   1  102.39   16.40
   0  10   1  113.39   14.70
   0  10   1  136.49   14.50
   0  10   1  110.39   13.80
  -1 -10  -1  777.42   29.70
  -1 -10  -1  828.12   31.80
  -1 -10  -1  852.41   31.40
  -1 -10  -1  856.81   30.50
   1  10   1  815.42   30.60
   1  10   1  788.22   35.80
   1  10   1  879.71   32.80
   1  10   1  841.42   30.00
  -2 -10  -1 1684.43   48.50
  -2 -10  -1 1693.83   48.10
  -2 -10  -1 1693.43   47.90
  -2 -10  -1 1693.23   49.50
   2  10   1 1694.13   49.50
   2  10   1 1619.14   47.40
   2  10   1 1708.63   48.30
   2  10   1 1737.03   53.69
   2  10   1 1637.74   49.30
  -3 -10  -1  114.29   13.60
  -3 -10  -1   85.89   12.80
  -3 -10  -1   81.69   13.00
  -3 -10  -1  102.99   13.20
   3  10   1  103.09   13.20
   3  10   1   99.29   12.90
   3  10   1   69.49   11.30
   3  10   1   95.39   12.70
  -4 -10  -1  140.59   14.40
  -4 -10  -1  166.08   16.60
  -4 -10  -1  167.98   15.00
  -4 -10  -1  181.78   15.40
   4  10   1  178.48   15.60
   4  10   1  184.18   16.40
   4  10   1  180.58   16.40
   4  10   1  155.38   14.50
  -5 -10  -1   15.80   11.00
  -5 -10  -1   -2.40   10.40
  -5 -10  -1    0.40    9.00
  -5 -10  -1    6.30    9.50
   5  10   1    0.80    9.40
   5  10   1    4.30    9.40
   5  10   1   -2.60   10.20
   5  10   1   24.20   10.50
  -6 -10  -1  524.25   25.40
  -6 -10  -1  508.75   26.00
  -6 -10  -1  470.05   25.80
  -6 -10  -1  518.05   26.40
   6  10   1  543.55   25.20
   6  10   1  550.04   24.40
   6  10   1  541.75   25.90
   6  10   1  531.35   25.50
  -7 -10  -1  298.27   22.60
  -7 -10  -1  260.17   21.90
   7  10   1  314.77   22.20
   7  10   1  264.57   20.60
   7  10   1  286.47   22.50
   7  10   1  279.97   20.10
   7  10   1  274.67   15.00
  -8 -10  -1   22.20   12.70
  -8 -10  -1   44.10   13.90
   8  10   1   40.00    9.30
   8  10   1   18.30   11.90
   8  10   1   18.90   12.20
   8  10   1   41.40   13.10
   8  10   1   28.00   12.60
  -9 -10  -1   77.59   15.60
  -9 -10  -1   89.09   15.40
  -9 -10  -1  100.19   16.10
   9  10   1   86.79   15.80
   9  10   1   99.19   16.20
   9  10   1  106.09   13.00
   9  10   1  103.89   15.80
   9  10   1  104.69   15.10
   0 -11  -1   50.89   13.60
   0 -11  -1   51.49   13.30
   0 -11  -1   41.80   14.20
   0 -11  -1   63.69   13.90
   0  11   1   58.19   15.10
   0  11   1   36.40   12.70
   0  11   1   51.69   14.00
   0  11   1   32.00   16.40
   0  11   1   28.30   13.80
  -1 -11  -1   -3.00   11.60
  -1 -11  -1   22.80   12.20
  -1 -11  -1    3.40   10.90
  -1 -11  -1   -9.00   10.40
   1  11   1   -0.40   10.70
   1  11   1    2.40   12.00
   1  11   1    7.40   12.40
   1  11   1  -11.30   11.80
   1  11   1   31.10   16.40
  -2 -11  -1   10.60   11.80
  -2 -11  -1    9.00   11.90
  -2 -11  -1  -12.70   10.20
  -2 -11  -1  -13.80   10.50
   2  11   1   -1.70   11.30
   2  11   1   10.10   11.50
   2  11   1    7.60   11.60
   2  11   1   27.80   11.60
   2  11   1    2.10   13.30
  -3 -11  -1   25.80   12.40
  -3 -11  -1   24.70   11.50
  -3 -11  -1   21.70   11.60
  -3 -11  -1   33.70   12.70
   3  11   1   22.60   12.10
   3  11   1    8.60   11.40
   3  11   1   30.50   12.70
   3  11   1   28.50   11.40
   3  11   1   11.40   13.60
  -4 -11  -1   59.19   13.70
  -4 -11  -1   62.09   12.60
  -4 -11  -1   53.09   13.10
  -4 -11  -1   80.99   13.70
   4  11   1   58.79   16.40
   4  11   1   56.79   12.50
   4  11   1   83.69   14.60
   4  11   1   67.89   13.60
   4  11   1   60.49   12.60
  -5 -11  -1  160.58   17.00
  -5 -11  -1  142.59   16.70
  -5 -11  -1  141.89   15.20
  -5 -11  -1  149.88   17.00
   5  11   1  130.39   15.20
   5  11   1  130.29   15.80
   5  11   1  163.48   16.80
   5  11   1  142.39   15.80
  -6 -11  -1  217.98   18.40
  -6 -11  -1  203.28   18.50
  -6 -11  -1  214.48   18.80
  -6 -11  -1  227.38   18.70
   6  11   1  245.98   19.40
   6  11   1  231.18   18.80
   6  11   1  243.98   19.90
   6  11   1  226.58   19.40
  -7 -11  -1   26.50   13.50
  -7 -11  -1   40.20   15.20
  -7 -11  -1   48.20   13.10
  -7 -11  -1   31.20   11.70
   7  11   1   33.40   13.10
   7  11   1   34.30   13.00
   7  11   1   18.20   13.30
   7  11   1   31.70   12.40
  -8 -11  -1   23.90   13.30
  -8 -11  -1   15.10   14.30
  -8 -11  -1   33.40   13.90
  -8 -11  -1   18.40   14.60
   8  11   1   42.80   13.50
   8  11   1   23.80   15.00
   8  11   1   53.19   15.50
   8  11   1   -0.80   13.00
  -2 -12  -1   17.00   14.80
  -2 -12  -1   30.30   15.10
  -2 -12  -1   38.90   15.90
  -2 -12  -1    2.70   12.80
   2  12   1   13.00   14.00
   2  12   1    4.40   18.10
   2  12   1    2.40   14.10
   2  12   1   33.60   15.00
   2  12   1  -17.00   13.60
  -3 -12  -1   28.10   15.10
  -3 -12  -1   31.40   15.00
  -3 -12  -1   36.80   13.80
  -3 -12  -1   14.00   12.70
   3  12   1   32.00   14.20
   3  12   1   43.30   19.90
   3  12   1   24.80   13.70
   3  12   1   20.60   14.40
   3  12   1   16.30   14.80
  -4 -12  -1  -12.30   12.50
  -4 -12  -1   12.30   15.40
  -4 -12  -1    6.70   15.00
  -4 -12  -1   20.60   13.30
   4  12   1    1.20   13.50
   4  12   1    8.90   13.70
   4  12   1   14.60   13.40
   4  12   1   11.90   17.60
   4  12   1    4.00   14.60
  -5 -12  -1   67.99   14.90
  -5 -12  -1   36.00   15.80
  -5 -12  -1   27.60   14.90
  -5 -12  -1   55.39   16.00
   5  12   1   19.00   14.40
   5  12   1   17.50   14.10
   5  12   1   49.00   16.10
   5  12   1   66.19   15.30
   5  12   1   53.49   17.60
  -6 -12  -1   37.10   14.30
  -6 -12  -1   31.10   16.10
  -6 -12  -1   11.00   14.20
  -6 -12  -1   44.60   16.30
   6  12   1   63.49   17.20
   6  12   1   38.40   15.10
   6  12   1   11.70   15.20
   6  12   1   40.30   15.60
   6  12   1   47.40   15.50
   7  11  -2   -7.10   13.60
   7  11  -2   17.40    7.50
   7  11  -2   10.60   15.70
   7  11  -2    2.50   15.00
   7  11  -2   29.30   14.30
  -7 -11   2    1.20   13.00
  -7 -11   2   22.10   15.70
  -7 -11   2    4.10   16.20
  -7 -11   2  -18.30   13.80
   6  11  -2  153.18   18.40
   6  11  -2  131.99   17.30
   6  11  -2  138.49   18.80
   6  11  -2  147.49   17.80
   6  11  -2  121.99   17.10
  -6 -11   2  144.79   18.20
  -6 -11   2  149.59   18.70
  -6 -11   2  149.69   17.40
   5  11  -2   47.00   14.50
   5  11  -2    4.80   13.80
   5  11  -2   44.00   13.20
   5  11  -2   29.90   15.50
   5  11  -2   52.09   14.90
  -5 -11   2   33.50   13.70
  -5 -11   2   44.50   12.70
  -5 -11   2   39.60   14.20
  -5 -11   2   24.10   14.80
   4  11  -2  121.59   16.50
   4  11  -2   90.89   15.30
   4  11  -2   84.99   15.70
   4  11  -2   94.49   17.70
   4  11  -2   92.99   15.30
  -4 -11   2  122.59   15.80
  -4 -11   2  130.89   16.30
  -4 -11   2   97.39   16.10
  -4 -11   2   93.89   14.50
   3  11  -2    0.20   11.70
   3  11  -2   -6.50   15.40
   3  11  -2   -1.40   12.00
   3  11  -2  -13.70   12.00
   3  11  -2   26.10   12.80
  -3 -11   2   -3.90   11.40
  -3 -11   2   10.20   14.00
  -3 -11   2   10.80   12.90
  -3 -11   2    6.10   11.80
   2  11  -2  178.68   17.80
   2  11  -2  207.58   18.80
   2  11  -2  189.28   17.60
   2  11  -2  211.78   19.20
   2  11  -2  213.18   22.10
  -2 -11   2  169.08   16.70
  -2 -11   2  206.98   18.80
  -2 -11   2  179.48   19.30
  -2 -11   2  191.58   18.00
   1  11  -2  170.28   21.30
   1  11  -2  134.29   15.80
   1  11  -2  170.28   18.20
   1  11  -2  115.79   16.00
   1  11  -2  112.89   15.20
  -1 -11   2  211.78   18.50
  -1 -11   2  139.29   16.50
  -1 -11   2  118.69   16.80
  -1 -11   2  140.39   15.50
   0  11  -2   73.29   15.70
   0  11  -2   72.99   19.60
   0  11  -2   74.79   14.20
   0  11  -2   77.99   16.80
   0  11  -2   85.69   14.90
   0 -11   2   74.09   14.40
   0 -11   2   66.19   14.90
   0 -11   2   87.49   15.20
   0 -11   2   69.49   15.40
   8  10  -2   -5.40    9.20
   8  10  -2    9.20   12.70
   8  10  -2   43.60   15.80
   8  10  -2   17.40   12.30
   8  10  -2    0.00   12.90
   8  10  -2   -7.10   13.30
  -8 -10   2   19.00   12.70
  -8 -10   2   34.10   13.10
  -8 -10   2   15.40   15.40
  -8 -10   2   21.60   14.00
   7  10  -2  339.77   23.80
   7  10  -2  365.66   24.80
   7  10  -2  369.76   25.80
   7  10  -2  329.07   27.20
   7  10  -2  351.76   16.40
   7  10  -2  319.77   24.60
  -7 -10   2  331.47   26.30
  -7 -10   2  370.36   22.90
  -7 -10   2  315.77   25.30
  -7 -10   2  301.87   23.90
   6  10  -2  432.36   25.00
   6  10  -2  470.45   26.50
   6  10  -2  454.75   15.50
   6  10  -2  478.45   26.30
   6  10  -2  482.75   25.90
   6  10  -2  420.36   27.10
  -6 -10   2  484.35   25.40
  -6 -10   2  445.66   27.60
  -6 -10   2  443.96   25.70
  -6 -10   2  437.46   26.30
   5  10  -2   20.00   11.40
   5  10  -2   33.80   11.50
   5  10  -2   28.80   11.70
   5  10  -2   34.60   11.40
   5  10  -2   18.60   12.50
  -5 -10   2   31.30   12.40
  -5 -10   2   27.50   11.40
  -5 -10   2   34.50   12.70
  -5 -10   2   45.70   11.60
   4  10  -2    9.40   10.80
   4  10  -2   24.10   11.40
   4  10  -2   31.10   11.50
   4  10  -2   25.40   13.10
   4  10  -2   23.50   11.10
  -4 -10   2   23.20   11.10
  -4 -10   2   24.30   10.00
  -4 -10   2   15.40   11.10
  -4 -10   2   16.60   13.10
   3  10  -2   63.69   12.20
   3  10  -2   83.79   14.90
   3  10  -2   56.99   12.30
   3  10  -2   71.89   12.50
   3  10  -2   83.99   13.00
  -3 -10   2   69.39   12.30
  -3 -10   2   89.99   13.30
  -3 -10   2   86.99   12.30
  -3 -10   2   74.09   13.40
   2  10  -2  125.79   15.30
   2  10  -2  141.69   15.00
   2  10  -2  122.49   14.20
   2  10  -2  129.09   17.00
  -2 -10   2  122.99   14.20
  -2 -10   2  128.89   15.10
  -2 -10   2  127.49   14.40
  -2 -10   2  128.29   14.00
   1  10  -2   34.90   12.80
   1  10  -2   24.90   14.00
   1  10  -2   24.10   10.90
   1  10  -2   29.40   10.90
  -1 -10   2   37.60   11.80
  -1 -10   2   26.50   10.90
  -1 -10   2   40.10   10.60
  -1 -10   2   27.90   11.00
   0  10  -2   60.69   14.10
   0  10  -2   56.79   13.00
   0  10  -2   31.90   15.80
   0  10  -2   48.10   11.80
   0 -10   2   63.69   13.40
   0 -10   2   36.20   11.20
   0 -10   2   35.80   10.90
  -1  10  -2   22.20   10.80
  -1  10  -2   31.90   14.80
  -1  10  -2   26.40   13.60
  -1  10  -2   10.10   10.80
  -1  10  -2   14.00   11.60
   1 -10   2   20.90   10.60
   1 -10   2   22.70   11.00
   1 -10   2   12.90   11.90
   1 -10   2   43.50   12.30
  -2  10  -2  196.98   16.90
  -2  10  -2  191.78   22.40
  -2  10  -2  177.28   17.00
  -2  10  -2  175.68   18.00
  -2  10  -2  171.88   16.00
   2 -10   2  178.38   16.60
   2 -10   2  172.58   16.70
   2 -10   2  196.38   16.70
   2 -10   2  203.08   17.90
   9   9  -2  134.19   16.80
   9   9  -2  122.19   12.60
   9   9  -2  133.89   18.60
   9   9  -2  109.59   17.60
   9   9  -2  173.58   18.80
  -9  -9   2   88.29   15.60
  -9  -9   2  109.69   16.10
  -9  -9   2   66.79   16.30
  -9  -9   2  132.39   17.70
   8   9  -2  230.68   21.40
   8   9  -2  180.88   16.50
   8   9  -2  224.38   19.70
   8   9  -2  179.28   17.40
   8   9  -2  200.98   19.30
   8   9  -2  227.48   19.10
  -8  -9   2  227.88   18.80
  -8  -9   2  251.97   19.90
  -8  -9   2  239.98   19.90
  -8  -9   2  174.08   16.60
   7   9  -2   88.19   14.40
   7   9  -2   95.89   14.50
   7   9  -2   69.99   12.80
   7   9  -2   92.99   13.90
   7   9  -2  100.09   12.70
   7   9  -2   89.79    9.60
  -7  -9   2  101.89   13.30
  -7  -9   2   79.99   13.80
  -7  -9   2   87.79   14.40
  -7  -9   2   72.39   13.80
   6   9  -2  281.67   20.70
   6   9  -2  263.77   20.80
   6   9  -2  232.58   12.70
   6   9  -2  271.77   19.80
   6   9  -2  235.98   18.80
  -6  -9   2  268.57   19.20
  -6  -9   2  280.57   19.40
  -6  -9   2  251.27   19.40
  -6  -9   2  275.47   21.70
   5   9  -2   10.10   10.00
   5   9  -2   -8.40    9.30
   5   9  -2   -0.40    9.50
   5   9  -2   22.20   10.10
   5   9  -2    7.10    9.60
   5   9  -2   15.20    4.80
  -5  -9   2    2.80    9.70
  -5  -9   2   27.30    9.50
  -5  -9   2    0.80    8.80
  -5  -9   2   26.90   10.90
   4   9  -2   -4.90    9.70
   4   9  -2  -17.20    8.80
   4   9  -2    0.80    8.80
   4   9  -2  -17.30    8.70
   4   9  -2    2.00    8.70
  -4  -9   2    5.80    7.80
  -4  -9   2    9.30    9.70
  -4  -9   2    5.20    8.10
  -4  -9   2    1.60    9.00
   3   9  -2  960.60   32.10
   3   9  -2  995.40   35.90
   3   9  -2  944.31   33.50
   3   9  -2 1022.10   33.30
   3   9  -2  951.80   32.50
  -3  -9   2 1010.70   34.00
  -3  -9   2  950.90   32.30
  -3  -9   2  990.00   33.30
  -3  -9   2 1057.29   33.40
   2   9  -2 1230.08   37.00
   2   9  -2 1258.07   37.90
   2   9  -2 1203.28   38.30
   2   9  -2 1213.08   41.20
   2   9  -2 1202.38   37.30
  -2  -9   2 1279.97   38.60
  -2  -9   2 1297.37   38.60
  -2  -9   2 1183.58   36.80
   1   9  -2    4.10    8.10
   1   9  -2   -2.90    9.30
   1   9  -2   19.30    9.20
   1   9  -2    2.00   11.00
  -1  -9   2  -11.80    7.90
  -1  -9   2   -9.30    8.70
  -1  -9   2   -9.10    7.90
  -1  -9   2   26.60    8.40
   0   9  -2  578.34   29.20
   0   9  -2  533.45   22.50
   0   9  -2  539.75   23.10
   0   9  -2  523.75   25.20
   0  -9   2  553.34   24.20
   0  -9   2  535.55   22.60
   0  -9   2  567.14   24.40
   0  -9   2  554.84   23.50
  -1   9  -2   44.20   11.40
  -1   9  -2   26.80    9.10
  -1   9  -2   39.80   10.20
  -1   9  -2   43.80   14.50
   1  -9   2   25.90    9.50
   1  -9   2   35.40    9.50
   1  -9   2   39.60   10.10
   1  -9   2   27.30   10.40
  -2   9  -2  684.63   26.20
  -2   9  -2  687.63   34.70
  -2   9  -2  661.83   27.90
  -2   9  -2  723.63   29.20
   2  -9   2  688.33   26.50
   2  -9   2  730.03   28.00
   2  -9   2  684.03   27.40
   2  -9   2  709.93   26.80
  -3   9  -2  145.49   15.80
  -3   9  -2  127.39   15.50
  -3   9  -2  119.29   20.30
  -3   9  -2  135.29   13.80
  -3   9  -2  117.89   14.60
   3  -9   2  108.59    9.70
   3  -9   2  108.09   13.00
   3  -9   2  123.99   14.20
   3  -9   2  105.09   13.40
   3  -9   2  119.09   14.40
  -4   9  -2  673.63   27.70
  -4   9  -2  685.13   39.20
  -4   9  -2  652.53   26.70
  -4   9  -2  681.43   29.10
   4  -9   2  668.53   28.40
   4  -9   2  710.23   24.60
   4  -9   2  673.03   28.70
   4  -9   2  714.73   27.60
   4  -9   2  668.43   28.30
   9   8  -2   23.60   14.00
   9   8  -2    4.60   11.20
   9   8  -2   32.30   14.80
   9   8  -2   27.80   13.00
   9   8  -2   25.80    7.90
  -9  -8   2   21.90   14.10
  -9  -8   2   11.40   13.10
  -9  -8   2   20.90   13.10
   8   8  -2    6.60   10.20
   8   8  -2    8.70    8.50
   8   8  -2   -8.00   11.40
   8   8  -2    9.30   11.40
   8   8  -2   13.00   10.60
  -8  -8   2  -12.30   10.90
  -8  -8   2   -5.20   10.30
  -8  -8   2    2.50   10.50
   7   8  -2   -7.10    8.50
   7   8  -2  -12.20   10.00
   7   8  -2   22.70    9.80
   7   8  -2    3.20    8.80
   7   8  -2    3.00   10.00
  -7  -8   2    9.50    9.70
  -7  -8   2   -7.30    9.70
  -7  -8   2    4.20    9.40
   6   8  -2    9.00    8.70
   6   8  -2    7.30    8.80
   6   8  -2   -3.10    8.70
   6   8  -2   -0.20    8.40
   6   8  -2   19.00    9.50
  -6  -8   2    8.00    8.80
  -6  -8   2    4.10    9.30
  -6  -8   2    8.50    9.40
  -6  -8   2   24.70    8.70
   5   8  -2  257.07   17.30
   5   8  -2  276.97   19.00
   5   8  -2  246.48   17.00
   5   8  -2  252.37   17.30
  -5  -8   2  268.87   18.20
  -5  -8   2  244.58   18.00
  -5  -8   2  267.57   18.50
  -5  -8   2  242.78   16.40
   4   8  -2  715.13   26.50
   4   8  -2  668.53   26.10
   4   8  -2  694.93   26.50
   4   8  -2  706.43   18.00
   4   8  -2  727.33   26.20
   4   8  -2  682.73   25.60
  -4  -8   2  700.23   25.70
  -4  -8   2  717.13   26.00
  -4  -8   2  724.13   26.50
  -4  -8   2  720.63   27.00
   3   8  -2   40.80    8.30
   3   8  -2   30.00    8.80
   3   8  -2   38.30    9.10
   3   8  -2   48.00   10.30
   3   8  -2   33.80    8.70
  -3  -8   2   29.30    8.50
  -3  -8   2   29.50    8.10
  -3  -8   2   24.40    7.90
  -3  -8   2   32.40    8.70
   2   8  -2  177.58   15.60
   2   8  -2  184.18   14.30
   2   8  -2  175.28   13.50
   2   8  -2  205.68   16.90
   2   8  -2  191.48   15.10
  -2  -8   2  197.18   14.10
  -2  -8   2  162.88   14.50
  -2  -8   2  157.98   15.20
  -2  -8   2  180.08   14.00
   1   8  -2  580.24   21.80
   1   8  -2  588.04   26.40
   1   8  -2  560.74   23.20
   1   8  -2  553.24   23.80
   1   8  -2  568.44   22.30
  -1  -8   2  557.84   22.70
  -1  -8   2  598.74   22.20
  -1  -8   2  639.54   22.60
  -1  -8   2  629.14   23.50
   0   8  -2 1158.78   36.10
   0   8  -2 1181.38   35.70
   0   8  -2 1261.07   35.80
   0   8  -2 1197.08   35.00
   0  -8   2 1194.98   35.80
   0  -8   2 1207.28   36.00
   0  -8   2 1234.48   35.40
  -1   8  -2  105.99   11.80
  -1   8  -2  101.89   13.60
  -1   8  -2  106.19   10.50
  -1   8  -2  104.39   11.30
  -1   8  -2  106.49   10.50
   1  -8   2  107.19   11.50
   1  -8   2   98.29   10.60
   1  -8   2   90.89   10.80
   1  -8   2  103.59   10.70
  -2   8  -2   46.30   10.70
  -2   8  -2   53.39   13.00
  -2   8  -2   40.60    9.50
  -2   8  -2   57.99   13.30
  -2   8  -2   56.99    9.10
   2  -8   2   45.60    8.90
   2  -8   2   47.10    9.50
   2  -8   2   37.90    9.00
   2  -8   2   45.90    9.40
   2  -8   2   52.39    6.10
  -3   8  -2   23.40    9.80
  -3   8  -2   37.50   13.00
  -3   8  -2   43.40   10.60
   3  -8   2   24.50    8.90
   3  -8   2   15.40    9.00
   3  -8   2   25.60    9.10
   3  -8   2   51.59    9.50
   3  -8   2   29.00    6.90
  -4   8  -2  274.17   23.80
  -4   8  -2  201.18   18.80
  -4   8  -2  192.38   18.40
   4  -8   2  243.48   18.10
   4  -8   2  230.48   17.20
   4  -8   2  228.68   18.30
   4  -8   2  228.88   15.30
   4  -8   2  236.48   17.00
  -5   8  -2   16.00   11.40
  -5   8  -2   39.90   12.20
  -5   8  -2   31.20   17.30
  -5   8  -2   44.10   10.30
  -5   8  -2   28.40   11.00
   5  -8   2   30.40   10.60
   5  -8   2   42.50   10.90
   5  -8   2   41.00   11.40
   5  -8   2   20.60   10.70
   5  -8   2   44.40   11.30
  10   7  -2  129.09   15.50
  10   7  -2  152.88   17.50
  10   7  -2  140.09   17.10
  10   7  -2  169.28   19.50
 -10  -7   2  150.28   16.60
 -10  -7   2  146.99   17.90
 -10  -7   2  125.59   17.10
 -10  -7   2  133.89   16.80
   9   7  -2  410.16   26.70
   9   7  -2  374.36   22.80
   9   7  -2  381.36   22.90
  -9  -7   2  417.16   25.00
  -9  -7   2  375.26   22.40
  -9  -7   2  392.86   24.30
  -9  -7   2  396.56   25.40
   8   7  -2   13.10   10.00
   8   7  -2   10.00    6.60
   8   7  -2   -1.20    8.80
   8   7  -2    5.20   10.00
   8   7  -2   -2.90   11.40
  -8  -7   2   14.60   10.10
  -8  -7   2   10.00    9.40
  -8  -7   2    0.80   10.30
   7   7  -2  221.68   17.50
   7   7  -2  210.88   17.30
   7   7  -2  204.58   13.70
   7   7  -2  233.48   17.10
   7   7  -2  202.68   18.80
  -7  -7   2  280.27   18.70
  -7  -7   2  223.08   16.10
  -7  -7   2  205.28   18.00
   6   7  -2   34.00    9.60
   6   7  -2   37.80    9.40
   6   7  -2   28.60    8.40
   6   7  -2   36.90    9.90
   6   7  -2   31.30    7.80
  -6  -7   2   23.30    9.00
  -6  -7   2   43.40    9.10
  -6  -7   2   23.40    8.50
  -6  -7   2   24.10    8.70
   5   7  -2 2294.27   58.89
   5   7  -2 2247.38   57.09
   5   7  -2 2291.57   58.29
   5   7  -2 2263.17   58.19
   5   7  -2 2238.58   58.49
  -5  -7   2 2228.78   57.59
  -5  -7   2 2246.88   58.29
  -5  -7   2 2275.47   58.79
  -5  -7   2 2243.88   58.39
   4   7  -2 1367.96   38.50
   4   7  -2 1377.16   39.30
   4   7  -2 1393.06   38.70
   4   7  -2 1364.26   39.00
   4   7  -2 1381.96   39.20
  -4  -7   2 1366.46   39.30
  -4  -7   2 1369.56   39.00
  -4  -7   2 1352.76   38.00
  -4  -7   2 1398.16   39.10
   3   7  -2 1279.97   37.70
   3   7  -2 1269.17   36.50
   3   7  -2 1303.67   36.20
   3   7  -2 1268.17   37.00
   3   7  -2 1240.78   35.90
  -3  -7   2 1304.77   36.40
  -3  -7   2 1288.37   37.00
  -3  -7   2 1279.67   36.50
  -3  -7   2 1285.37   36.20
   2   7  -2 1510.85   41.60
   2   7  -2 1462.75   41.50
   2   7  -2 1490.15   43.10
   2   7  -2 1566.84   41.50
   2   7  -2 1533.25   40.90
  -2  -7   2 1568.24   41.50
  -2  -7   2 1549.74   41.90
  -2  -7   2 1494.75   40.60
  -2  -7   2 1481.85   41.40
   1   7  -2 1004.60   30.40
   1   7  -2 1008.00   30.50
   1   7  -2 1055.79   33.50
   1   7  -2 1002.90   31.00
   1   7  -2 1035.10   29.80
  -1  -7   2  989.70   29.80
  -1  -7   2 1033.80   30.40
  -1  -7   2 1013.00   30.20
  -1  -7   2 1054.29   31.10
   0   7  -2  691.03   24.20
   0   7  -2  705.63   23.40
   0   7  -2  685.13   25.30
   0   7  -2  683.63   27.40
   0   7  -2  689.13   23.60
   0  -7   2  744.83   24.10
   0  -7   2  700.73   22.80
   0  -7   2  677.83   23.20
   0  -7   2  689.93   23.20
  -1   7  -2  875.51   31.80
  -1   7  -2  873.71   27.40
  -1   7  -2  831.92   27.40
  -1   7  -2  875.71   26.60
  -1   7  -2  888.01   26.60
   1  -7   2  858.21   27.10
   1  -7   2  870.51   27.40
   1  -7   2  855.41   26.80
   1  -7   2  889.61   26.90
  -2   7  -2 1430.86   39.20
  -2   7  -2 1468.45   40.70
  -2   7  -2 1452.25   40.10
  -2   7  -2 1492.75   39.30
  -2   7  -2 1459.55   49.50
   2  -7   2 1513.55   36.00
   2  -7   2 1426.96   45.20
   2  -7   2 1423.36   39.50
   2  -7   2 1507.25   39.40
   2  -7   2 1480.15   40.00
  -3   7  -2  289.07   16.90
  -3   7  -2  327.37   15.50
  -3   7  -2  262.57   22.20
   3  -7   2  308.87   16.10
   3  -7   2  297.57   13.30
   3  -7   2  308.47   16.30
   3  -7   2  263.37   15.40
   3  -7   2  303.77   15.40
  -4   7  -2    5.40    6.90
  -4   7  -2   -3.20   11.80
  -4   7  -2   -7.10    8.20
  -4   7  -2   -1.10    8.00
   4  -7   2   -1.00    9.10
   4  -7   2   -0.80    6.50
   4  -7   2   -6.90    7.10
   4  -7   2    1.80    7.40
   4  -7   2   -0.10    7.10
  -5   7  -2   35.20   13.70
  -5   7  -2   -1.30    9.50
  -5   7  -2   16.50    9.30
  -5   7  -2   16.70    7.80
   5  -7   2   20.80    9.00
   5  -7   2    6.50    8.80
   5  -7   2   13.00    8.90
   5  -7   2    9.10    8.60
   5  -7   2   24.20    8.30
  -6   7  -2  156.98   13.60
  -6   7  -2  169.38   13.10
  -6   7  -2  138.89   18.20
  -6   7  -2  126.69   13.70
  -6   7  -2  136.69   14.00
   6  -7   2  155.68   13.10
   6  -7   2  152.48   14.00
   6  -7   2  129.79   13.70
   6  -7   2  144.39   13.30
   6  -7   2  134.39   13.30
  10   6  -2   12.10   12.00
  10   6  -2   12.80   13.10
  10   6  -2   -8.20   12.70
  10   6  -2    4.50   13.50
 -10  -6   2  -11.00   13.20
 -10  -6   2  -10.70   12.90
 -10  -6   2    2.80   12.40
 -10  -6   2    1.20   11.30
   9   6  -2  136.69   14.40
   9   6  -2  174.88   16.00
   9   6  -2  154.58   14.90
   9   6  -2  186.88   17.00
  -9  -6   2  174.58   15.00
  -9  -6   2  198.68   16.70
  -9  -6   2  189.78   16.10
  -9  -6   2  176.18   16.10
   8   6  -2   65.79   10.90
   8   6  -2   66.59   10.70
   8   6  -2   77.49   12.30
   8   6  -2   74.89   11.20
  -8  -6   2   77.69   12.10
  -8  -6   2   56.19   10.20
  -8  -6   2   67.29   11.60
   7   6  -2 1397.86   39.60
   7   6  -2 1327.97   33.90
   7   6  -2 1400.26   39.30
   7   6  -2 1369.36   40.10
   7   6  -2 1276.57   48.40
  -7  -6   2 1324.37   38.60
  -7  -6   2 1317.17   39.70
  -7  -6   2 1415.66   40.10
  -7  -6   2 1435.66   40.70
   6   6  -2  311.97   17.00
   6   6  -2  342.47   17.30
   6   6  -2  328.37   17.90
   6   6  -2  318.07   14.00
   6   6  -2  353.96   17.30
  -6  -6   2  335.37   17.70
  -6  -6   2  323.27   17.20
  -6  -6   2  315.97   16.70
  -6  -6   2  312.97   23.10
   5   6  -2   12.80    6.60
   5   6  -2   13.80    7.20
   5   6  -2    9.70    7.00
   5   6  -2   11.80    6.20
   5   6  -2    5.90    5.60
  -5  -6   2    8.70    7.30
  -5  -6   2   14.70    6.60
  -5  -6   2   13.70    6.60
  -5  -6   2    1.70    6.50
   4   6  -2  296.97   15.50
   4   6  -2  298.97   15.50
   4   6  -2  293.87   14.70
   4   6  -2  293.17   14.10
   4   6  -2  326.87   15.10
  -4  -6   2  300.57   15.60
  -4  -6   2  287.47   15.50
  -4  -6   2  303.47   14.80
  -4  -6   2  310.87   15.00
   3   6  -2 1183.68   33.90
   3   6  -2 1158.08   33.30
   3   6  -2 1175.78   33.30
   3   6  -2 1220.78   33.80
   3   6  -2 1209.68   33.10
  -3  -6   2 1161.08   33.40
  -3  -6   2 1200.68   33.30
  -3  -6   2 1171.18   32.80
  -3  -6   2 1191.88   33.70
   2   6  -2  711.43   23.00
   2   6  -2  757.02   23.20
   2   6  -2  744.03   22.90
   2   6  -2  682.83   24.40
   2   6  -2  711.43   23.50
  -2  -6   2  754.52   23.60
  -2  -6   2  708.23   22.90
  -2  -6   2  682.33   22.20
  -2  -6   2  743.03   23.30
   1   6  -2   21.50    6.20
   1   6  -2   22.20    6.00
   1   6  -2   30.80    6.00
   1   6  -2   10.80    7.30
   1   6  -2   22.90    5.80
  -1  -6   2   19.00    5.90
  -1  -6   2   25.80    5.80
  -1  -6   2   28.40    6.20
  -1  -6   2   20.60    6.10
   0   6  -2   -3.20    4.40
   0   6  -2    8.40    5.50
   0   6  -2    4.80    4.80
   0   6  -2    6.70    6.80
   0   6  -2    1.10    5.20
   0  -6   2    2.00    4.70
   0  -6   2    4.90    4.90
   0  -6   2    7.10    5.40
   0  -6   2   -1.00    5.20
  -1   6  -2    2.50    4.50
  -1   6  -2   -0.70    4.60
  -1   6  -2   -1.20    5.50
  -1   6  -2    4.90    5.30
  -1   6  -2   -1.70    5.90
   1  -6   2   -0.40    4.70
   1  -6   2    3.40    5.30
   1  -6   2    2.20    4.70
   1  -6   2    6.30    5.50
   1  -6   2    2.20    3.10
  -2   6  -2  482.45   16.60
  -2   6  -2  440.36   21.40
  -2   6  -2  453.95   16.80
  -2   6  -2  425.46   17.10
  -2   6  -2  429.06   17.80
   2  -6   2  440.26   16.50
   2  -6   2  453.65   14.40
   2  -6   2  442.96   16.60
   2  -6   2  474.85   17.30
   2  -6   2  458.95   17.20
  -3   6  -2   53.59    6.90
  -3   6  -2   55.39    8.30
  -3   6  -2   57.99   10.70
  -3   6  -2   68.39    8.40
   3  -6   2   68.39    8.20
   3  -6   2   82.99    8.30
   3  -6   2   63.89    8.00
   3  -6   2   57.49    6.80
   3  -6   2   75.59    8.10
  -4   6  -2  170.58   11.30
  -4   6  -2  167.88   13.10
  -4   6  -2  161.48   13.00
  -4   6  -2  164.38   11.50
   4  -6   2  157.78   12.30
   4  -6   2  197.58   13.00
   4  -6   2  172.98   11.60
   4  -6   2  151.48   12.40
   4  -6   2  182.98   12.10
  -5   6  -2  105.89   10.80
  -5   6  -2   77.29   13.80
  -5   6  -2  106.29    9.40
  -5   6  -2  110.79   10.60
  -5   6  -2  113.79    9.70
   5  -6   2  108.49   10.00
   5  -6   2  125.09   10.30
   5  -6   2  108.19   10.30
   5  -6   2  107.59    9.50
   5  -6   2   98.09   10.30
  -6   6  -2  858.51   27.10
  -6   6  -2  905.51   27.20
  -6   6  -2  893.31   28.30
  -6   6  -2  835.02   28.20
  -6   6  -2  897.51   36.10
   6  -6   2  943.11   30.40
   6  -6   2  851.11   27.60
   6  -6   2  903.91   27.60
   6  -6   2  871.01   28.20
   6  -6   2  900.31   27.30
  -7   6  -2   63.29   16.90
  -7   6  -2   60.89   11.40
  -7   6  -2   91.29   12.00
   7  -6   2   96.09   11.00
   7  -6   2   99.89   14.40
   7  -6   2  101.69   11.20
   7  -6   2   82.49   10.90
   7  -6   2   86.09   11.50
  10   5  -2   68.49   14.90
  10   5  -2   83.39   15.00
  10   5  -2   66.49   14.40
  10   5  -2   60.59   13.10
 -10  -5   2   60.39   12.70
 -10  -5   2   71.39   15.40
 -10  -5   2   47.40   14.80
 -10  -5   2   53.09   13.40
   9   5  -2  135.39   14.30
   9   5  -2  125.89   13.30
   9   5  -2  131.39   14.20
   9   5  -2  130.39   14.50
  -9  -5   2  127.59   13.90
  -9  -5   2  138.99   14.20
  -9  -5   2  139.49   15.00
   8   5  -2  157.88   14.10
   8   5  -2  136.09   12.60
   8   5  -2  132.49   13.20
   8   5  -2  140.19   12.70
  -8  -5   2  139.89   12.90
  -8  -5   2  151.08   13.60
  -8  -5   2  132.79   13.10
  -8  -5   2  124.59   13.10
   7   5  -2  463.75   20.10
   7   5  -2  458.35   19.70
   7   5  -2  443.46   20.60
  -7  -5   2  446.26   20.20
  -7  -5   2  441.16   20.20
  -7  -5   2  447.56   20.10
  -7  -5   2  456.35   19.60
   6   5  -2  153.48   12.30
   6   5  -2  144.89   12.40
   6   5  -2  162.58   13.70
   6   5  -2  123.19   10.50
   6   5  -2  143.29    8.50
  -6  -5   2  163.58   12.60
  -6  -5   2  146.19   13.20
  -6  -5   2  132.99   13.70
  -6  -5   2  136.29   12.80
   5   5  -2 1250.57   34.80
   5   5  -2 1253.47   32.30
   5   5  -2 1252.77   35.30
   5   5  -2 1321.17   35.90
   5   5  -2 1324.77   35.60
  -5  -5   2 1248.78   35.20
  -5  -5   2 1282.87   35.50
  -5  -5   2 1256.87   34.80
  -5  -5   2 1268.87   35.60
   4   5  -2  259.27   12.70
   4   5  -2  285.77   13.30
   4   5  -2  231.58   11.70
   4   5  -2  267.47   13.50
   4   5  -2  251.87   13.20
  -4  -5   2  234.68   12.70
  -4  -5   2  257.67   12.70
  -4  -5   2  269.97   13.40
  -4  -5   2  253.07   13.50
   3   5  -2    9.90    5.00
   3   5  -2   11.60    4.90
   3   5  -2   10.90    5.10
   3   5  -2   18.00    5.60
   3   5  -2   14.50    5.00
  -3  -5   2    5.10    4.70
  -3  -5   2   10.30    5.40
  -3  -5   2    7.10    5.00
  -3  -5   2    6.80    5.40
   2   5  -2  209.78   11.50
   2   5  -2  212.98   10.60
   2   5  -2  208.08   12.20
   2   5  -2  207.98   11.00
   2   5  -2  209.28   10.90
  -2  -5   2  203.98   10.80
  -2  -5   2  189.28   10.80
  -2  -5   2  204.98   11.40
  -2  -5   2  218.18   11.10
   1   5  -2  458.85   15.70
   1   5  -2  460.55   16.20
   1   5  -2  456.85   11.10
   1   5  -2  465.25   16.50
   1   5  -2  476.35   18.20
   1   5  -2  479.35   16.20
  -1  -5   2  470.15   16.40
  -1  -5   2  463.35   16.30
  -1  -5   2  455.95   16.10
  -1  -5   2  471.75   15.80
   0   5  -2  227.98   10.30
   0   5  -2  222.78   10.80
   0   5  -2  222.98   10.80
   0   5  -2  243.88   13.90
   0   5  -2  229.78   11.50
   0  -5   2  233.68   10.80
   0  -5   2  212.18   11.00
   0  -5   2  236.78   10.80
   0  -5   2  231.68   11.40
  -1   5  -2  338.17   16.60
  -1   5  -2  321.87   13.60
  -1   5  -2  345.97   12.80
  -1   5  -2  336.47   13.50
  -1   5  -2  362.36   13.40
   1  -5   2  351.26   13.60
   1  -5   2  374.86   13.80
   1  -5   2  338.27   13.10
   1  -5   2  354.96   10.60
   1  -5   2  332.47   13.20
  -2   5  -2  423.46   15.50
  -2   5  -2  447.46   14.90
  -2   5  -2  443.26   15.00
  -2   5  -2  425.66   19.50
   2  -5   2  427.56   15.30
   2  -5   2  413.56   15.00
   2  -5   2  441.36   13.70
   2  -5   2  436.36   15.60
   2  -5   2  448.36   15.10
  -3   5  -2   34.50    5.70
  -3   5  -2   40.70    8.10
  -3   5  -2   44.60    6.60
  -3   5  -2   47.60    5.70
  -3   5  -2   60.99    6.30
   3  -5   2   45.30    5.80
   3  -5   2   44.40    6.30
   3  -5   2   49.90    6.20
   3  -5   2   59.79    6.20
  -4   5  -2  246.08   11.20
  -4   5  -2  220.88   17.60
  -4   5  -2  227.98   12.40
  -4   5  -2  216.08   12.30
  -4   5  -2  241.58   11.30
   4  -5   2  236.48   11.60
   4  -5   2  247.68   11.30
   4  -5   2  238.18   11.90
   4  -5   2  249.28   12.50
   4  -5   2  222.78   12.30
  -5   5  -2  183.18   10.80
  -5   5  -2  163.18   12.20
  -5   5  -2  191.18   11.00
  -5   5  -2  162.88   15.10
  -5   5  -2  175.48   12.20
   5  -5   2  186.98   11.90
   5  -5   2  179.98   13.20
   5  -5   2  163.98   11.80
   5  -5   2  159.98   11.20
   5  -5   2  196.58   11.00
  -6   5  -2  146.59   11.60
  -6   5  -2  145.79   13.30
  -6   5  -2  155.38   16.50
  -6   5  -2  144.89   13.00
  -6   5  -2  163.98   12.20
   6  -5   2  156.48   12.80
   6  -5   2  174.28   13.30
   6  -5   2  159.88   12.30
   6  -5   2  165.38   12.50
   6  -5   2  158.48   12.00
  -7   5  -2  122.79   11.30
  -7   5  -2  138.69   11.30
  -7   5  -2  156.28   12.10
  -7   5  -2  133.39   11.60
  -7   5  -2  173.18   17.50
   7  -5   2  137.39   11.30
   7  -5   2  133.39   14.10
   7  -5   2  127.49   11.70
   7  -5   2  140.09   10.80
   7  -5   2  123.39   10.80
  -8   5  -2  173.28   14.00
   8  -5   2  170.38   15.40
   8  -5   2  177.78   14.20
   8  -5   2  186.08   16.20
  10   4  -2  112.29   15.70
  10   4  -2  124.29   14.80
  10   4  -2   73.49   14.20
  10   4  -2  104.29   14.50
 -10  -4   2   90.19   13.60
 -10  -4   2  111.19   15.40
 -10  -4   2  108.89   15.40
 -10  -4   2  127.29   16.10
   9   4  -2  241.18   19.00
   9   4  -2  197.28   17.80
   9   4  -2  220.08   19.60
   9   4  -2  206.58   18.20
  -9  -4   2  185.48   16.20
  -9  -4   2  203.48   18.90
   8   4  -2  388.36   18.80
   8   4  -2  355.56   19.70
   8   4  -2  339.97   18.40
   8   4  -2  379.36   19.90
  -8  -4   2  338.97   18.60
  -8  -4   2  383.16   19.10
  -8  -4   2  321.87   20.40
  -8  -4   2  309.27   18.50
   7   4  -2  108.79   10.50
   7   4  -2  108.59   11.00
   7   4  -2  134.49   11.10
   7   4  -2  119.99   10.90
  -7  -4   2  101.99   10.40
  -7  -4   2  114.79   10.80
  -7  -4   2  110.79   10.50
  -7  -4   2  108.79   11.00
   6   4  -2   28.10    6.80
   6   4  -2   22.20    6.50
   6   4  -2   37.60    7.20
   6   4  -2   29.70    7.10
  -6  -4   2   24.40    7.30
  -6  -4   2   29.60    6.90
  -6  -4   2   20.50    6.80
  -6  -4   2   31.00    7.00
   5   4  -2   35.40    6.30
   5   4  -2   37.20    4.20
   5   4  -2   38.10    6.80
   5   4  -2   32.40    6.30
   5   4  -2   33.00    6.10
  -5  -4   2   46.20    6.80
  -5  -4   2   32.70    6.50
  -5  -4   2   35.10    6.60
  -5  -4   2   39.50    7.00
   4   4  -2  151.18   10.30
   4   4  -2  150.58    8.00
   4   4  -2  154.68    9.70
   4   4  -2  138.99   10.20
   4   4  -2  150.08   10.00
  -4  -4   2  148.19    9.70
  -4  -4   2  134.99   10.20
  -4  -4   2  143.99   10.00
  -4  -4   2  141.99    9.80
   3   4  -2 2207.48   53.89
   3   4  -2 2200.88   53.79
   3   4  -2 2239.28   53.79
   3   4  -2 2244.98   53.69
   3   4  -2 2244.78   52.69
  -3  -4   2 2214.38   53.69
  -3  -4   2 2212.78   53.49
  -3  -4   2 2201.98   53.79
  -3  -4   2 2246.78   53.99
   2   4  -2   72.89    6.70
   2   4  -2   69.59    6.40
   2   4  -2   71.59    6.00
   2   4  -2   77.69    7.50
   2   4  -2   75.79    6.60
  -2  -4   2   69.89    6.20
  -2  -4   2   77.09    7.30
  -2  -4   2   72.79    6.80
  -2  -4   2   68.79    6.40
   1   4  -2 5829.92  130.49
   1   4  -2 5927.71  131.59
   1   4  -2 5883.01  130.29
   1   4  -2 5698.33  130.29
   1   4  -2 5775.52  130.09
  -1  -4   2 5752.42  130.29
  -1  -4   2 5798.42  130.29
  -1  -4   2 5815.52  130.59
  -1  -4   2 5798.02  130.09
   0   4  -2 1570.64   41.20
   0   4  -2 1584.94   36.10
   0   4  -2 1612.34   39.20
   0   4  -2 1608.64   39.30
   0   4  -2 1643.54   39.40
   0   4  -2 1643.44   39.70
   0  -4   2 1609.14   41.40
   0  -4   2 1616.44   39.20
   0  -4   2 1596.54   39.40
   0  -4   2 1574.64   39.50
   0  -4   2 1609.04   39.30
  -1   4  -2 1556.24   37.80
  -1   4  -2 1556.04   37.90
  -1   4  -2 1452.05   38.90
  -1   4  -2 1535.95   40.80
  -1   4  -2 1558.54   37.70
   1  -4   2 1551.84   35.80
   1  -4   2 1549.34   38.00
   1  -4   2 1565.54   40.80
   1  -4   2 1550.74   37.70
   1  -4   2 1557.04   37.70
   1  -4   2 1544.55   38.00
  -2   4  -2  151.78    8.40
  -2   4  -2  159.68   12.40
  -2   4  -2  176.78    8.20
  -2   4  -2  162.98    7.90
   2  -4   2  152.08   11.70
   2  -4   2  161.48    8.50
   2  -4   2  141.79    8.40
   2  -4   2  160.48    8.20
   2  -4   2  154.48    8.30
   2  -4   2  160.98    7.50
  -3   4  -2 3074.19   71.59
  -3   4  -2 3126.19   71.09
  -3   4  -2 3147.69   76.19
  -3   4  -2 3077.99   71.59
  -3   4  -2 3097.19   70.99
   3  -4   2 3075.69   71.39
   3  -4   2 3176.58   71.19
   3  -4   2 3097.39   76.29
   3  -4   2 3082.39   71.69
   3  -4   2 3110.59   71.49
   3  -4   2 3120.69   71.79
  -4   4  -2 2889.01   65.09
  -4   4  -2 2779.12   65.59
  -4   4  -2 2803.12   70.59
  -4   4  -2 2787.12   65.59
  -4   4  -2 2800.42   64.89
   4  -4   2 2769.32   65.69
   4  -4   2 2810.72   65.29
   4  -4   2 2807.32   65.49
   4  -4   2 2885.61   71.39
   4  -4   2 2877.61   66.89
   4  -4   2 2831.02   64.99
  -5   4  -2   23.40    8.30
  -5   4  -2   31.10    5.40
  -5   4  -2   29.60    6.20
  -5   4  -2   38.10    6.30
  -5   4  -2   42.60    5.60
   5  -4   2   16.40    4.80
   5  -4   2   36.10    5.70
   5  -4   2   29.20    6.90
   5  -4   2   35.90    5.40
   5  -4   2   35.10    6.00
  -6   4  -2  419.96   22.30
  -6   4  -2  413.86   15.60
  -6   4  -2  411.76   15.80
  -6   4  -2  401.16   17.00
   6  -4   2  442.26   19.20
   6  -4   2  417.76   15.00
   6  -4   2  419.56   14.80
   6  -4   2  392.56   15.50
   6  -4   2  384.36   15.40
  -7   4  -2   74.49   12.80
  -7   4  -2   95.39    9.60
  -7   4  -2   94.79    9.30
  -7   4  -2   99.99    9.10
   7  -4   2  103.29    8.80
   7  -4   2  106.79   12.90
   7  -4   2   95.19    8.50
   7  -4   2   95.69    9.60
   7  -4   2   91.69    9.40
  -8   4  -2  177.28   13.30
  -8   4  -2  181.88   13.80
  -8   4  -2  149.09   14.30
  -8   4  -2  175.78   17.30
   8  -4   2  169.88   12.70
   8  -4   2  183.38   16.70
   8  -4   2  167.48   13.50
   8  -4   2  183.28   13.60
  10   3  -2   -1.60   11.60
  10   3  -2   19.20   11.00
  10   3  -2   36.60   11.70
  10   3  -2    4.50   11.50
 -10  -3   2   11.60   11.60
 -10  -3   2   25.90   13.10
 -10  -3   2   31.70   12.40
   9   3  -2   95.89   13.20
   9   3  -2  102.39   12.40
   9   3  -2  102.89   12.80
  -9  -3   2  104.49   13.30
  -9  -3   2   82.79   13.20
   8   3  -2   20.90    8.90
   8   3  -2   16.70    8.60
   8   3  -2   20.80    9.20
   8   3  -2    9.50    8.50
  -8  -3   2   18.70   10.20
  -8  -3   2    9.30    9.30
  -8  -3   2   20.60    8.70
   7   3  -2    1.60    6.70
   7   3  -2   -4.80    6.50
   7   3  -2   -7.50    6.50
   7   3  -2   -0.20    6.20
  -7  -3   2    2.00    6.40
  -7  -3   2    2.70    7.50
  -7  -3   2   -6.50    7.20
  -7  -3   2  -10.50    6.20
   6   3  -2 1513.75   40.10
   6   3  -2 1485.65   40.10
   6   3  -2 1556.54   39.90
   6   3  -2 1572.54   40.70
  -6  -3   2 1506.85   40.00
  -6  -3   2 1480.85   40.40
  -6  -3   2 1486.05   39.80
  -6  -3   2 1492.85   40.10
   5   3  -2 1699.13   43.50
   5   3  -2 1722.43   43.80
   5   3  -2 1745.53   43.60
   5   3  -2 1718.03   43.30
  -5  -3   2 1707.53   43.60
  -5  -3   2 1694.03   43.20
  -5  -3   2 1728.73   43.60
  -5  -3   2 1687.03   43.10
   4   3  -2   38.40    5.60
   4   3  -2   48.40    6.10
   4   3  -2   45.10    5.70
   4   3  -2   39.70    6.10
   4   3  -2   43.20    3.50
  -4  -3   2   40.40    5.80
  -4  -3   2   38.40    5.70
  -4  -3   2   29.10    5.00
  -4  -3   2   45.50    6.10
   3   3  -2   96.09    7.30
   3   3  -2  107.79    6.10
   3   3  -2  104.59    7.90
   3   3  -2  103.49    7.30
   3   3  -2  114.89    8.00
  -3  -3   2   96.79    7.20
  -3  -3   2   98.39    7.10
  -3  -3   2   99.69    7.50
  -3  -3   2   85.79    7.50
   2   3  -2  956.50   25.10
   2   3  -2  926.61   24.10
   2   3  -2  961.20   24.80
   2   3  -2  927.41   24.90
   2   3  -2  950.50   24.90
  -2  -3   2  928.91   25.00
  -2  -3   2  935.11   24.80
  -2  -3   2  966.80   24.70
   1   3  -2 2882.81   67.99
   1   3  -2 3030.20   67.99
   1   3  -2 2923.31   67.99
   1   3  -2 2976.10   68.49
   1   3  -2 2942.11   67.89
  -1  -3   2 3031.80   68.09
  -1  -3   2 2960.70   68.49
  -1  -3   2 2973.60   67.99
  -1  -3   2 2952.40   68.19
  -1  -3   2 2977.20   67.89
   0   3  -2   35.90    2.80
   0   3  -2   34.80    4.00
   0   3  -2   37.20    5.30
   0   3  -2   40.10    4.10
   0   3  -2   38.20    4.00
   0   3  -2   42.60    4.30
   0  -3   2   32.90    4.00
   0  -3   2   38.10    4.00
   0  -3   2   35.30    4.10
   0  -3   2   41.00    4.10
   0  -3   2   38.70    5.00
  -1   3  -2 3136.29   73.69
  -1   3  -2 3099.69   70.99
  -1   3  -2 3132.99   70.89
  -1   3  -2 3116.69   70.99
   1  -3   2 3129.89   69.99
   1  -3   2 3128.19   71.19
   1  -3   2 3184.58   70.99
   1  -3   2 3118.89   70.99
   1  -3   2 3185.18   71.19
   1  -3   2 3106.59   73.69
  -2   3  -2  606.44   16.80
  -2   3  -2  620.64   16.50
  -2   3  -2  614.84   16.60
  -2   3  -2  609.24   20.10
  -2   3  -2  618.84   16.80
   2  -3   2  626.14   16.90
   2  -3   2  623.74   16.70
   2  -3   2  623.34   16.60
   2  -3   2  621.94   16.70
   2  -3   2  619.94   20.20
   2  -3   2  610.04   17.10
  -3   3  -2   92.79    9.40
  -3   3  -2   73.49    6.10
  -3   3  -2   75.39    5.30
  -3   3  -2   73.69    5.30
  -3   3  -2   66.19    5.80
   3  -3   2   70.19    5.90
   3  -3   2   73.09    5.80
   3  -3   2   78.59    8.50
   3  -3   2   73.59    5.40
   3  -3   2   72.29    6.00
   3  -3   2   80.29    5.90
  -4   3  -2  303.77   10.10
  -4   3  -2  303.87   15.40
  -4   3  -2  307.57   10.20
  -4   3  -2  318.17   10.90
  -4   3  -2  300.17   10.90
   4  -3   2  299.37   10.90
   4  -3   2  307.87   10.70
   4  -3   2  299.27   12.40
   4  -3   2  298.97   15.20
   4  -3   2  308.27   10.60
   4  -3   2  333.37   10.30
  -5   3  -2  955.40   30.20
  -5   3  -2  994.00   24.60
  -5   3  -2  904.71   27.30
  -5   3  -2  963.70   24.50
  -5   3  -2  936.51   24.70
   5  -3   2  968.40   24.40
   5  -3   2  965.70   25.10
   5  -3   2  943.81   24.60
   5  -3   2  938.31   27.80
   5  -3   2  963.10   24.60
   5  -3   2  979.80   30.70
  -6   3  -2   58.69    9.90
  -6   3  -2   79.19    6.80
  -6   3  -2   66.49    9.90
  -6   3  -2   61.59    6.40
  -6   3  -2   59.09    6.60
   6  -3   2   64.49    6.60
   6  -3   2   64.99   10.70
   6  -3   2   73.29    6.80
   6  -3   2   70.99    6.30
   6  -3   2   54.09    8.80
   6  -3   2   75.39    7.00
  -7   3  -2    8.60    6.20
  -7   3  -2   16.30    8.20
  -7   3  -2    9.80    6.80
  -7   3  -2   15.00    5.80
   7  -3   2    2.10    5.60
   7  -3   2   26.60    6.90
   7  -3   2    6.90    6.90
   7  -3   2   10.40    8.50
   7  -3   2   15.50    5.20
  -8   3  -2  311.57   14.20
  -8   3  -2  298.87   21.70
  -8   3  -2  324.97   16.40
  -8   3  -2  301.97   15.80
   8  -3   2  292.77   16.20
   8  -3   2  307.27   14.50
   8  -3   2  322.47   14.20
   8  -3   2  326.37   21.70
   8  -3   2  294.17   13.60
  -9   3  -2   17.60    7.20
  -9   3  -2   34.20    7.60
  -9   3  -2   24.40    8.80
  -9   3  -2   14.60    7.70
   9  -3   2   19.10    8.30
   9  -3   2   32.40   14.20
   9  -3   2   16.20    7.80
   9  -3   2   28.20    7.70
   9  -3   2   23.10    8.90
  10   2  -2  302.97   21.80
  10   2  -2  336.47   22.50
  10   2  -2  347.67   26.00
  10   2  -2  306.07   21.30
 -10  -2   2  328.47   23.10
 -10  -2   2  394.26   24.80
 -10  -2   2  316.57   22.40
 -10  -2   2  368.16   22.20
   9   2  -2   44.90   10.80
   9   2  -2   25.20   10.70
   9   2  -2    7.30    9.30
  -9  -2   2   13.50   10.30
   8   2  -2  866.91   28.40
   8   2  -2  850.51   28.10
   8   2  -2  793.42   27.80
   8   2  -2  854.31   28.90
  -8  -2   2  853.31   28.70
  -8  -2   2  825.12   27.90
  -8  -2   2  864.71   32.80
   7   2  -2  328.57   16.90
   7   2  -2  346.07   16.40
   7   2  -2  323.17   17.00
   7   2  -2  313.97   16.70
  -7  -2   2  342.87   17.70
  -7  -2   2  326.67   16.00
  -7  -2   2  348.17   16.40
  -7  -2   2  334.47   17.00
   6   2  -2 1678.63   43.50
   6   2  -2 1638.74   43.40
   6   2  -2 1707.93   42.90
   6   2  -2 1618.24   43.20
  -6  -2   2 1662.73   42.90
  -6  -2   2 1597.24   43.10
  -6  -2   2 1637.54   43.60
  -6  -2   2 1697.73   43.00
   5   2  -2  415.16   15.80
   5   2  -2  441.96   16.40
   5   2  -2  430.16   15.60
   5   2  -2  393.36   16.00
  -5  -2   2  424.46   15.20
  -5  -2   2  438.96   16.90
  -5  -2   2  414.06   15.70
  -5  -2   2  438.76   15.80
   4   2  -2 5850.51  134.89
   4   2  -2 6008.10  135.19
   4   2  -2 6207.88  134.99
   4   2  -2 6173.68  135.29
  -4  -2   2 5920.21  134.99
  -4  -2   2 6050.09  134.69
  -4  -2   2 5953.40  135.09
  -4  -2   2 5919.61  134.89
   3   2  -2 5486.05  119.59
   3   2  -2 5592.54  122.79
   3   2  -2 5491.35  122.89
   3   2  -2 5523.05  122.89
   3   2  -2 5541.15  123.09
  -3  -2   2 5506.75  122.89
  -3  -2   2 5353.96  122.89
  -3  -2   2 5367.06  122.69
  -3  -2   2 5480.35  122.49
   2   2  -2  150.88    7.40
   2   2  -2  147.29    7.10
   2   2  -2  144.59    6.90
   2   2  -2  144.89    5.80
   2   2  -2  150.68    7.30
  -2  -2   2  153.28    7.10
  -2  -2   2  145.79    7.10
  -2  -2   2  153.58    7.40
  -2  -2   2  143.29    5.90
  -2  -2   2  151.58    7.30
   1   2  -2 2415.16   55.89
   1   2  -2 2459.05   55.89
   1   2  -2 2444.56   55.79
   1   2  -2 2383.26   55.89
   1   2  -2 2465.85   55.99
  -1  -2   2 2506.75   55.99
  -1  -2   2 2446.96   55.79
  -1  -2   2 2436.86   55.89
  -1  -2   2 2461.05   55.89
  -1  -2   2 2416.16   55.99
   0   2  -2  381.76   11.00
   0   2  -2  387.06   11.10
   0   2  -2  367.26   12.00
   0   2  -2  387.86   10.90
   0   2  -2  383.66   11.10
   0  -2   2  372.86   11.00
   0  -2   2  385.26   10.90
   0  -2   2  369.36   11.00
   0  -2   2  385.06   12.10
   0  -2   2  366.46   10.90
  -1   2  -2 5510.35  122.89
  -1   2  -2 5456.65  120.59
  -1   2  -2 5599.84  120.79
  -1   2  -2 5495.25  120.49
  -1   2  -2 5401.26  120.59
   1  -2   2 5552.34  120.79
   1  -2   2 5379.26  120.59
   1  -2   2 5606.44  120.69
   1  -2   2 5313.87  122.79
   1  -2   2 5510.45  120.69
   1  -2   2 5483.15  120.89
  -2   2  -2  265.57    8.10
  -2   2  -2  256.37   11.00
  -2   2  -2  256.47    7.90
  -2   2  -2  266.87    8.00
   2  -2   2  268.37    8.10
   2  -2   2  263.27   10.90
   2  -2   2  252.07    8.10
   2  -2   2  257.17    8.80
   2  -2   2  265.67    7.90
   2  -2   2  251.77    8.10
  -3   2  -2  953.50   22.30
  -3   2  -2  938.11   22.60
  -3   2  -2  914.61   26.20
  -3   2  -2  942.31   22.30
   3  -2   2  906.81   22.60
   3  -2   2  931.81   22.20
   3  -2   2  934.91   26.50
   3  -2   2  955.70   22.50
   3  -2   2  944.01   22.50
   3  -2   2  939.81   24.40
  -4   2  -2  165.98   11.00
  -4   2  -2  179.38    6.60
  -4   2  -2  169.58    6.60
  -4   2  -2  174.48    6.90
   4  -2   2  166.08    6.80
   4  -2   2  180.58   11.40
   4  -2   2  180.88    9.50
   4  -2   2  166.38    6.80
   4  -2   2  185.18    6.70
   4  -2   2  166.48    6.90
  -5   2  -2  109.49   10.10
  -5   2  -2   98.49    6.40
  -5   2  -2   87.59    6.10
  -5   2  -2   95.89    6.30
   5  -2   2   84.19    6.50
   5  -2   2  106.29    6.60
   5  -2   2  108.19   10.20
   5  -2   2   92.39    6.40
   5  -2   2   91.49    8.00
   5  -2   2   95.19    6.10
  -6   2  -2   94.49    7.00
  -6   2  -2   97.79    7.00
  -6   2  -2   89.59    7.60
  -6   2  -2  102.39   10.50
   6  -2   2   94.99    6.90
   6  -2   2  101.39   10.70
   6  -2   2  102.59    6.90
   6  -2   2   65.09    8.40
   6  -2   2  102.59    7.30
  -7   2  -2   -2.70    5.50
  -7   2  -2   11.20    4.70
  -7   2  -2   12.60    4.80
  -7   2  -2   14.40    8.10
  -7   2  -2    6.10    5.10
   7  -2   2    6.60    5.80
   7  -2   2    3.70    7.70
   7  -2   2   11.90    4.50
   7  -2   2    6.00    5.00
   7  -2   2    7.80    8.20
   7  -2   2    0.40    4.50
  -8   2  -2   -2.00    5.20
  -8   2  -2   -2.50    5.30
  -8   2  -2   -1.80    5.20
  -8   2  -2   -0.60    8.00
  -8   2  -2   -8.60    6.40
   8  -2   2   -6.80    5.20
   8  -2   2    3.50    4.50
   8  -2   2    5.40    9.10
   8  -2   2    3.80    6.40
   8  -2   2   -3.50    4.90
  -9   2  -2  290.47   12.90
  -9   2  -2  271.17   13.20
  -9   2  -2  300.67   14.30
   9  -2   2  238.48   12.80
   9  -2   2  270.37   15.10
   9  -2   2  275.97   13.90
   9  -2   2  306.87   24.10
   9  -2   2  267.47   13.00
  10   1  -2   24.90   13.30
  10   1  -2    8.80   10.90
  10   1  -2   40.30   23.30
  10   1  -2   38.20   11.90
 -10  -1   2   30.90   12.60
 -10  -1   2   41.20   12.80
 -10  -1   2   45.50   12.90
 -10  -1   2   26.70   13.40
   9   1  -2   66.59   12.00
   9   1  -2   61.29   10.80
   9   1  -2   66.89   10.90
   9   1  -2   75.89   13.10
  -9  -1   2   63.09   11.40
  -9  -1   2   64.39   11.30
   8   1  -2  689.13   25.00
   8   1  -2  657.13   24.60
   8   1  -2  726.13   26.20
   8   1  -2  741.93   25.90
  -8  -1   2  681.53   25.10
  -8  -1   2  755.72   26.10
   7   1  -2  269.77   15.40
   7   1  -2  312.17   16.40
   7   1  -2  299.47   15.70
  -7  -1   2  284.87   15.30
  -7  -1   2  283.37   16.00
  -7  -1   2  242.78   20.40
  -7  -1   2  283.67   15.10
   6   1  -2  403.86   16.50
   6   1  -2  388.46   16.20
   6   1  -2  417.26   17.30
   6   1  -2  420.06   16.70
  -6  -1   2  435.76   16.80
  -6  -1   2  395.56   16.60
  -6  -1   2  390.36   17.20
  -6  -1   2  418.56   16.80
   5   1  -2  148.29   11.00
   5   1  -2  150.58   10.60
   5   1  -2  164.28   10.40
   5   1  -2  163.08   11.10
  -5  -1   2  188.28   10.40
  -5  -1   2  158.48   11.20
  -5  -1   2  160.68   10.20
  -5  -1   2  157.38   10.80
   4   1  -2 1120.99   29.00
   4   1  -2 1135.59   29.40
   4   1  -2 1046.30   29.20
   4   1  -2 1066.89   29.30
  -4  -1   2 1118.89   29.20
  -4  -1   2 1128.79   29.10
  -4  -1   2 1070.49   29.40
  -4  -1   2 1059.89   29.10
   3   1  -2   41.00    5.00
   3   1  -2   35.60    4.50
   3   1  -2   40.20    5.10
   3   1  -2   31.90    4.50
  -3  -1   2   37.90    4.90
  -3  -1   2   28.20    4.30
  -3  -1   2   41.00    4.70
  -3  -1   2   25.40    4.60
   2   1  -2 2703.73   61.99
   2   1  -2 2720.73   61.99
   2   1  -2 2664.13   61.89
   2   1  -2 2762.92   61.89
  -2  -1   2 2718.23   62.09
  -2  -1   2 2725.33   61.79
  -2  -1   2 2596.44   59.49
  -2  -1   2 2727.33   61.99
   1   1  -2   12.80    2.60
   1   1  -2    8.40    2.30
   1   1  -2   11.00    2.30
   1   1  -2   13.30    2.50
   1   1  -2   12.20    2.00
  -1  -1   2   11.00    2.50
  -1  -1   2   10.00    2.00
  -1  -1   2   12.30    2.40
  -1  -1   2   10.10    2.40
  -1  -1   2    8.60    2.40
   0   1  -2  303.17    8.60
   0   1  -2  314.07    8.50
   0   1  -2  276.87    8.60
   0   1  -2  295.37    9.00
   0   1  -2  281.07    8.40
   0  -1   2  301.47    8.60
   0  -1   2  296.07    8.60
   0  -1   2  303.87    9.20
   0  -1   2  298.57    8.40
   0  -1   2  301.77    8.60
  -1   1  -2 2991.90   66.39
  -1   1  -2 3007.80   68.19
  -1   1  -2 3021.70   66.39
  -1   1  -2 2976.10   66.39
  -1   1  -2 3025.20   67.19
   1  -1   2 3053.49   66.39
   1  -1   2 3050.39   67.39
   1  -1   2 3019.70   68.39
   1  -1   2 2938.81   66.39
   1  -1   2 3023.30   66.49
  -2   1  -2  554.14   13.10
  -2   1  -2  565.84   13.00
  -2   1  -2  554.24   13.10
  -2   1  -2  557.54   14.90
  -2   1  -2  546.85   16.00
   2  -1   2  553.74   13.00
   2  -1   2  551.44   16.10
   2  -1   2  547.25   13.20
   2  -1   2  552.74   13.10
   2  -1   2  552.64   13.20
   2  -1   2  541.15   14.80
  -3   1  -2   41.50    2.60
  -3   1  -2   35.50    2.50
  -3   1  -2   39.80    2.40
  -3   1  -2   37.60    2.50
  -3   1  -2   44.60    5.30
   3  -1   2   39.60    2.50
   3  -1   2   38.60    2.70
   3  -1   2   41.90    2.50
   3  -1   2   45.70    5.50
   3  -1   2   40.00    2.80
   3  -1   2   35.40    4.00
  -4   1  -2   43.40    5.50
  -4   1  -2   37.50    3.20
  -4   1  -2   40.00    3.20
  -4   1  -2   41.00    3.10
  -4   1  -2   41.70    3.20
   4  -1   2   39.30    3.70
   4  -1   2   39.00    4.80
   4  -1   2   39.20    5.80
   4  -1   2   42.80    3.20
   4  -1   2   34.60    3.30
   4  -1   2   35.80    2.70
  -5   1  -2 1755.52   39.20
  -5   1  -2 1750.32   39.20
  -5   1  -2 1756.42   39.30
  -5   1  -2 1742.13   43.80
  -5   1  -2 1646.44   39.70
   5  -1   2 1735.83   43.50
   5  -1   2 1739.33   39.10
   5  -1   2 1754.52   39.30
   5  -1   2 1718.73   43.80
   5  -1   2 1588.74   39.70
   5  -1   2 1738.93   39.40
  -6   1  -2  773.92   19.50
  -6   1  -2  784.22   20.10
  -6   1  -2  777.22   19.40
  -6   1  -2  765.72   19.50
  -6   1  -2  740.53   24.30
   6  -1   2  757.02   19.60
   6  -1   2  779.82   20.30
   6  -1   2  764.22   19.40
   6  -1   2  809.42   19.70
   6  -1   2  781.12   24.80
  -7   1  -2  653.53   17.40
  -7   1  -2  650.33   22.90
  -7   1  -2  640.44   17.50
  -7   1  -2  633.84   18.00
  -7   1  -2  639.84   17.40
   7  -1   2  648.44   17.80
   7  -1   2  652.33   23.40
   7  -1   2  663.53   18.40
   7  -1   2  639.94   17.40
   7  -1   2  632.84   17.50
  -8   1  -2  836.22   22.50
  -8   1  -2  867.81   23.10
  -8   1  -2  864.51   22.20
  -8   1  -2  838.92   22.30
   8  -1   2  848.42   22.70
   8  -1   2  842.82   23.60
   8  -1   2  871.91   28.70
   8  -1   2  863.01   22.20
   8  -1   2  808.72   22.30
   8  -1   2  884.91   30.30
  -9   1  -2   87.09    7.20
  -9   1  -2   96.59    7.60
  -9   1  -2   99.29    8.20
  -9   1  -2   79.69    7.30
   9  -1   2   96.69    7.60
   9  -1   2   96.39    8.50
   9  -1   2   94.49    7.20
   9  -1   2  109.59   14.40
   9  -1   2   95.69    7.60
 -10   1  -2  177.98   11.20
 -10   1  -2  190.28   12.50
 -10   1  -2  203.48   12.80
 -10   1  -2  184.78   13.20
  10  -1   2  180.58   11.60
  10  -1   2  177.68   13.10
  10  -1   2  214.68   19.50
  10  -1   2  190.28   14.50
  10  -1   2  184.08   12.00
   9   0  -2   16.30   11.40
   9   0  -2   21.40    9.60
   9   0  -2   13.60    9.20
   9   0  -2   21.50   15.00
  -9   0   2   11.10    9.50
  -9   0   2   -2.20   10.60
  -9   0   2  -11.30   10.10
   8   0  -2  226.28   15.40
   8   0  -2  229.68   18.80
   8   0  -2  251.17   17.40
   8   0  -2  255.97   15.50
  -8   0   2  244.88   17.10
  -8   0   2  245.38   16.70
   7   0  -2  312.07   16.60
   7   0  -2  335.97   15.60
   7   0  -2  290.27   15.40
   7   0  -2  306.87   17.10
  -7   0   2  306.87   16.40
  -7   0   2  314.37   16.80
  -7   0   2  306.87   16.20
   6   0  -2 1217.28   33.20
   6   0  -2 1273.77   33.80
   6   0  -2 1221.18   34.30
   6   0  -2 1200.18   33.60
  -6   0   2 1197.98   34.00
  -6   0   2 1193.18   35.30
  -6   0   2 1234.08   33.40
  -6   0   2 1234.28   29.20
   5   0  -2  185.88   11.10
   5   0  -2  193.98   10.80
   5   0  -2  190.78   11.40
   5   0  -2  176.78   11.50
  -5   0   2  205.48   11.70
  -5   0   2  201.28   11.30
  -5   0   2  204.68    7.80
  -5   0   2  190.88   11.40
  -5   0   2  195.18   11.20
   4   0  -2   13.20    4.90
   4   0  -2   10.30    4.40
   4   0  -2   13.40    4.60
  -4   0   2   11.80    5.00
  -4   0   2   21.30    3.00
  -4   0   2   10.00    4.10
  -4   0   2   13.10    4.50
  -4   0   2   10.40    4.70
   3   0  -2   71.49    6.30
   3   0  -2   71.49    6.60
   3   0  -2   73.49    6.90
   3   0  -2   73.79    6.50
  -3   0   2   68.49    5.90
  -3   0   2   63.69    5.60
  -3   0   2   77.89    6.40
  -3   0   2   72.79    6.90
   2   0  -2  183.38    7.80
   2   0  -2  169.88    8.00
   2   0  -2  172.88    7.80
  -2   0   2  167.48    7.60
  -2   0   2  179.18    7.90
  -2   0   2  179.28    8.00
  -2   0   2  188.78    7.70
   1   0  -2  175.78    6.90
   1   0  -2  170.18    6.90
   1   0  -2  173.38    6.70
   1   0  -2  174.98    6.70
  -1   0   2  171.58    6.70
  -1   0   2  171.28    6.80
  -1   0   2  170.88    6.90
   0   0  -2    8.40    2.00
   0   0  -2    7.30    1.90
   0   0  -2    5.30    1.90
   0   0  -2    4.30    1.90
   0   0   2    5.50    1.90
   0   0   2    7.40    1.90
   0   0   2    5.60    1.70
   0   0   2    7.50    1.80
  -1   0  -2   46.30    2.50
  -1   0  -2   46.70    2.60
  -1   0  -2   59.09    4.20
  -1   0  -2   50.69    2.60
  -1   0  -2   52.89    3.60
   1   0   2   49.50    2.70
   1   0   2   46.80    2.70
   1   0   2   49.60    2.60
   1   0   2   49.10    3.80
  -2   0  -2 2477.55   56.09
   2   0   2 2516.15   56.79
   2   0   2 2423.16   56.09
  -3   0  -2 3903.11   88.39
   3   0   2 3975.10   88.69
   3   0   2 3881.41   88.29
  -4   0  -2  141.19    4.10
  -4   0  -2  134.79    4.40
  -4   0  -2  138.79    4.10
  -4   0  -2  147.49    8.20
  -4   0  -2  135.09    4.20
   4   0   2  128.29    4.30
   4   0   2  116.99    7.50
   4   0   2  136.89    4.00
   4   0   2  135.29    4.10
   4   0   2  139.19    8.20
   4   0   2  130.59    4.50
  -5   0  -2  160.28    5.90
  -5   0  -2  150.98    5.40
  -5   0  -2  157.38    5.40
  -5   0  -2  161.28    5.50
   5   0   2  156.28    9.50
   5   0   2  149.79    5.60
   5   0   2  169.18    5.40
   5   0   2  152.88    5.60
   5   0   2  151.08    9.70
   5   0   2  158.48    6.00
  -6   0  -2  550.44   14.40
  -6   0  -2  543.05   14.00
  -6   0  -2  529.35   13.80
  -6   0  -2  532.45   13.90
   6   0   2  525.55   18.60
   6   0   2  531.85   14.60
   6   0   2  515.65   14.20
   6   0   2  531.95   14.00
   6   0   2  539.45   13.80
  -7   0  -2 1846.92   42.00
  -7   0  -2 1818.72   42.20
  -7   0  -2 1811.72   42.50
  -7   0  -2 1843.52   42.20
   7   0   2 1750.62   42.20
   7   0   2 1844.92   42.20
   7   0   2 1838.42   42.80
   7   0   2 1811.92   46.60
   7   0   2 1834.12   42.00
  -8   0  -2   65.99    5.60
  -8   0  -2   69.49    6.30
  -8   0  -2   72.99    5.60
  -8   0  -2   59.99    5.80
   8   0   2   56.29   10.30
   8   0   2   56.59    9.50
   8   0   2   68.89    5.80
   8   0   2   63.99    6.50
   8   0   2   62.59    5.40
   8   0   2   66.79    6.00
  -9   0  -2  249.18   11.70
  -9   0  -2  232.88   15.70
  -9   0  -2  253.37   10.80
  -9   0  -2  229.58   10.60
   9   0   2  231.58   11.60
   9   0   2  254.37   17.30
   9   0   2  246.38   10.20
   9   0   2  212.68   10.80
   9   0   2  246.68   18.30
   9   0   2  228.88   12.50
 -10   0  -2   16.60    7.20
 -10   0  -2    9.80    5.60
 -10   0  -2   16.60    6.20
  10   0   2    9.10   12.70
  10   0   2   24.40    6.50
  10   0   2   16.20    6.50
  10   0   2   13.10    7.50
  10   0   2   15.50    6.00
   9  -1  -2    0.10    9.50
   9  -1  -2    9.80   12.30
   9  -1  -2   10.30    9.60
   9  -1  -2   21.00   12.00
  -9   1   2    1.10   10.30
  -9   1   2    8.90   11.00
  -9   1   2    3.60   11.90
  -9   1   2   -5.10    9.80
   8  -1  -2   14.30    7.80
   8  -1  -2   -5.30    7.50
   8  -1  -2    1.40    9.70
   8  -1  -2    2.10    9.90
  -8   1   2   -0.90    6.60
  -8   1   2    1.70    8.70
  -8   1   2    6.00    9.70
  -8   1   2    1.30    7.60
   7  -1  -2   33.10    9.10
   7  -1  -2   42.30    7.60
   7  -1  -2   34.50    9.00
  -7   1   2   35.80    9.00
  -7   1   2   30.40    8.20
  -7   1   2   37.40    6.80
   6  -1  -2  535.05   20.40
   6  -1  -2  560.24   21.10
   6  -1  -2  589.34   19.40
   6  -1  -2  564.34   19.60
  -6   1   2  569.24   17.90
  -6   1   2  589.54   19.70
  -6   1   2  502.75   24.60
  -6   1   2  548.95   20.20
   5  -1  -2  166.38   10.40
   5  -1  -2  185.78   10.20
   5  -1  -2  168.68   11.30
   5  -1  -2  160.78   11.70
  -5   1   2  169.08   10.90
  -5   1   2  159.58   11.00
  -5   1   2  195.38   12.00
  -5   1   2  174.18   11.20
  -5   1   2  171.98    9.80
   4  -1  -2  404.06   14.20
   4  -1  -2  399.76   14.90
   4  -1  -2  399.36   13.80
   4  -1  -2  410.96   15.10
  -4   1   2  390.06   14.10
  -4   1   2  374.76   13.00
  -4   1   2  389.36   14.50
  -4   1   2  373.36   14.00
  -4   1   2  400.66   14.70
   3  -1  -2   64.39    5.60
   3  -1  -2   71.99    6.40
   3  -1  -2   85.79    6.80
   3  -1  -2   67.99    6.50
  -3   1   2   76.19    6.20
  -3   1   2   71.59    6.70
  -3   1   2   79.89    6.60
  -3   1   2   60.99    5.60
   2  -1  -2 5760.92  127.49
   2  -1  -2 5696.23  127.59
   2  -1  -2 5736.83  127.59
   2  -1  -2 5754.52  127.69
  -2   1   2 5557.74  127.69
  -2   1   2 5812.72  127.59
  -2   1   2 5946.71  127.59
  -2   1   2 5663.13  127.59
   1  -1  -2 4895.31  108.29
   1  -1  -2 5011.10  108.39
   1  -1  -2 4939.01  108.59
   1  -1  -2 4813.82  108.29
  -1   1   2 4899.41  108.29
  -1   1   2 4914.31  108.39
  -1   1   2 4822.42  108.29
  -1   1   2 4826.02  108.39
   0  -1  -2 1284.87   29.20
   0  -1  -2 1241.68   29.20
   0  -1  -2 1246.58   29.20
   0   1   2 1305.37   29.20
   0   1   2 1238.38   29.20
   0   1   2 1238.18   29.20
   0   1   2 1227.98   29.10
  -1  -1  -2 4822.32  104.49
  -1  -1  -2 4722.43  104.49
  -1  -1  -2 4820.02  104.49
   1   1   2 4811.32  104.59
   1   1   2 4819.82  104.49
   1   1   2 4771.82  104.49
   1   1   2 4652.53  104.49
  -2  -1  -2 1884.71   43.60
  -2  -1  -2 1906.81   42.10
  -2  -1  -2 1907.81   42.00
  -2  -1  -2 1858.61   41.90
   2   1   2 1907.41   42.00
   2   1   2 1904.41   42.00
   2   1   2 1866.31   43.60
   2   1   2 1904.11   42.10
   2   1   2 1907.41   41.90
  -3  -1  -2 2804.32   62.89
  -3  -1  -2 2858.01   62.99
  -3  -1  -2 2863.71   62.89
   3   1   2 2904.01   65.49
   3   1   2 2895.61   63.09
   3   1   2 2901.91   62.99
   3   1   2 2850.11   62.89
  -4  -1  -2  905.81   21.40
  -4  -1  -2  956.60   21.50
  -4  -1  -2  964.70   21.50
  -4  -1  -2  929.31   21.40
   4   1   2  945.31   24.20
   4   1   2  917.11   21.50
   4   1   2  913.81   24.50
   4   1   2  929.21   21.50
   4   1   2  936.61   21.60
   4   1   2  827.62   21.70
  -5  -1  -2 2783.52   69.99
  -5  -1  -2 3191.08   69.79
  -5  -1  -2 3256.37   69.89
  -5  -1  -2 3206.78   69.89
   5   1   2 3102.19   70.29
   5   1   2 3272.97   70.09
   5   1   2 2855.61   70.99
   5   1   2 3360.16   74.09
   5   1   2 3296.57   72.89
  -6  -1  -2  479.65   13.40
  -6  -1  -2  475.75   13.30
  -6  -1  -2  506.65   13.30
   6   1   2  496.85   17.70
   6   1   2  472.45   13.90
   6   1   2  473.05   16.30
   6   1   2  475.75   13.60
   6   1   2  494.35   13.50
  -7  -1  -2   11.10    4.00
  -7  -1  -2   19.10    3.80
  -7  -1  -2   13.70    3.90
   7   1   2   10.10    3.70
   7   1   2    7.90    6.30
   7   1   2    6.00    5.40
   7   1   2   15.70    4.40
  -8  -1  -2   10.10    4.40
  -8  -1  -2   19.20    5.00
  -8  -1  -2   32.60    5.10
   8   1   2   15.40    7.30
   8   1   2   13.60    5.70
   8   1   2   13.60    7.90
   8   1   2   28.00    4.60
   8   1   2   13.20    5.00
   8   1   2   17.60    4.80
  -9  -1  -2  254.07   11.80
  -9  -1  -2  239.58   12.00
  -9  -1  -2  258.07   10.70
   9   1   2  242.08   10.60
   9   1   2  248.38   15.70
   9   1   2  245.48   12.70
   9   1   2  250.27   11.40
   9   1   2  236.28   11.60
 -10  -1  -2  152.28   12.60
 -10  -1  -2  152.98   10.30
 -10  -1  -2  132.79   10.50
  10   1   2  139.69   11.40
  10   1   2  162.28   13.20
  10   1   2  147.69   13.20
  10   1   2  144.09   10.90
  10   1   2  148.39   10.30
   9  -2  -2    5.20   12.70
   9  -2  -2   18.40   13.50
   9  -2  -2   14.30   10.10
   9  -2  -2    3.80   10.60
  -9   2   2   10.40   10.60
  -9   2   2   32.80   11.10
  -9   2   2   13.50   13.20
  -9   2   2   10.00    9.70
  -9   2   2    9.20   12.10
   8  -2  -2   37.30    9.10
   8  -2  -2   44.20    9.30
   8  -2  -2   30.10   11.40
   8  -2  -2   28.40   12.50
  -8   2   2   36.20    9.40
  -8   2   2   28.50    9.70
  -8   2   2   52.09   10.70
   7  -2  -2   94.39   11.70
   7  -2  -2  105.09   12.00
   7  -2  -2   92.79    9.50
   7  -2  -2  106.29   10.10
  -7   2   2  108.99   10.90
  -7   2   2  110.89   12.50
  -7   2   2  108.69   10.30
   6  -2  -2  258.07   16.00
   6  -2  -2  278.97   13.90
   6  -2  -2  260.37   15.30
  -6   2   2  276.37   16.80
  -6   2   2  267.47   15.60
  -6   2   2  267.07   13.90
  -6   2   2  287.37   15.90
  -6   2   2  270.17   14.80
   5  -2  -2   46.50    7.30
   5  -2  -2   70.49    8.40
   5  -2  -2   41.40    6.30
   5  -2  -2   44.90    6.40
  -5   2   2   42.40    7.00
  -5   2   2   45.70    7.00
  -5   2   2   55.69    7.70
  -5   2   2   43.50    6.90
   4  -2  -2 2256.77   54.99
   4  -2  -2 2258.87   54.79
   4  -2  -2 2343.27   55.39
   4  -2  -2 2284.57   55.39
  -4   2   2 2366.16   55.69
  -4   2   2 2234.68   54.79
  -4   2   2 2334.87   54.89
  -4   2   2 2288.67   55.29
   3  -2  -2  258.77   10.30
   3  -2  -2  252.87   10.50
   3  -2  -2  282.07   11.20
   3  -2  -2  248.98   10.50
  -3   2   2  246.88   10.40
  -3   2   2  244.08   10.50
  -3   2   2  248.08   10.50
   2  -2  -2 1259.67   30.30
   2  -2  -2 1232.18   30.40
   2  -2  -2 1191.38   30.20
   2  -2  -2 1184.28   30.40
  -2   2   2 1237.98   30.30
  -2   2   2 1219.48   30.50
  -2   2   2 1231.28   30.60
  -2   2   2 1230.88   30.30
   1  -2  -2  844.72   21.90
   1  -2  -2  882.41   22.00
   1  -2  -2  900.21   22.30
   1  -2  -2  868.31   22.10
  -1   2   2  877.51   22.10
  -1   2   2  875.31   22.10
  -1   2   2  856.01   22.20
   0  -2  -2 8427.36  183.68
   0  -2  -2 8389.76  183.58
   0  -2  -2 8299.27  183.78
   0  -2  -2 8308.87  183.68
   0   2   2 8478.25  183.78
   0   2   2 8393.56  183.58
  -1  -2  -2 1637.04   37.20
  -1  -2  -2 1599.34   37.20
  -1  -2  -2 1612.84   37.10
  -1  -2  -2 1639.44   37.10
   1   2   2 1588.24   37.10
   1   2   2 1575.94   37.20
   1   2   2 1593.94   37.10
   1   2   2 1630.44   37.10
  -2  -2  -2  222.78    7.00
  -2  -2  -2  220.08    7.50
  -2  -2  -2  220.38    7.20
  -2  -2  -2  228.48    7.10
   2   2   2  224.98    7.00
   2   2   2  229.38    7.20
   2   2   2  225.18    7.30
   2   2   2  211.78    7.10
   2   2   2  232.08    7.70
  -3  -2  -2   43.70    3.70
  -3  -2  -2   44.70    4.10
  -3  -2  -2   52.39    3.70
  -3  -2  -2   51.09    3.50
  -3  -2  -2   52.79    3.70
   3   2   2   52.69    3.90
   3   2   2   51.99    4.60
   3   2   2   58.09    3.80
   3   2   2   50.19    3.90
   3   2   2   55.29    3.50
  -4  -2  -2  980.90   23.60
  -4  -2  -2  991.10   23.70
  -4  -2  -2 1007.80   23.80
   4   2   2  975.70   23.60
   4   2   2 1009.50   24.00
   4   2   2  980.90   23.90
   4   2   2  971.70   25.70
   4   2   2  986.50   23.70
  -5  -2  -2   33.00    3.50
  -5  -2  -2   28.50    4.30
  -5  -2  -2   25.10    3.50
  -5  -2  -2   33.60    3.70
   5   2   2   21.70    4.40
   5   2   2   30.30    3.70
   5   2   2   27.30    3.70
   5   2   2   28.90    3.40
   5   2   2   37.50    3.80
  -6  -2  -2  113.19    6.60
  -6  -2  -2   99.99    6.50
  -6  -2  -2   92.59    8.10
  -6  -2  -2  101.99    7.10
   6   2   2  104.79    6.90
   6   2   2   99.79    6.80
   6   2   2  119.09    8.70
   6   2   2   93.69    8.00
   6   2   2  110.39    6.50
   6   2   2  100.19    7.00
  -7  -2  -2    5.30    3.90
  -7  -2  -2    7.70    4.40
  -7  -2  -2    6.30    7.40
  -7  -2  -2    4.50    3.80
   7   2   2   10.90    6.30
   7   2   2    5.40    5.10
   7   2   2    3.60    4.20
   7   2   2    3.50    4.30
   7   2   2    0.90    4.10
   7   2   2    4.10    3.90
  -8  -2  -2    5.60    4.90
  -8  -2  -2    3.70    4.90
  -8  -2  -2   -0.50    4.40
   8   2   2   -1.80    4.60
   8   2   2   -3.90    5.40
   8   2   2    1.10    6.90
   8   2   2    0.20    5.20
   8   2   2    6.30    5.00
   8   2   2    4.30    4.80
  -9  -2  -2  400.36   14.60
  -9  -2  -2  353.66   16.00
  -9  -2  -2  390.76   14.20
   9   2   2  368.36   13.60
   9   2   2  362.36   15.30
   9   2   2  356.46   16.80
   9   2   2  375.96   14.60
 -10  -2  -2  342.37   15.90
 -10  -2  -2  340.17   14.30
  10   2   2  334.87   15.40
  10   2   2  332.47   17.60
  10   2   2  339.67   14.10
  10   2   2  356.56   16.70
 -11  -2  -2    8.90    8.60
 -11  -2  -2   12.70    7.10
 -11  -2  -2   12.80    8.30
  11   2   2   26.60   15.50
  11   2   2   11.70    8.00
  11   2   2   17.80    7.20
  11   2   2   15.40    8.50
  11   2   2   16.60    9.00
   8  -3  -2  323.17   22.40
   8  -3  -2  373.06   19.90
   8  -3  -2  345.27   19.70
  -8   3   2  355.66   20.10
  -8   3   2  377.76   24.00
  -8   3   2  324.27   21.20
  -8   3   2  345.37   20.40
  -8   3   2  348.57   21.80
   7  -3  -2  360.56   21.20
   7  -3  -2  356.56   17.70
   7  -3  -2  344.67   20.50
   7  -3  -2  341.77   17.30
  -7   3   2  353.76   18.60
  -7   3   2  353.36   20.20
  -7   3   2  381.56   21.70
   6  -3  -2  270.77   14.30
   6  -3  -2  248.18   16.20
   6  -3  -2  301.47   17.10
   6  -3  -2  277.97   16.60
  -6   3   2  313.57   23.10
  -6   3   2  227.28   16.50
  -6   3   2  267.07   15.20
  -6   3   2  275.77   16.90
   5  -3  -2  897.31   27.00
   5  -3  -2  953.30   27.90
   5  -3  -2  963.80   28.00
   5  -3  -2  890.91   26.60
  -5   3   2  878.31   28.60
  -5   3   2  934.11   27.70
  -5   3   2  938.31   27.50
  -5   3   2  930.51   28.80
  -5   3   2  920.21   26.90
   4  -3  -2 2094.29   52.69
   4  -3  -2 2269.07   53.59
   4  -3  -2 2276.67   53.29
   4  -3  -2 2117.89   53.09
  -4   3   2 2126.99   52.89
  -4   3   2 2179.28   53.29
  -4   3   2 2164.48   54.59
  -4   3   2 2250.67   53.29
   3  -3  -2  149.79    8.90
   3  -3  -2  142.39    8.80
   3  -3  -2  124.89    8.70
   3  -3  -2  153.38    9.60
  -3   3   2  156.98    9.80
  -3   3   2  151.78    9.10
  -3   3   2  153.98    8.70
  -3   3   2  144.89    9.00
   2  -3  -2 3925.01   89.19
   2  -3  -2 3894.11   89.29
   2  -3  -2 3931.81   88.89
   2  -3  -2 3883.41   89.09
  -2   3   2 3983.10   89.09
  -2   3   2 3896.31   89.09
  -2   3   2 3921.01   89.39
  -2   3   2 3927.91   89.09
   1  -3  -2  229.68    9.50
   1  -3  -2  240.48    9.20
   1  -3  -2  242.28    9.50
  -1   3   2  267.97   10.10
  -1   3   2  247.58    9.50
  -1   3   2  243.18    9.30
   0  -3  -2  883.01   22.80
   0  -3  -2  880.11   22.50
   0  -3  -2  867.41   22.90
   0   3   2  860.11   22.90
   0   3   2  892.51   22.80
   0   3   2  919.81   22.90
  -1  -3  -2   55.49    5.10
  -1  -3  -2   54.59    4.90
  -1  -3  -2   61.69    4.70
  -1  -3  -2   56.29    4.70
   1   3   2   49.00    4.30
   1   3   2   52.89    4.70
   1   3   2   51.69    4.40
   1   3   2   57.79    4.60
  -2  -3  -2 1887.61   44.00
  -2  -3  -2 1876.41   44.10
  -2  -3  -2 1883.41   43.60
  -2  -3  -2 1874.21   44.10
  -2  -3  -2 1900.41   44.30
   2   3   2 1856.21   44.10
   2   3   2 1914.21   44.40
   2   3   2 1906.81   44.10
   2   3   2 1946.71   44.00
  -3  -3  -2 1333.47   32.50
  -3  -3  -2 1350.06   32.50
  -3  -3  -2 1287.07   34.70
  -3  -3  -2 1393.46   32.50
  -3  -3  -2 1357.96   32.50
   3   3   2 1352.16   32.60
   3   3   2 1369.56   32.80
   3   3   2 1385.96   32.80
   3   3   2 1373.86   32.60
   3   3   2 1360.76   32.40
  -4  -3  -2 1237.78   29.90
  -4  -3  -2 1195.58   29.90
  -4  -3  -2 1286.17   30.20
   4   3   2 1266.67   30.20
   4   3   2 1234.38   29.80
   4   3   2 1180.68   30.70
   4   3   2 1242.08   30.00
   4   3   2 1207.28   30.10
  -5  -3  -2 1099.69   27.50
  -5  -3  -2 1067.19   27.40
  -5  -3  -2 1148.19   27.80
  -5  -3  -2 1110.99   27.70
   5   3   2 1093.69   27.50
   5   3   2 1127.89   29.40
   5   3   2 1144.69   28.00
   5   3   2 1114.59   27.50
   5   3   2 1064.19   27.60
  -6  -3  -2   44.90    5.00
  -6  -3  -2   46.80    5.20
  -6  -3  -2   41.40    5.20
  -6  -3  -2   47.30    5.10
   6   3   2   39.10    5.20
   6   3   2   53.59    6.50
   6   3   2   50.59    5.20
   6   3   2   58.19    5.50
   6   3   2   45.20    5.20
  -7  -3  -2  150.98    9.40
  -7  -3  -2  165.48    9.60
  -7  -3  -2  162.08    9.00
  -7  -3  -2  169.48    9.20
   7   3   2  156.08    9.50
   7   3   2  169.78   12.20
   7   3   2  163.28    9.20
   7   3   2  146.59    8.90
   7   3   2  166.88   10.20
   7   3   2  144.39    9.60
  -8  -3  -2  771.92   23.30
  -8  -3  -2  773.02   23.20
  -8  -3  -2  789.92   22.60
  -8  -3  -2  824.62   22.80
   8   3   2  761.22   23.00
   8   3   2  796.32   26.90
   8   3   2  804.72   22.50
   8   3   2  789.02   23.20
   8   3   2  805.12   23.20
   8   3   2  783.42   23.30
  -9  -3  -2  666.83   23.10
  -9  -3  -2  721.93   22.50
  -9  -3  -2  758.72   22.20
  -9  -3  -2  726.63   22.10
   9   3   2  749.62   22.00
   9   3   2  680.03   22.30
   9   3   2  754.02   23.10
   9   3   2  666.63   22.70
   9   3   2  742.63   22.80
   9   3   2  756.22   27.70
 -10  -3  -2  130.79   10.20
 -10  -3  -2  130.79   10.70
 -10  -3  -2  115.59   10.70
  10   3   2  142.59   11.30
  10   3   2  112.49   10.60
  10   3   2  107.99   16.00
  10   3   2   99.19   10.00
  10   3   2  141.19   12.60
  10   3   2  118.49   12.50
 -11  -3  -2  456.75   22.10
 -11  -3  -2  477.45   18.80
 -11  -3  -2  485.95   20.00
 -11  -3  -2  473.05   20.60
  11   3   2  523.45   30.80
  11   3   2  487.15   19.10
  11   3   2  458.95   20.20
  11   3   2  461.25   21.60
  11   3   2  450.15   19.50
  11   3   2  471.95   20.40
   8  -4  -2    6.30   10.10
   8  -4  -2    6.10   12.80
   8  -4  -2   10.70   10.60
  -8   4   2   10.70   11.70
  -8   4   2    8.30   11.10
  -8   4   2    0.20   11.60
  -8   4   2    2.00   12.10
  -8   4   2   12.90   14.30
   7  -4  -2  519.15   25.00
   7  -4  -2  481.35   22.10
   7  -4  -2  502.75   21.40
   7  -4  -2  511.45   25.20
  -7   4   2  480.25   21.40
  -7   4   2  475.45   23.80
   6  -4  -2   96.79   11.60
   6  -4  -2   97.49   10.20
   6  -4  -2   79.49   10.40
   6  -4  -2   93.09   10.10
  -6   4   2  104.99   11.80
  -6   4   2   94.99   12.70
  -6   4   2   88.49   10.60
   5  -4  -2   42.60    8.30
   5  -4  -2   53.69    8.30
   5  -4  -2   49.50    7.80
   5  -4  -2   60.69    8.90
  -5   4   2   67.69    8.90
  -5   4   2   33.20    8.10
  -5   4   2   50.29   10.00
  -5   4   2   37.50    8.00
   4  -4  -2   29.00    6.30
   4  -4  -2   32.90    6.70
   4  -4  -2   38.50    6.90
   4  -4  -2   27.60    6.20
  -4   4   2   28.00    6.50
  -4   4   2   40.40    7.90
  -4   4   2   34.80    8.70
  -4   4   2   30.60    7.10
   3  -4  -2  573.04   18.50
   3  -4  -2  574.14   18.20
   3  -4  -2  534.55   17.80
   3  -4  -2  553.94   18.30
  -3   4   2  575.14   21.60
  -3   4   2  520.45   18.20
  -3   4   2  577.84   18.40
  -3   4   2  535.35   18.70
  -3   4   2  547.75   17.80
   2  -4  -2  595.44   18.70
   2  -4  -2  590.24   18.90
   2  -4  -2  630.04   18.50
   2  -4  -2  602.44   18.60
  -2   4   2  585.24   19.00
  -2   4   2  604.04   18.40
  -2   4   2  597.04   18.80
  -2   4   2  615.14   18.30
   1  -4  -2   18.70    4.10
   1  -4  -2   31.50    5.00
   1  -4  -2   22.60    4.60
   1  -4  -2   23.70    4.60
  -1   4   2   23.10    4.90
  -1   4   2   23.30    4.00
  -1   4   2   21.70    4.60
  -1   4   2   40.30    5.00
   0  -4  -2   79.79    6.70
   0  -4  -2   71.99    6.60
   0  -4  -2   71.19    6.50
   0  -4  -2   71.99    6.00
   0   4   2   73.09    6.40
   0   4   2   74.19    6.40
   0   4   2   69.49    6.40
   0   4   2   70.09    6.10
  -1  -4  -2  685.53   18.70
  -1  -4  -2  646.94   18.90
  -1  -4  -2  665.73   19.20
   1   4   2  651.83   18.90
   1   4   2  672.13   19.30
   1   4   2  695.73   19.00
   1   4   2  652.23   18.60
  -2  -4  -2  497.75   15.00
  -2  -4  -2  485.35   15.00
  -2  -4  -2  504.65   14.80
  -2  -4  -2  491.95   15.40
  -2  -4  -2  504.55   13.50
   2   4   2  475.35   15.30
   2   4   2  494.25   15.00
   2   4   2  496.15   14.80
   2   4   2  481.15   15.10
  -3  -4  -2 1341.67   33.10
  -3  -4  -2 1331.07   33.10
  -3  -4  -2 1308.67   33.30
  -3  -4  -2 1357.86   32.00
  -3  -4  -2 1327.87   33.10
   3   4   2 1317.17   32.20
   3   4   2 1334.77   33.20
   3   4   2 1359.86   33.00
   3   4   2 1353.66   33.60
   3   4   2 1321.77   33.20
  -4  -4  -2  259.97   10.50
  -4  -4  -2  242.58   10.20
  -4  -4  -2  256.27    9.90
  -4  -4  -2  257.87   10.20
   4   4   2  260.57   10.00
   4   4   2  266.57   10.30
   4   4   2  255.27   10.40
   4   4   2  263.77   10.10
   4   4   2  245.68   10.20
  -5  -4  -2  102.89    7.30
  -5  -4  -2  106.89    7.50
  -5  -4  -2   92.29    7.40
   5   4   2  114.99    8.10
   5   4   2  117.79    7.90
   5   4   2  108.89    7.40
   5   4   2  114.79    8.30
   5   4   2  102.89    7.50
  -6  -4  -2 2402.16   55.29
  -6  -4  -2 2275.97   54.89
  -6  -4  -2 2297.47   54.99
  -6  -4  -2 2379.16   55.39
   6   4   2 2253.57   55.19
   6   4   2 2408.86   55.29
   6   4   2 2346.17   56.79
   6   4   2 2267.87   54.99
  -7  -4  -2 2940.81   68.19
  -7  -4  -2 2960.00   68.59
  -7  -4  -2 2934.01   68.19
  -7  -4  -2 2913.01   68.39
   7   4   2 2999.00   70.99
   7   4   2 2867.01   68.59
   7   4   2 2933.91   68.29
   7   4   2 2906.71   68.19
   7   4   2 2826.02   68.19
  -8  -4  -2   12.50    6.00
  -8  -4  -2   11.40    5.90
  -8  -4  -2   -2.30    5.70
  -8  -4  -2    1.00    5.40
   8   4   2    5.00    5.20
   8   4   2   11.90    7.60
   8   4   2   13.10    5.70
   8   4   2    8.20    5.80
   8   4   2    4.60    5.30
   8   4   2    3.20    5.70
  -9  -4  -2  197.48   13.40
  -9  -4  -2  180.08   13.60
  -9  -4  -2  186.18   12.90
  -9  -4  -2  218.58   12.80
   9   4   2  177.08   14.80
   9   4   2  202.48   13.40
   9   4   2  219.78   13.00
   9   4   2  200.58   12.60
   9   4   2  193.58   12.90
   9   4   2  202.98   14.00
 -10  -4  -2  142.99   12.20
 -10  -4  -2  142.79   12.00
 -10  -4  -2  148.59   11.70
  10   4   2  145.69   12.10
  10   4   2  133.69   11.70
  10   4   2  147.29   11.60
  10   4   2  144.59   11.20
  10   4   2  153.08   13.10
 -11  -4  -2  452.25   26.10
 -11  -4  -2  354.26   20.20
 -11  -4  -2  409.96   19.90
 -11  -4  -2  423.46   19.80
  11   4   2  415.26   19.30
  11   4   2  424.76   28.50
  11   4   2  409.86   20.90
  11   4   2  398.26   19.60
  11   4   2  377.16   17.40
  11   4   2  352.36   20.00
   7  -5  -2  342.07   20.20
   7  -5  -2  300.97   22.70
   7  -5  -2  338.57   24.40
   7  -5  -2  360.86   20.50
  -7   5   2  353.46   23.90
  -7   5   2  347.27   23.10
  -7   5   2  328.97   25.40
  -7   5   2  355.76   21.10
   6  -5  -2   10.40   10.00
   6  -5  -2   -0.40    8.90
   6  -5  -2    2.50    8.20
   6  -5  -2    1.80    7.70
  -6   5   2   -1.80    8.80
  -6   5   2   -0.10   10.70
   5  -5  -2  295.17   16.30
   5  -5  -2  314.67   16.60
   5  -5  -2  305.47   17.30
   5  -5  -2  294.47   16.40
  -5   5   2  288.07   17.80
  -5   5   2  317.27   16.40
  -5   5   2  267.87   16.60
  -5   5   2  305.17   19.70
   4  -5  -2   41.20    7.90
   4  -5  -2   43.90    8.60
   4  -5  -2   55.39    8.50
   4  -5  -2   55.29    8.30
  -4   5   2   30.60    7.70
  -4   5   2   45.80    7.10
  -4   5   2   50.99    7.70
  -4   5   2   50.39   10.00
  -4   5   2   63.79    8.90
   3  -5  -2  275.37   13.20
   3  -5  -2  257.07   13.20
   3  -5  -2  270.77   13.80
   3  -5  -2  251.17   13.40
  -3   5   2  254.67   13.30
  -3   5   2  235.88   14.20
  -3   5   2  257.27   17.10
  -3   5   2  248.98   13.90
  -3   5   2  245.18   13.80
   2  -5  -2 1014.60   28.50
   2  -5  -2 1048.30   28.70
   2  -5  -2 1072.19   28.50
   2  -5  -2  993.00   28.90
  -2   5   2 1003.20   28.00
  -2   5   2 1004.20   28.70
  -2   5   2 1029.20   28.40
  -2   5   2  999.60   29.10
   1  -5  -2  172.68   10.00
   1  -5  -2  158.38   10.60
   1  -5  -2  160.58    9.80
   1  -5  -2  162.58   10.10
  -1   5   2  156.98   11.00
  -1   5   2  159.38    9.00
  -1   5   2  140.79    9.80
  -1   5   2  141.59    9.40
   0  -5  -2   39.80    5.40
   0  -5  -2   41.60    6.10
   0  -5  -2   33.60    5.90
   0  -5  -2   48.40    6.30
   0   5   2   49.40    6.30
   0   5   2   50.29    5.90
   0   5   2   47.10    6.40
   0   5   2   39.20    5.20
  -1  -5  -2 1609.64   41.20
  -1  -5  -2 1652.03   40.90
  -1  -5  -2 1649.54   41.30
  -1  -5  -2 1682.03   41.70
   1   5   2 1609.94   41.50
   1   5   2 1674.73   41.50
   1   5   2 1700.93   41.40
  -2  -5  -2 3310.87   77.19
  -2  -5  -2 3384.16   77.39
  -2  -5  -2 3226.78   77.29
  -2  -5  -2 3333.17   76.99
  -2  -5  -2 3364.96   74.39
   2   5   2 3368.96   77.59
   2   5   2 3364.56   77.29
   2   5   2 3325.07   76.89
   2   5   2 3255.67   77.29
  -3  -5  -2   59.49    5.10
  -3  -5  -2   49.80    6.00
  -3  -5  -2   49.80    5.50
  -3  -5  -2   52.99    5.50
  -3  -5  -2   48.80    5.70
   3   5   2   53.59    5.90
   3   5   2   56.19    6.10
   3   5   2   62.99    6.60
   3   5   2   62.39    6.30
  -4  -5  -2 1848.02   46.40
  -4  -5  -2 1914.81   46.30
  -4  -5  -2 1874.61   46.40
  -4  -5  -2 1899.41   46.70
   4   5   2 1887.71   46.80
   4   5   2 1890.71   45.00
   4   5   2 1893.61   46.20
   4   5   2 1911.91   46.50
   4   5   2 1927.61   46.50
  -5  -5  -2   89.69    8.30
  -5  -5  -2  118.19    9.70
  -5  -5  -2  109.59    8.10
  -5  -5  -2  116.99    9.00
   5   5   2  118.49    9.00
   5   5   2  121.39    9.40
   5   5   2  125.39    8.70
   5   5   2  121.39    9.00
   5   5   2  114.09    8.50
  -6  -5  -2 1176.38   32.10
  -6  -5  -2 1187.78   32.40
  -6  -5  -2 1253.07   32.40
   6   5   2 1225.98   32.20
   6   5   2 1211.78   32.30
   6   5   2 1233.98   32.60
   6   5   2 1218.38   32.40
   6   5   2 1167.08   31.80
  -7  -5  -2   45.80    7.00
  -7  -5  -2   50.59    7.10
   7   5   2   43.10    7.60
   7   5   2   37.20    6.90
   7   5   2   39.20    6.60
   7   5   2   46.00    6.80
   7   5   2   42.10    6.80
  -8  -5  -2 1734.33   43.90
  -8  -5  -2 1737.13   44.20
  -8  -5  -2 1746.13   43.80
  -8  -5  -2 1731.63   44.20
   8   5   2 1755.42   45.20
   8   5   2 1527.85   50.49
   8   5   2 1741.03   44.00
   8   5   2 1729.53   47.00
   8   5   2 1732.53   43.90
  -9  -5  -2  720.13   23.70
  -9  -5  -2  714.93   23.90
  -9  -5  -2  726.43   24.00
  -9  -5  -2  729.13   23.60
   9   5   2  724.83   23.80
   9   5   2  738.43   24.00
   9   5   2  698.43   22.50
   9   5   2  709.13   26.70
   9   5   2  766.02   27.60
   9   5   2  675.33   24.40
 -10  -5  -2   68.19   11.00
 -10  -5  -2   71.29   10.60
 -10  -5  -2   64.09   10.40
  10   5   2   73.09   10.00
  10   5   2   87.79    9.90
  10   5   2   84.29   10.90
  10   5   2   70.59   11.00
  10   5   2   85.09    9.30
 -11  -5  -2   -4.80    9.90
 -11  -5  -2  -20.30   10.60
 -11  -5  -2  -10.70   10.00
  11   5   2  -28.60   13.30
  11   5   2   -2.10    9.50
  11   5   2   -5.90    9.90
  11   5   2  -10.50    7.60
  11   5   2   -2.50   10.10
  11   5   2   -2.80   10.30
   6  -6  -2   80.39   12.90
   6  -6  -2  102.09   12.60
   6  -6  -2   80.79   12.30
   6  -6  -2  106.39   13.80
  -6   6   2   77.29   15.20
  -6   6   2  101.89   13.90
  -6   6   2  100.29   12.70
   5  -6  -2  151.08   13.50
   5  -6  -2  136.39   12.60
   5  -6  -2  143.49   12.40
   5  -6  -2  130.79   12.60
  -5   6   2  156.58   13.40
  -5   6   2  149.59   14.10
   4  -6  -2  250.27   15.70
   4  -6  -2  278.47   16.50
   4  -6  -2  269.57   15.10
   4  -6  -2  219.98   16.00
  -4   6   2  279.27   15.40
  -4   6   2  239.88   15.80
  -4   6   2  246.98   15.60
  -4   6   2  253.77   17.50
  -4   6   2  247.98   20.90
   3  -6  -2  286.07   14.80
   3  -6  -2  301.07   16.20
   3  -6  -2  294.17   15.60
   3  -6  -2  289.37   15.80
  -3   6   2  286.87   15.50
  -3   6   2  277.87   15.10
  -3   6   2  304.27   17.10
  -3   6   2  288.37   14.40
  -3   6   2  320.07   19.90
   2  -6  -2  401.36   17.20
   2  -6  -2  365.06   16.20
   2  -6  -2  362.16   16.20
   2  -6  -2  377.46   15.70
  -2   6   2  390.16   15.90
  -2   6   2  315.27   16.90
  -2   6   2  346.57   16.90
  -2   6   2  373.26   16.60
   1  -6  -2 1370.26   36.70
   1  -6  -2 1364.86   37.30
   1  -6  -2 1373.46   36.10
   1  -6  -2 1378.06   36.80
  -1   6   2 1368.26   36.50
  -1   6   2 1359.66   36.00
  -1   6   2 1347.47   37.50
  -1   6   2 1337.97   37.10
   0  -6  -2 3196.88   77.59
   0  -6  -2 3358.76   77.19
   0  -6  -2 3238.48   78.09
   0  -6  -2 3289.37   77.59
   0   6   2 3271.07   77.19
   0   6   2 3254.37   78.29
   0   6   2 3299.17   77.49
   0   6   2 3308.27   78.09
  -1  -6  -2  134.09   10.20
  -1  -6  -2  119.39   10.50
  -1  -6  -2  125.09   10.00
  -1  -6  -2  128.79    9.30
   1   6   2  124.59   10.90
   1   6   2  123.59   10.00
   1   6   2  141.19   10.00
   1   6   2  126.49    9.00
  -2  -6  -2  375.36   14.40
  -2  -6  -2  378.36   14.80
  -2  -6  -2  367.36   11.20
  -2  -6  -2  391.56   15.10
  -2  -6  -2  380.46   15.70
   2   6   2  397.16   15.20
   2   6   2  384.56   14.70
   2   6   2  368.96   15.60
   2   6   2  383.86   15.40
  -3  -6  -2  167.48   10.30
  -3  -6  -2  157.68   10.90
  -3  -6  -2  174.78    9.90
  -3  -6  -2  148.19    7.00
  -3  -6  -2  163.38   10.50
   3   6   2  154.08   10.50
   3   6   2  163.88   11.10
   3   6   2  167.48   10.40
   3   6   2  150.58    9.60
  -4  -6  -2 2737.23   66.59
  -4  -6  -2 2787.62   66.39
  -4  -6  -2 2725.63   66.79
  -4  -6  -2 2792.22   66.59
   4   6   2 2740.13   66.59
   4   6   2 2727.83   66.89
   4   6   2 2839.22   64.19
   4   6   2 2818.72   66.39
   4   6   2 2808.02   66.69
  -5  -6  -2  713.53   22.10
  -5  -6  -2  704.73   22.70
  -5  -6  -2  674.93   22.20
  -5  -6  -2  739.63   22.60
   5   6   2  740.73   22.10
   5   6   2  717.83   20.80
   5   6   2  689.43   21.90
   5   6   2  772.92   23.10
   5   6   2  641.84   22.40
  -6  -6  -2   77.29    8.50
  -6  -6  -2   58.59    7.50
  -6  -6  -2   55.19    7.60
  -6  -6  -2   65.89    7.90
   6   6   2   55.99    7.70
   6   6   2   60.79    7.70
   6   6   2   75.19    7.60
   6   6   2   64.69    7.80
   6   6   2   74.29    8.10
  -7  -6  -2   18.80    6.90
  -7  -6  -2   17.20    8.00
  -7  -6  -2   14.20    5.80
  -7  -6  -2   15.90    6.80
   7   6   2   12.70    6.50
   7   6   2   13.70    6.50
   7   6   2   11.70    6.40
   7   6   2    2.70    5.70
   7   6   2   18.60    6.60
  -8  -6  -2   13.90    6.50
  -8  -6  -2   20.80    7.40
  -8  -6  -2    7.20    6.60
   8   6   2    3.80    6.90
   8   6   2   19.10    7.60
   8   6   2   19.90    6.80
   8   6   2   23.30    7.20
   8   6   2    5.20    8.60
  -9  -6  -2   56.09    9.80
  -9  -6  -2   60.29    9.00
  -9  -6  -2   54.49    9.70
   9   6   2   58.89    8.80
   9   6   2   51.89   10.90
   9   6   2   63.49    9.80
   9   6   2   60.19   10.00
   9   6   2   66.29   10.00
 -10  -6  -2   48.00   15.80
 -10  -6  -2   57.19   10.30
 -10  -6  -2   58.99   11.00
 -10  -6  -2   57.49   10.60
  10   6   2   51.49    9.80
  10   6   2   63.09   10.30
  10   6   2   54.39   10.90
  10   6   2   65.69    9.00
  10   6   2   57.19   10.40
 -11  -6  -2   -9.00   10.90
 -11  -6  -2   22.00   11.10
 -11  -6  -2    6.60   10.10
 -11  -6  -2   -3.80   10.40
  11   6   2  -19.10   13.90
  11   6   2  -12.00   10.10
  11   6   2    8.00    9.80
  11   6   2   -5.00    7.80
  11   6   2    0.20   10.50
  11   6   2   -6.20   10.70
   5  -7  -2  533.45   24.30
   5  -7  -2  571.64   24.10
   5  -7  -2  547.45   25.40
   5  -7  -2  522.05   24.90
  -5   7   2  533.45   24.00
  -5   7   2  499.15   26.90
  -5   7   2  542.75   24.80
  -5   7   2  515.35   23.80
  -5   7   2  521.95   30.30
   4  -7  -2   79.49   10.70
   4  -7  -2   64.89   11.30
   4  -7  -2   83.69   11.60
   4  -7  -2   55.99   11.00
  -4   7   2   64.09   11.90
  -4   7   2   61.39   11.10
  -4   7   2   58.19   14.10
  -4   7   2   60.99   10.90
   3  -7  -2  294.27   15.90
   3  -7  -2  248.48   17.50
   3  -7  -2  293.17   17.10
   3  -7  -2  275.87   17.00
  -3   7   2  278.27   17.50
  -3   7   2  294.07   16.40
  -3   7   2  261.17   15.40
  -3   7   2  300.47   28.20
  -3   7   2  278.17   18.70
   2  -7  -2   41.00    8.90
   2  -7  -2   20.00    7.70
   2  -7  -2   30.10    7.60
   2  -7  -2   38.10    8.80
  -2   7   2   24.80    8.10
  -2   7   2   36.40    7.50
  -2   7   2   59.89   13.10
  -2   7   2   29.00    9.00
  -2   7   2   45.20    8.40
   1  -7  -2 1172.78   34.60
   1  -7  -2 1162.98   33.30
   1  -7  -2 1175.98   34.00
   1  -7  -2 1182.28   34.00
  -1   7   2 1185.28   34.90
  -1   7   2 1173.18   34.30
  -1   7   2 1191.78   34.60
  -1   7   2 1165.48   33.00
   0  -7  -2  562.04   19.50
   0  -7  -2  528.45   20.10
   0  -7  -2  533.85   20.00
   0  -7  -2  505.35   19.40
   0   7   2  500.85   19.90
   0   7   2  505.15   20.70
   0   7   2  563.34   19.80
   0   7   2  519.65   18.90
  -1  -7  -2  653.33   21.30
  -1  -7  -2  661.63   22.10
  -1  -7  -2  633.74   22.60
  -1  -7  -2  591.24   21.30
   1   7   2  660.83   21.30
   1   7   2  626.54   22.20
   1   7   2  642.34   21.80
   1   7   2  639.24   22.80
  -2  -7  -2  505.65   14.10
  -2  -7  -2  499.85   20.00
  -2  -7  -2  534.55   18.80
  -2  -7  -2  533.55   19.30
  -2  -7  -2  517.75   19.10
   2   7   2  531.75   20.30
   2   7   2  527.45   18.60
   2   7   2  529.85   19.00
   2   7   2  512.25   19.40
  -3  -7  -2   31.20    6.60
  -3  -7  -2   31.60    6.70
  -3  -7  -2   28.10    6.80
  -3  -7  -2   38.80    7.70
  -3  -7  -2   33.70    3.80
   3   7   2   38.20    6.70
   3   7   2   41.80    7.30
   3   7   2   43.60    7.30
   3   7   2   35.50    7.60
  -4  -7  -2   -3.50    5.40
  -4  -7  -2    3.70    5.20
  -4  -7  -2    1.60    6.50
  -4  -7  -2    1.20    5.60
   4   7   2    4.00    5.20
   4   7   2    7.00    5.90
   4   7   2   -5.80    5.30
   4   7   2    4.90    6.40
  -5  -7  -2  421.46   16.90
  -5  -7  -2  416.76   17.60
  -5  -7  -2  433.66   17.70
  -5  -7  -2  408.36   18.20
   5   7   2  425.86   17.80
   5   7   2  419.06   17.30
   5   7   2  426.86   17.80
   5   7   2  444.36   15.00
   5   7   2  458.75   17.70
  -6  -7  -2  401.16   18.30
  -6  -7  -2  422.06   17.60
  -6  -7  -2  411.66   17.40
   6   7   2  405.86   15.80
   6   7   2  408.56   18.00
   6   7   2  428.76   17.30
   6   7   2  394.96   18.00
   6   7   2  398.06   17.50
  -7  -7  -2  150.78   13.20
  -7  -7  -2  156.58   13.00
  -7  -7  -2  171.78   14.20
  -7  -7  -2  157.48   13.60
   7   7   2  174.78   14.10
   7   7   2  159.58   13.30
   7   7   2  157.78   12.50
   7   7   2  160.28   13.50
   7   7   2  154.78   13.00
  -8  -7  -2  357.16   18.20
  -8  -7  -2  331.27   17.40
  -8  -7  -2  345.07   18.60
  -8  -7  -2  367.66   19.20
   8   7   2  379.76   18.10
   8   7   2  331.57   17.50
   8   7   2  299.67   16.60
   8   7   2  316.27   18.50
   8   7   2  341.17   17.70
  -9  -7  -2  292.47   18.00
  -9  -7  -2  230.38   20.70
  -9  -7  -2  280.97   17.30
   9   7   2  267.77   17.00
   9   7   2  293.07   18.30
   9   7   2  254.97   16.80
   9   7   2  264.77   17.70
   9   7   2  264.77   18.70
 -10  -7  -2    4.90    9.50
 -10  -7  -2    2.50    9.40
  10   7   2   -1.10   10.50
  10   7   2   19.20   10.20
  10   7   2    1.60   11.70
  10   7   2    7.60    8.60
  10   7   2   -1.80    8.90
 -11  -7  -2   11.20   11.20
 -11  -7  -2   -4.70   11.80
 -11  -7  -2   -2.70   10.80
 -11  -7  -2    8.40   11.00
  11   7   2   14.90   10.10
  11   7   2   13.60   14.50
  11   7   2   17.40   11.40
  11   7   2    7.90   11.90
  11   7   2   20.50   12.60
  11   7   2    3.90    8.70
   4  -8  -2   80.39   12.80
   4  -8  -2  100.99   13.30
   4  -8  -2   72.59   12.90
   4  -8  -2   75.59   13.60
  -4   8   2   86.19   17.40
  -4   8   2   80.79   12.90
  -4   8   2   96.89   13.40
  -4   8   2  105.79   13.10
  -4   8   2   60.69   13.20
   3  -8  -2 1196.48   36.70
   3  -8  -2 1223.98   38.60
   3  -8  -2 1280.17   38.10
   3  -8  -2 1238.08   38.00
  -3   8   2 1251.07   37.10
  -3   8   2 1205.98   44.20
  -3   8   2 1201.98   39.40
  -3   8   2 1194.18   37.50
   2  -8  -2  364.86   20.30
   2  -8  -2  376.96   19.90
   2  -8  -2  381.46   18.80
   2  -8  -2  341.67   18.90
  -2   8   2  352.06   18.70
  -2   8   2  378.26   24.70
  -2   8   2  347.57   21.20
  -2   8   2  319.17   18.40
   1  -8  -2   10.30    8.00
   1  -8  -2    8.20    7.50
   1  -8  -2    9.00    8.20
   1  -8  -2   -5.00    7.00
  -1   8   2    2.60    7.70
  -1   8   2   -5.00    6.70
  -1   8   2   -8.40   10.20
  -1   8   2    4.90    8.00
  -1   8   2   -7.30    8.20
   0  -8  -2   48.60    8.70
   0  -8  -2   49.80    9.10
   0  -8  -2   49.70    8.80
   0  -8  -2   64.89    9.80
   0   8   2   47.40    9.10
   0   8   2   68.59    9.20
   0   8   2   77.79   11.20
   0   8   2   74.89   13.50
  -1  -8  -2  238.48   15.70
  -1  -8  -2  234.28   13.90
  -1  -8  -2  230.48   15.30
  -1  -8  -2  210.68   14.80
   1   8   2  237.28   14.20
   1   8   2  239.78   14.90
   1   8   2  228.08   15.30
   1   8   2  231.38   16.60
  -2  -8  -2  341.67   17.70
  -2  -8  -2  326.17   16.50
  -2  -8  -2  335.17   16.40
  -2  -8  -2  327.87   17.00
  -2  -8  -2  326.57    9.80
   2   8   2  303.97   17.80
   2   8   2  331.37   16.80
   2   8   2  295.87   15.70
   2   8   2  309.87   16.60
  -3  -8  -2  637.14   22.10
  -3  -8  -2  587.34   21.90
  -3  -8  -2  610.44   23.60
  -3  -8  -2  622.54   22.90
   3   8   2  625.14   21.90
   3   8   2  620.94   22.50
   3   8   2  572.64   22.60
   3   8   2  594.14   23.20
  -4  -8  -2   67.59    9.20
  -4  -8  -2   69.79    9.50
  -4  -8  -2   56.39    9.30
   4   8   2   58.29    8.70
   4   8   2   82.49    9.80
   4   8   2   70.59    9.20
   4   8   2   63.39    9.00
  -5  -8  -2  726.13   25.40
  -5  -8  -2  706.53   24.60
  -5  -8  -2  723.73   25.90
  -5  -8  -2  724.63   24.70
   5   8   2  683.03   25.30
   5   8   2  743.83   24.70
   5   8   2  743.53   25.80
   5   8   2  685.83   25.10
  -6  -8  -2  785.42   27.10
  -6  -8  -2  857.31   27.70
  -6  -8  -2  797.42   26.50
  -6  -8  -2  839.12   28.20
   6   8   2  796.42   27.70
   6   8   2  685.53   36.20
   6   8   2  796.92   23.70
   6   8   2  789.22   26.70
   6   8   2  788.12   27.30
  -7  -8  -2   12.00    7.50
  -7  -8  -2   13.00    8.60
  -7  -8  -2   17.70    7.70
  -7  -8  -2    1.30    7.90
   7   8   2    8.00    7.60
   7   8   2   14.00    7.20
   7   8   2    8.20    7.60
   7   8   2    1.80    8.10
   7   8   2   13.80    9.20
  -8  -8  -2  288.37   18.20
  -8  -8  -2  264.27   17.50
  -8  -8  -2  297.17   19.50
  -8  -8  -2  290.47   18.60
   8   8   2  282.87   16.90
   8   8   2  284.37   18.00
   8   8   2  295.97   17.90
   8   8   2  296.67   19.20
   8   8   2  313.17   18.10
  -9  -8  -2  130.59   14.10
  -9  -8  -2  149.19   14.20
   9   8   2  172.78   16.50
   9   8   2  135.79   13.50
   9   8   2  162.08   14.80
   9   8   2  156.58   14.00
   9   8   2  142.69   13.80
 -10  -8  -2 1285.37   43.10
 -10  -8  -2 1286.37   40.70
 -10  -8  -2 1249.97   42.70
 -10  -8  -2 1306.37   40.10
  10   8   2 1329.27   39.90
  10   8   2 1309.97   41.60
  10   8   2 1281.67   40.10
  10   8   2 1356.66   40.40
  10   8   2 1299.17   41.40
   3  -9  -2    3.20   11.40
   3  -9  -2    0.90   11.30
   3  -9  -2    2.00   10.40
   3  -9  -2   36.60   21.90
  -3   9   2    5.30   11.50
  -3   9   2    5.50   10.20
  -3   9   2    4.80   11.40
  -3   9   2  -13.60   14.70
  -3   9   2  -15.00   12.10
   2  -9  -2  235.08   20.40
   2  -9  -2  187.48   16.80
   2  -9  -2  197.18   17.20
  -2   9   2  185.08   17.30
  -2   9   2  227.08   22.20
  -2   9   2  231.28   19.90
  -2   9   2  220.48   16.50
   1  -9  -2  109.79   12.50
   1  -9  -2   92.09   12.00
   1  -9  -2   83.09   11.80
  -1   9   2  114.99   16.90
  -1   9   2  105.29   12.70
  -1   9   2   81.39   12.30
  -1   9   2   99.29   14.20
   0  -9  -2   48.70   13.10
   0  -9  -2   52.49    9.90
   0  -9  -2   54.69   10.60
   0  -9  -2   44.00   10.90
   0   9   2   51.39   10.90
   0   9   2   78.99   12.80
   0   9   2   76.09   11.30
   0   9   2   47.00    9.40
  -1  -9  -2  562.44   22.70
  -1  -9  -2  555.54   24.60
  -1  -9  -2  526.45   23.20
  -1  -9  -2  543.55   23.50
   1   9   2  552.74   22.20
   1   9   2  566.04   25.10
   1   9   2  572.54   23.40
   1   9   2  602.54   24.60
  -2  -9  -2  614.94   25.40
  -2  -9  -2  663.23   25.40
  -2  -9  -2  694.73   25.10
   2   9   2  643.74   26.60
   2   9   2  657.93   25.50
   2   9   2  664.13   24.30
   2   9   2  680.83   25.00
  -3  -9  -2   12.80    7.90
  -3  -9  -2   14.40    8.10
  -3  -9  -2    8.50    7.80
  -3  -9  -2   -9.70    7.40
   3   9   2    3.90    7.70
   3   9   2    4.40    7.80
   3   9   2   -4.50    8.40
   3   9   2    8.60    6.80
  -4  -9  -2   85.89   10.90
  -4  -9  -2   64.29   10.40
  -4  -9  -2   68.69   10.30
  -4  -9  -2   70.59   10.60
   4   9   2   77.49   16.00
   4   9   2   77.99   10.90
   4   9   2   92.09   11.30
   4   9   2   55.69    9.60
  -5  -9  -2  479.45   22.00
  -5  -9  -2  450.95   22.30
  -5  -9  -2  482.55   20.90
  -5  -9  -2  446.96   20.50
   5   9   2  467.55   22.00
   5   9   2  468.75   21.10
   5   9   2  472.55   21.30
   5   9   2  502.55   22.70
  -6  -9  -2  660.73   26.00
  -6  -9  -2  561.74   23.50
  -6  -9  -2  611.74   26.40
   6   9   2  607.74   24.30
   6   9   2  664.73   24.60
   6   9   2  651.23   25.70
  -7  -9  -2   57.39   10.70
  -7  -9  -2   56.89    9.90
  -7  -9  -2   50.39   12.10
   7   9   2   42.20   10.10
   7   9   2   24.50   10.40
   7   9   2   54.39   10.10
   7   9   2   38.90    8.00
   7   9   2   39.70   10.00
  -8  -9  -2  307.67   20.50
  -8  -9  -2  354.16   19.50
  -8  -9  -2  295.47   21.40
   8   9   2  330.97   20.10
   8   9   2  309.97   17.90
   8   9   2  344.87   22.00
   8   9   2  316.57   20.10
   8   9   2  274.17   20.10
  -9  -9  -2    6.70   10.70
  -9  -9  -2   17.30   10.80
  -9  -9  -2    3.40   11.00
  -9  -9  -2   14.50   11.60
   9   9   2    9.80   10.90
   9   9   2   17.60   12.00
   9   9   2   32.90   10.30
   9   9   2   11.50   10.40
   9   9   2    7.30   10.10
 -10  -9  -2  106.19   15.30
 -10  -9  -2   58.99   13.60
 -10  -9  -2   99.29   13.30
 -10  -9  -2   77.69   14.50
  10   9   2   81.49   13.90
  10   9   2  110.79   15.10
  10   9   2  116.49   16.00
  10   9   2   85.99   14.00
  10   9   2   96.89   14.90
   2 -10  -2  -11.20   11.70
   2 -10  -2   12.70   12.10
   2 -10  -2   29.50   12.30
   2 -10  -2    1.40   12.40
  -2  10   2   -3.00   10.90
  -2  10   2    1.90   13.00
  -2  10   2   -1.40   13.30
  -2  10   2  -24.40   16.20
  -2  10   2   -9.60   11.20
   1 -10  -2  136.29   15.40
   1 -10  -2  118.79   14.60
   1 -10  -2  127.89   15.30
   1 -10  -2  158.88   15.60
  -1  10   2  125.29   14.50
  -1  10   2  137.79   18.40
  -1  10   2  127.19   16.60
  -1  10   2  116.19   18.60
   0 -10  -2  -13.80   10.30
   0 -10  -2   23.80   10.70
   0 -10  -2   -7.90    9.90
   0 -10  -2   -0.20   10.30
   0  10   2   12.00   12.20
   0  10   2    4.00   10.20
   0  10   2    2.10   11.80
   0  10   2    7.30   13.40
  -1 -10  -2  512.75   24.30
  -1 -10  -2  527.65   24.40
  -1 -10  -2  538.05   25.80
  -1 -10  -2  546.35   25.30
   1  10   2  539.65   25.00
   1  10   2  531.15   25.40
   1  10   2  565.94   23.90
   1  10   2  531.85   27.00
  -2 -10  -2   17.40   10.00
  -2 -10  -2   36.20   10.60
  -2 -10  -2   22.50   10.20
  -2 -10  -2   18.80    9.80
   2  10   2   29.70    9.90
   2  10   2    7.20    9.40
   2  10   2   34.10   11.10
   2  10   2   23.20   10.30
  -3 -10  -2 1582.44   45.50
  -3 -10  -2 1626.64   46.50
  -3 -10  -2 1605.04   46.90
  -3 -10  -2 1566.14   45.90
   3  10   2 1545.85   46.70
   3  10   2 1557.24   46.40
   3  10   2 1605.04   45.10
  -4 -10  -2  307.87   19.40
  -4 -10  -2  338.77   21.40
  -4 -10  -2  307.47   20.50
  -4 -10  -2  319.27   20.30
   4  10   2  296.17   21.00
   4  10   2  329.87   19.30
   4  10   2  302.97   20.20
   4  10   2  313.97   20.30
  -5 -10  -2  590.84   25.70
  -5 -10  -2  521.35   25.50
  -5 -10  -2  502.95   29.90
  -5 -10  -2  511.55   23.90
   5  10   2  448.56   27.60
   5  10   2  551.64   24.30
   5  10   2  545.45   24.90
   5  10   2  513.65   23.50
  -6 -10  -2   25.90   10.20
  -6 -10  -2   35.40   11.70
  -6 -10  -2   11.90    9.90
  -6 -10  -2   36.90   11.20
   6  10   2   43.00   11.70
   6  10   2   35.10   11.50
   6  10   2   26.80   10.60
   6  10   2   39.10   10.80
  -7 -10  -2 1011.10   36.20
  -7 -10  -2  982.30   35.60
  -7 -10  -2 1049.49   34.90
   7  10   2 1003.00   35.80
   7  10   2  947.81   34.20
   7  10   2 1051.89   34.80
   7  10   2  979.70   35.20
  -8 -10  -2  570.84   28.30
  -8 -10  -2  503.05   26.60
  -8 -10  -2  552.14   28.20
   8  10   2  568.74   26.80
   8  10   2  588.84   26.30
   8  10   2  535.55   27.30
   8  10   2  547.55   28.00
   8  10   2  555.74   22.50
  -9 -10  -2    9.40   13.20
  -9 -10  -2   -5.90   11.80
  -9 -10  -2   -8.70   11.50
  -9 -10  -2    4.70   11.80
   9  10   2    2.80   10.70
   9  10   2    2.20   11.40
   9  10   2   -1.90   11.50
   9  10   2   23.70   12.10
   9  10   2   -8.30   12.80
   0 -11  -2   72.29   15.00
   0 -11  -2   94.99   15.10
   0 -11  -2  102.29   15.40
   0 -11  -2   78.39   15.10
   0  11   2   97.19   18.80
   0  11   2  111.19   16.50
   0  11   2   91.09   14.70
   0  11   2  101.89   15.20
   0  11   2   76.89   15.30
  -1 -11  -2   97.39   15.10
  -1 -11  -2  107.69   15.50
  -1 -11  -2  124.89   16.00
  -1 -11  -2  112.89   15.80
   1  11   2   96.59   14.80
   1  11   2  107.49   14.80
   1  11   2  126.99   15.00
   1  11   2  102.89   14.40
   1  11   2  106.39   18.50
  -2 -11  -2   11.10   11.10
  -2 -11  -2   10.00   13.00
  -2 -11  -2  -13.90   11.10
  -2 -11  -2   -2.90   11.00
   2  11   2   -3.50   14.80
   2  11   2   10.30   11.50
   2  11   2   -0.20   11.30
   2  11   2   15.50   11.40
   2  11   2   18.10   10.60
  -3 -11  -2  258.57   22.20
  -3 -11  -2  278.97   21.50
  -3 -11  -2  308.17   25.60
  -3 -11  -2  299.87   22.70
   3  11   2  254.37   21.30
   3  11   2  277.87   22.50
   3  11   2  315.87   24.00
   3  11   2  289.67   22.10
  -4 -11  -2   80.19   14.10
  -4 -11  -2   80.29   14.10
  -4 -11  -2   71.89   12.30
  -4 -11  -2  107.29   15.10
   4  11   2   78.89   13.20
   4  11   2   75.49   13.90
   4  11   2   71.19   15.40
   4  11   2   54.09   12.50
  -5 -11  -2  101.19   15.00
  -5 -11  -2   94.29   14.70
  -5 -11  -2  119.79   14.50
  -5 -11  -2  127.69   16.30
   5  11   2  108.39   14.80
   5  11   2  120.39   15.00
   5  11   2   98.49   14.80
  -6 -11  -2  230.68   21.60
  -6 -11  -2  243.68   21.70
  -6 -11  -2  244.78   20.60
  -6 -11  -2  250.37   23.50
   6  11   2  252.47   23.10
   6  11   2  239.28   22.90
   6  11   2  220.18   18.40
   6  11   2  235.68   18.50
  -7 -11  -2   80.59   15.70
  -7 -11  -2   69.09   14.60
  -7 -11  -2   65.99   14.30
  -7 -11  -2   60.79   15.00
   7  11   2   74.79   13.90
   7  11   2   91.39   14.30
   7  11   2   81.09   14.60
   7  11   2   84.79   15.10
  -8 -11  -2   52.99   15.90
  -8 -11  -2   47.40   13.90
  -8 -11  -2   38.40   14.50
  -8 -11  -2   36.10   13.50
   8  11   2   63.89   15.60
   8  11   2   44.00   13.60
   8  11   2   74.39   15.00
   8  11   2   69.49   15.50
  -2 -12  -2   34.20   14.70
  -2 -12  -2   31.30   15.00
  -2 -12  -2   19.10   14.60
  -2 -12  -2   -0.60   12.90
   2  12   2   34.40   18.00
   2  12   2   38.70   13.80
   2  12   2   32.70   15.20
   2  12   2   36.60   15.50
   2  12   2   34.90   14.60
  -3 -12  -2   18.90   14.70
  -3 -12  -2   19.30   13.90
  -3 -12  -2   16.40   14.80
  -3 -12  -2   -1.80   13.90
   3  12   2   -1.90   16.90
   3  12   2    4.20   13.30
   3  12   2   26.60   13.90
   3  12   2   33.50   14.20
  -4 -12  -2   53.99   15.20
  -4 -12  -2   33.80   14.80
  -4 -12  -2    6.00   13.30
  -4 -12  -2   17.50   14.70
   4  12   2   36.70   14.00
   4  12   2   46.70   16.10
   4  12   2   44.50   14.90
   4  12   2   30.00   14.10
  -5 -12  -2   57.69   16.10
  -5 -12  -2   52.49   15.40
  -5 -12  -2   54.59   14.10
   5  12   2   48.50   14.80
   5  12   2   63.49   15.70
   5  12   2   70.29   15.90
   5  12   2   87.19   16.40
  -6 -12  -2    7.10   15.60
  -6 -12  -2   -3.90   14.20
  -6 -12  -2   22.00   15.00
  -6 -12  -2    2.10   13.40
   6  12   2  -11.30   14.10
   6  12   2   -2.60   13.50
   6  12   2   16.60   13.90
   6  12   2  -11.40   14.10
   6  11  -3  321.17   24.70
   6  11  -3  328.77   28.80
   6  11  -3  322.17   26.80
   6  11  -3  318.87   27.40
   6  11  -3  291.37   23.40
  -6 -11   3  343.97   30.20
  -6 -11   3  271.27   23.90
  -6 -11   3  285.57   27.60
  -6 -11   3  311.57   27.10
   5  11  -3  231.38   20.20
   5  11  -3  199.88   20.40
   5  11  -3  223.78   20.40
   5  11  -3  233.28   21.40
   5  11  -3  217.58   19.40
  -5 -11   3  216.18   21.10
  -5 -11   3  202.58   20.30
  -5 -11   3  183.38   18.90
  -5 -11   3  222.38   20.70
   4  11  -3   92.19   16.30
   4  11  -3  101.69   18.40
   4  11  -3   93.39   16.00
   4  11  -3   85.99   16.30
   4  11  -3   91.79   17.00
  -4 -11   3  103.89   15.70
  -4 -11   3   76.29   14.90
  -4 -11   3   95.39   17.30
  -4 -11   3   73.49   16.90
   3  11  -3  218.88   19.20
   3  11  -3  205.08   22.20
   3  11  -3  160.38   18.10
   3  11  -3  194.18   17.80
   3  11  -3  175.58   17.60
  -3 -11   3  225.48   20.60
  -3 -11   3  230.48   19.50
  -3 -11   3  223.88   19.60
  -3 -11   3  168.08   16.90
   2  11  -3  227.58   19.80
   2  11  -3  272.27   25.50
   2  11  -3  262.87   20.80
   2  11  -3  227.58   20.00
   2  11  -3  235.58   19.60
  -2 -11   3  245.08   21.50
  -2 -11   3  277.07   22.40
  -2 -11   3  275.17   23.80
  -2 -11   3  232.28   20.00
   1  11  -3  129.09   21.80
   1  11  -3  114.39   15.90
   1  11  -3  145.79   17.70
   1  11  -3  109.09   16.40
   1  11  -3  126.99   16.10
  -1 -11   3  125.19   16.20
  -1 -11   3  118.39   16.80
  -1 -11   3   90.09   16.90
  -1 -11   3  121.69   15.50
   0  11  -3  530.55   31.80
   0  11  -3  544.45   29.20
   0  11  -3  535.45   28.60
   0  11  -3  534.95   37.70
   0  11  -3  599.04   29.80
   0 -11   3  587.54   29.20
   0 -11   3  520.45   27.60
   0 -11   3  597.94   32.10
   0 -11   3  592.34   30.40
   7  10  -3    2.40   15.00
   7  10  -3   18.90   13.60
   7  10  -3   51.99   16.20
   7  10  -3   27.50    8.60
   7  10  -3   46.10   14.40
   7  10  -3    9.40   13.00
  -7 -10   3   43.10   13.70
  -7 -10   3   27.60   14.10
  -7 -10   3   50.29   15.40
  -7 -10   3   62.19   16.60
   6  10  -3   31.60   14.10
   6  10  -3   19.90   14.10
   6  10  -3   33.50   14.70
   6  10  -3   45.90   13.10
   6  10  -3   40.90   13.50
   6  10  -3   34.70    7.10
  -6 -10   3   41.10   12.70
  -6 -10   3   17.00   12.40
  -6 -10   3   48.70   14.40
  -6 -10   3   17.60   13.70
   5  10  -3  754.62   32.20
   5  10  -3  740.33   32.10
   5  10  -3  741.53   32.10
   5  10  -3  705.93   31.30
   5  10  -3  749.82   30.40
  -5 -10   3  740.13   32.90
  -5 -10   3  686.83   39.20
  -5 -10   3  735.53   31.30
  -5 -10   3  750.42   29.80
   4  10  -3  122.59   15.30
   4  10  -3  163.18   18.00
   4  10  -3  169.78   16.80
   4  10  -3  159.08   16.20
   4  10  -3  154.78   15.90
  -4 -10   3  190.88   16.80
  -4 -10   3  168.28   17.10
  -4 -10   3  119.29   14.30
   3  10  -3   41.20   12.40
   3  10  -3   21.00   10.80
   3  10  -3   57.99   12.40
   3  10  -3   20.70   14.00
   3  10  -3   33.90   11.70
  -3 -10   3   35.20   10.90
  -3 -10   3   31.40   12.50
  -3 -10   3   32.40   12.00
  -3 -10   3   38.20   10.90
   2  10  -3   -4.80   10.50
   2  10  -3   -0.80   12.80
   2  10  -3   12.20   12.60
   2  10  -3    9.00   12.10
  -2 -10   3   -3.30   11.20
  -2 -10   3   -3.00   10.30
  -2 -10   3   14.10    9.90
  -2 -10   3   -1.10   10.00
   1  10  -3   46.50   11.60
   1  10  -3   45.90   16.10
   1  10  -3   55.99   13.00
   1  10  -3   49.00   12.50
  -1 -10   3   55.09   11.60
  -1 -10   3   30.30   10.50
  -1 -10   3   50.09   13.50
  -1 -10   3   51.99   12.30
   0  10  -3    0.50   12.70
   0  10  -3   15.20   11.80
   0  10  -3   -3.70   10.50
   0  10  -3   -8.60   14.90
   0 -10   3   -3.80   10.20
   0 -10   3   -0.90   11.60
   0 -10   3   12.20   10.60
  -1  10  -3    1.30   10.70
  -1  10  -3   -0.60   12.70
  -1  10  -3  -16.80   11.40
  -1  10  -3    3.60   10.70
  -1  10  -3  -20.50   14.40
   1 -10   3   -4.10   12.70
   1 -10   3   -3.90   11.00
   1 -10   3   -6.20   10.90
   1 -10   3  -13.80   10.50
  -2  10  -3   -0.90   10.90
  -2  10  -3    1.00   11.40
  -2  10  -3    8.70   12.10
  -2  10  -3   11.60   13.20
  -2  10  -3   19.80   17.30
   2 -10   3    7.50   11.90
   2 -10   3    3.50   11.50
   2 -10   3    6.90   12.90
   2 -10   3   20.90   11.80
   8   9  -3   16.30   12.20
   8   9  -3   17.20   13.00
   8   9  -3   -2.20   10.60
   8   9  -3   13.60   14.20
   8   9  -3   14.80   14.40
  -8  -9   3   23.50   15.30
  -8  -9   3    9.80   14.80
  -8  -9   3   -3.60   11.60
  -8  -9   3    8.30   12.20
   7   9  -3  632.74   31.10
   7   9  -3  590.04   28.60
   7   9  -3  594.84   24.70
   7   9  -3  652.03   28.10
   7   9  -3  610.84   30.20
  -7  -9   3  617.84   27.50
  -7  -9   3  603.24   31.00
  -7  -9   3  631.24   30.70
  -7  -9   3  578.34   28.40
   6   9  -3   83.39   14.30
   6   9  -3   78.79   13.70
   6   9  -3   72.29   12.60
   6   9  -3   80.19   12.40
   6   9  -3   77.79   14.00
  -6  -9   3   77.89   12.50
  -6  -9   3   63.29   12.90
  -6  -9   3   79.39   12.60
  -6  -9   3   75.39   14.40
   5   9  -3  413.86   22.40
   5   9  -3  452.55   24.10
   5   9  -3  401.36   23.60
   5   9  -3  477.05   24.30
  -5  -9   3  441.36   21.90
  -5  -9   3  474.05   25.10
  -5  -9   3  423.96   23.00
  -5  -9   3  395.76   23.10
   4   9  -3   78.39   12.10
   4   9  -3   21.10   11.40
   4   9  -3   41.70   11.60
   4   9  -3   25.60   10.40
   4   9  -3   28.20   10.10
  -4  -9   3   20.20   11.10
  -4  -9   3   36.30   10.70
  -4  -9   3   21.60    9.30
  -4  -9   3   27.20   10.50
   3   9  -3  437.56   23.30
   3   9  -3  422.06   21.50
   3   9  -3  399.26   22.60
   3   9  -3  403.46   22.00
  -3  -9   3  406.56   20.00
  -3  -9   3  431.06   22.00
  -3  -9   3  407.96   22.50
  -3  -9   3  394.46   22.20
   2   9  -3  314.37   18.40
   2   9  -3  335.97   20.10
   2   9  -3  345.47   21.20
   2   9  -3  273.47   22.60
   2   9  -3  278.27   19.70
  -2  -9   3  212.08   22.30
  -2  -9   3  341.17   18.40
  -2  -9   3  301.97   20.50
  -2  -9   3  292.97   20.30
   1   9  -3  313.87   20.50
   1   9  -3  260.17   18.30
   1   9  -3  303.77   23.70
   1   9  -3  296.27   19.40
  -1  -9   3  273.27   17.30
  -1  -9   3  306.77   20.20
  -1  -9   3  315.97   19.30
  -1  -9   3  302.07   18.80
   0   9  -3   41.20   13.40
   0   9  -3   39.90   11.40
   0   9  -3   47.30   10.20
   0   9  -3   34.20   10.30
   0  -9   3   40.50    9.60
   0  -9   3   32.40   11.00
   0  -9   3   51.99   10.90
   0  -9   3   54.49   10.40
  -1   9  -3   78.69   12.20
  -1   9  -3   80.49   12.50
  -1   9  -3   65.89   10.70
  -1   9  -3   77.49   15.30
   1  -9   3   59.89   11.90
   1  -9   3   79.09   11.80
   1  -9   3   64.29   11.40
   1  -9   3   82.29   12.10
  -2   9  -3   12.40   11.90
  -2   9  -3    6.70   12.50
  -2   9  -3   25.20   11.20
  -2   9  -3   16.20    9.80
   2  -9   3   35.80   10.60
   2  -9   3   12.70    9.60
   2  -9   3   10.80   10.90
   2  -9   3   44.40   10.50
  -3   9  -3  367.76   30.80
  -3   9  -3  384.16   20.60
  -3   9  -3  402.56   22.00
  -3   9  -3  430.46   22.90
   3  -9   3  374.86   21.20
   3  -9   3  367.76   21.50
   3  -9   3  394.86   22.60
   3  -9   3  379.86   22.20
   9   8  -3   47.90   14.50
   9   8  -3   34.90   16.30
   9   8  -3   70.69   16.60
   9   8  -3   32.60    5.50
   9   8  -3   63.29   15.50
  -9  -8   3   58.09   14.90
  -9  -8   3   57.29   14.00
  -9  -8   3   71.19   15.60
  -9  -8   3   50.79   15.90
   8   8  -3  199.18   15.30
   8   8  -3  201.68   19.10
   8   8  -3  161.18   15.80
   8   8  -3  188.88   17.40
   8   8  -3  206.88   18.50
  -8  -8   3  205.68   17.60
  -8  -8   3  199.08   18.90
  -8  -8   3  157.78   18.10
  -8  -8   3  198.98   17.70
   7   8  -3   31.80   11.20
   7   8  -3   34.50   13.00
   7   8  -3   31.50   12.60
   7   8  -3   50.59    9.70
   7   8  -3   41.40   11.60
  -7  -8   3   44.40   11.70
  -7  -8   3   61.69   12.50
  -7  -8   3   38.00   12.90
  -7  -8   3   40.40   12.40
   6   8  -3  121.39   13.60
   6   8  -3  135.09   14.60
   6   8  -3  127.99   14.50
   6   8  -3  117.99   13.60
   6   8  -3  119.69   12.90
  -6  -8   3  108.29   14.20
  -6  -8   3  116.49   14.30
  -6  -8   3  139.99   13.70
   5   8  -3  167.38   14.20
   5   8  -3  159.18   14.40
   5   8  -3  156.78   13.60
   5   8  -3  156.68   15.50
   5   8  -3  196.48   18.00
  -5  -8   3  187.18   19.40
  -5  -8   3  163.68   14.90
  -5  -8   3  147.39   13.00
  -5  -8   3  180.18   15.20
   4   8  -3   13.80    8.60
   4   8  -3   21.90    8.90
   4   8  -3   14.90    8.70
   4   8  -3   10.90    8.80
   4   8  -3   18.00    9.00
  -4  -8   3   22.40    9.10
  -4  -8   3    9.20    7.90
  -4  -8   3   16.70    8.40
  -4  -8   3   15.40    9.50
   3   8  -3  128.69   11.90
   3   8  -3  155.48   14.00
   3   8  -3  149.09   14.10
   3   8  -3  165.18   15.80
   3   8  -3  143.79   13.00
  -3  -8   3  157.38   16.10
  -3  -8   3  154.08   14.40
  -3  -8   3  160.78   13.90
  -3  -8   3  154.78   14.80
   2   8  -3   50.79   11.50
   2   8  -3   56.49   12.00
   2   8  -3   50.79    8.70
   2   8  -3   52.89    9.60
   2   8  -3   63.09   10.40
  -2  -8   3   57.29   15.30
  -2  -8   3   58.49    9.80
  -2  -8   3   57.49    9.90
  -2  -8   3   44.00   10.20
   1   8  -3   88.79   10.40
   1   8  -3   87.69   11.40
   1   8  -3   95.79   13.70
   1   8  -3   81.19   10.20
   1   8  -3   73.39   10.40
  -1  -8   3   76.39   11.50
  -1  -8   3   86.59   10.70
  -1  -8   3   75.29   10.60
  -1  -8   3   78.99   10.50
   0   8  -3   10.50    7.00
   0   8  -3    3.60    8.50
   0   8  -3   11.00   10.90
   0   8  -3   -2.90    7.80
   0   8  -3    1.80    7.10
   0  -8   3    3.70    7.50
   0  -8   3    0.90    6.90
   0  -8   3   -0.10    7.90
  -1   8  -3 1392.16   45.60
  -1   8  -3 1356.96   39.80
  -1   8  -3 1392.36   39.40
  -1   8  -3 1397.26   38.90
  -1   8  -3 1368.56   40.40
   1  -8   3 1424.26   39.50
   1  -8   3 1350.66   39.30
   1  -8   3 1426.46   40.10
   1  -8   3 1422.26   40.40
  -2   8  -3  730.33   26.50
  -2   8  -3  766.72   26.00
  -2   8  -3  747.33   32.30
  -2   8  -3  742.03   28.40
   2  -8   3  775.32   26.90
   2  -8   3  724.33   25.80
   2  -8   3  768.72   27.40
   2  -8   3  765.42   26.10
  -3   8  -3   92.49   12.10
  -3   8  -3  101.79   17.30
   3  -8   3   90.29   11.30
   3  -8   3   74.19   10.60
   3  -8   3   94.99   11.10
   3  -8   3  104.09    9.10
   3  -8   3   84.39   11.30
  -4   8  -3   13.90    8.90
  -4   8  -3    6.70   13.10
  -4   8  -3   26.60   10.80
  -4   8  -3   10.40   10.20
   4  -8   3   31.00   11.30
   4  -8   3   27.00    9.80
   4  -8   3   34.00    8.60
   4  -8   3   10.30    8.90
   4  -8   3   37.70    9.70
  -5   8  -3  207.58   18.40
  -5   8  -3  191.28   14.70
  -5   8  -3  239.58   24.10
  -5   8  -3  204.38   16.20
  -5   8  -3  202.28   16.30
   5  -8   3  204.18   17.80
   5  -8   3  233.48   18.30
   5  -8   3  200.28   18.80
   5  -8   3  196.18   17.70
   9   7  -3   75.99   14.20
   9   7  -3   97.69   14.80
   9   7  -3   56.79   15.00
   9   7  -3   91.89   16.30
  -9  -7   3   80.49   14.80
  -9  -7   3   99.49   15.70
  -9  -7   3   89.19   16.40
   8   7  -3   96.89   13.80
   8   7  -3   84.99   13.60
   8   7  -3   91.09   14.70
   8   7  -3  104.29    9.30
   8   7  -3  112.79   14.00
  -8  -7   3  111.79   14.90
  -8  -7   3   99.19   14.20
  -8  -7   3  109.39   13.90
   7   7  -3   81.19   12.40
   7   7  -3   99.89   13.60
   7   7  -3   82.19   12.00
   7   7  -3   76.69   12.00
   7   7  -3   82.29    8.90
  -7  -7   3   69.19   12.40
  -7  -7   3   82.39   11.90
  -7  -7   3   78.99   11.80
   6   7  -3   -2.50    9.50
   6   7  -3    8.40    9.20
   6   7  -3    0.70    7.40
   6   7  -3    2.00    7.80
   6   7  -3    8.80    8.60
  -6  -7   3   -2.50    8.80
  -6  -7   3    5.50    8.20
  -6  -7   3    0.60    8.70
  -6  -7   3    0.80    8.30
   5   7  -3   30.30    8.60
   5   7  -3   53.99    9.30
   5   7  -3   31.80    8.30
   5   7  -3   20.50    9.30
  -5  -7   3   12.40    8.10
  -5  -7   3   18.10    8.80
  -5  -7   3   30.30    8.40
  -5  -7   3   20.10    9.00
   4   7  -3 1004.80   33.30
   4   7  -3 1047.00   32.60
   4   7  -3 1056.49   31.80
   4   7  -3 1026.30   31.90
   4   7  -3 1035.80   32.80
  -4  -7   3 1023.60   31.40
  -4  -7   3  942.11   35.00
  -4  -7   3 1068.49   33.20
  -4  -7   3 1066.29   32.50
   3   7  -3  642.04   24.80
   3   7  -3  644.94   24.10
   3   7  -3  677.43   24.70
   3   7  -3  692.93   24.60
   3   7  -3  637.84   23.40
  -3  -7   3  698.93   24.60
  -3  -7   3  674.93   23.40
  -3  -7   3  732.73   25.30
  -3  -7   3  678.03   24.30
   2   7  -3  179.88   14.50
   2   7  -3  181.58   14.00
   2   7  -3  163.38   14.60
   2   7  -3  175.38   15.40
   2   7  -3  179.48   13.70
  -2  -7   3  169.38   12.90
  -2  -7   3  188.28   13.80
  -2  -7   3  165.88   12.30
  -2  -7   3  193.18   14.40
   1   7  -3  650.73   23.50
   1   7  -3  647.44   25.90
   1   7  -3  669.33   23.60
   1   7  -3  709.73   24.20
  -1  -7   3  652.73   23.10
  -1  -7   3  656.33   22.70
  -1  -7   3  688.63   24.20
  -1  -7   3  672.13   23.80
   0   7  -3   27.50    7.00
   0   7  -3   38.00   10.90
   0   7  -3   18.60    7.50
   0   7  -3   38.50    7.60
   0  -7   3   34.10    7.40
   0  -7   3   25.00    7.40
   0  -7   3   28.20    7.10
   0  -7   3   26.70    7.80
  -1   7  -3  524.25   19.50
  -1   7  -3  535.85   20.50
  -1   7  -3  525.25   19.80
  -1   7  -3  509.05   20.90
  -1   7  -3  531.25   25.40
   1  -7   3  544.45   20.30
   1  -7   3  538.65   20.20
   1  -7   3  532.05   20.90
   1  -7   3  517.05   19.80
  -2   7  -3  157.48   13.40
  -2   7  -3  131.29   11.70
  -2   7  -3  128.49   11.80
  -2   7  -3  162.08   16.60
  -2   7  -3  129.39   10.50
   2  -7   3  123.89   10.80
   2  -7   3  120.09   10.50
   2  -7   3  103.49   10.20
   2  -7   3  124.29   10.90
  -3   7  -3 1007.30   38.40
  -3   7  -3 1112.09   32.70
  -3   7  -3 1166.58   32.00
   3  -7   3 1026.00   31.60
   3  -7   3 1107.99   32.80
   3  -7   3 1165.58   30.10
   3  -7   3 1094.19   31.40
   3  -7   3 1094.39   32.60
  -4   7  -3   77.59   10.90
  -4   7  -3   87.29   10.80
  -4   7  -3   96.99   15.80
  -4   7  -3   90.79    9.70
   4  -7   3   80.59    9.20
   4  -7   3   80.59   10.00
   4  -7   3   77.89   10.10
   4  -7   3   80.79    9.70
   4  -7   3   84.59    9.70
  -5   7  -3   27.40   10.00
  -5   7  -3   22.00    9.30
  -5   7  -3    5.70   12.80
  -5   7  -3   20.20    8.30
  -5   7  -3   18.50   10.10
   5  -7   3   34.90    9.00
   5  -7   3   29.50    8.80
   5  -7   3   31.20    8.70
   5  -7   3   30.20    9.10
   5  -7   3   18.30    9.10
  -6   7  -3   56.89   11.70
  -6   7  -3   32.30    9.70
  -6   7  -3   18.20   11.50
  -6   7  -3   22.10   17.00
  -6   7  -3   27.90   10.30
   6  -7   3   42.30   10.00
   6  -7   3   39.50   11.20
   6  -7   3   38.40    9.60
   6  -7   3   12.80    9.40
   6  -7   3   29.50    9.10
   9   6  -3   13.30   11.30
   9   6  -3   11.70   12.70
   9   6  -3   10.40   15.20
   9   6  -3   19.20   12.60
  -9  -6   3    7.00   12.30
  -9  -6   3   18.70   12.00
  -9  -6   3    8.30   12.70
  -9  -6   3   31.10   13.30
   8   6  -3  379.06   22.00
   8   6  -3  403.06   24.20
   8   6  -3  407.26   21.90
   8   6  -3  418.56   23.20
  -8  -6   3  426.06   22.10
  -8  -6   3  381.06   23.20
  -8  -6   3  402.06   23.30
   7   6  -3  201.48    9.80
   7   6  -3  224.18   17.40
   7   6  -3  239.18   18.70
   7   6  -3  186.48   17.10
   7   6  -3  200.28   16.10
  -7  -6   3  202.28   17.80
  -7  -6   3  216.68   15.20
  -7  -6   3  235.58   18.50
   6   6  -3  803.02   27.70
   6   6  -3  833.72   28.20
   6   6  -3  816.52   28.90
   6   6  -3  805.12   23.50
  -6  -6   3  754.62   26.50
  -6  -6   3  821.82   28.30
  -6  -6   3  806.42   28.70
  -6  -6   3  809.42   27.90
   5   6  -3 1698.53   43.50
   5   6  -3 1726.53   46.90
   5   6  -3 1683.83   46.10
   5   6  -3 1729.73   46.30
   5   6  -3 1720.73   46.10
  -5  -6   3 1722.33   47.30
  -5  -6   3 1704.93   46.90
  -5  -6   3 1739.03   46.50
  -5  -6   3 1712.83   46.00
   4   6  -3   96.39   10.40
   4   6  -3   78.19    9.10
   4   6  -3   99.99    9.70
   4   6  -3   94.79   10.60
   4   6  -3   78.89    9.20
  -4  -6   3   81.69    9.00
  -4  -6   3   92.69   10.10
  -4  -6   3   71.79    8.90
  -4  -6   3   86.79    9.00
   3   6  -3  495.65   19.50
   3   6  -3  502.65   19.30
   3   6  -3  451.05   18.70
   3   6  -3  438.86   18.90
   3   6  -3  486.85   18.90
  -3  -6   3  478.45   19.30
  -3  -6   3  480.65   17.80
  -3  -6   3  477.25   19.50
  -3  -6   3  473.65   18.60
   2   6  -3  771.52   25.30
   2   6  -3  763.02   24.00
   2   6  -3  753.92   24.20
   2   6  -3  696.63   23.00
   2   6  -3  675.93   23.20
  -2  -6   3  675.03   22.50
  -2  -6   3  744.03   23.80
  -2  -6   3  745.83   24.00
  -2  -6   3  723.13   24.30
   1   6  -3 1533.85   40.50
   1   6  -3 1553.84   40.90
   1   6  -3 1546.55   41.30
   1   6  -3 1563.94   41.10
   1   6  -3 1510.15   35.00
   1   6  -3 1549.14   43.10
  -1  -6   3 1515.65   40.30
  -1  -6   3 1560.64   41.00
  -1  -6   3 1562.94   41.20
  -1  -6   3 1582.64   40.90
   0   6  -3  202.78   12.00
   0   6  -3  221.88   15.30
   0   6  -3  191.48   12.70
   0   6  -3  196.58   12.60
   0   6  -3  228.68   12.00
   0  -6   3  206.08   11.60
   0  -6   3  183.08   12.60
   0  -6   3  197.58   12.20
   0  -6   3  211.68   11.60
  -1   6  -3   38.90    9.70
  -1   6  -3   25.60    6.90
  -1   6  -3   26.90    6.70
  -1   6  -3   24.00    5.90
  -1   6  -3   35.90    6.20
   1  -6   3   32.20    6.50
   1  -6   3   27.70    6.40
   1  -6   3   29.40    6.10
   1  -6   3   31.40    6.30
  -2   6  -3   14.30    8.60
  -2   6  -3   22.40    5.80
  -2   6  -3   14.80    5.80
  -2   6  -3   17.30    6.40
   2  -6   3   20.30    6.20
   2  -6   3   24.00    5.00
   2  -6   3   22.50    6.20
   2  -6   3   30.60    6.00
   2  -6   3   14.90    6.10
  -3   6  -3   13.60    5.70
  -3   6  -3   13.10    9.10
  -3   6  -3   13.00    6.20
  -3   6  -3   16.50    6.50
  -3   6  -3   26.60    6.60
   3  -6   3    1.80    5.40
   3  -6   3   14.20    6.10
   3  -6   3   20.10    5.70
   3  -6   3   14.30    6.00
  -4   6  -3   -0.30    7.10
  -4   6  -3   -7.90    9.00
  -4   6  -3   16.60    6.20
  -4   6  -3   -2.80    6.20
  -4   6  -3   -2.50    5.50
   4  -6   3    4.80    6.10
   4  -6   3   -9.30    6.10
   4  -6   3   -4.70    5.80
   4  -6   3    3.20    5.60
   4  -6   3    5.70    5.70
  -5   6  -3    0.20    6.10
  -5   6  -3   -4.70    7.30
  -5   6  -3    0.00   11.20
  -5   6  -3    2.20    7.40
  -5   6  -3    4.90    6.50
   5  -6   3    1.70    6.70
   5  -6   3   12.70    7.30
   5  -6   3    0.00    6.40
   5  -6   3   -2.80    6.10
  -6   6  -3   -6.00   12.60
  -6   6  -3    0.50    7.50
  -6   6  -3   -1.20    8.30
  -6   6  -3  -10.90    8.30
  -6   6  -3    5.50    7.20
   6  -6   3    9.10    7.80
   6  -6   3   -3.50    7.00
   6  -6   3    0.60    7.50
   6  -6   3    4.80    7.50
   6  -6   3    1.00    9.20
  -7   6  -3  310.57   18.30
  -7   6  -3  341.77   28.60
  -7   6  -3  286.57   18.90
   7  -6   3  329.97   18.10
   7  -6   3  320.77   23.00
   7  -6   3  309.27   17.70
   7  -6   3  268.37   16.60
   7  -6   3  337.47   17.50
  10   5  -3  637.94   30.80
  10   5  -3  627.34   31.50
  10   5  -3  605.34   33.30
  10   5  -3  620.54   31.70
 -10  -5   3  594.04   31.20
 -10  -5   3  606.94   32.20
 -10  -5   3  685.03   32.60
 -10  -5   3  610.54   29.60
   9   5  -3   21.90   10.90
   9   5  -3   -2.70   11.30
   9   5  -3   12.50   13.30
   9   5  -3    6.20   11.80
  -9  -5   3   -2.00   12.10
  -9  -5   3   26.50   13.10
  -9  -5   3   -0.90   11.90
  -9  -5   3   10.10   10.80
   8   5  -3  502.15   25.30
   8   5  -3  514.15   23.60
   8   5  -3  468.05   23.10
   8   5  -3  472.05   23.10
  -8  -5   3  518.85   24.70
  -8  -5   3  466.35   24.50
  -8  -5   3  475.95   21.50
   7   5  -3   83.79   11.40
   7   5  -3   93.59   11.80
   7   5  -3  114.09   11.90
  -7  -5   3  104.49   11.60
  -7  -5   3   94.59   10.50
  -7  -5   3  101.69   12.10
   6   5  -3 1077.59   33.70
   6   5  -3 1111.69   32.40
   6   5  -3 1040.90   32.40
   6   5  -3 1026.50   26.00
   6   5  -3 1101.99   32.80
  -6  -5   3 1021.90   31.40
  -6  -5   3 1082.09   32.60
  -6  -5   3 1067.39   32.90
   5   5  -3   39.00    8.00
   5   5  -3   28.90    7.50
   5   5  -3   24.60    6.60
   5   5  -3   26.70    5.50
   5   5  -3   33.50    8.00
  -5  -5   3   44.30    8.30
  -5  -5   3   28.90    7.40
  -5  -5   3   32.70    7.60
  -5  -5   3   40.80    8.50
   4   5  -3  658.53   22.30
   4   5  -3  635.84   22.50
   4   5  -3  673.23   22.70
   4   5  -3  633.04   21.50
   4   5  -3  651.43   20.30
  -4  -5   3  652.73   22.10
  -4  -5   3  676.23   22.30
  -4  -5   3  662.53   22.60
  -4  -5   3  658.13   22.40
   3   5  -3  373.36   16.10
   3   5  -3  371.56   15.20
   3   5  -3  366.56   15.50
   3   5  -3  375.26   15.70
   3   5  -3  363.76   15.30
  -3  -5   3  362.46   15.30
  -3  -5   3  396.16   16.20
  -3  -5   3  378.46   16.20
  -3  -5   3  374.86   15.70
   2   5  -3    6.40    5.70
   2   5  -3    8.00    4.80
   2   5  -3    5.10    5.40
   2   5  -3   15.80    5.10
   2   5  -3    7.00    5.20
  -2  -5   3   18.10    5.10
  -2  -5   3    9.50    5.20
  -2  -5   3    8.50    5.20
  -2  -5   3    2.70    4.80
   1   5  -3   98.29    9.70
   1   5  -3   82.69    7.90
   1   5  -3   98.59    8.70
   1   5  -3  107.09    8.90
   1   5  -3  107.99    9.60
  -1  -5   3  100.19    8.80
  -1  -5   3  100.39    9.00
  -1  -5   3  100.69    9.50
  -1  -5   3  100.09    9.40
   0   5  -3  840.92   20.80
   0   5  -3  835.32   24.20
   0   5  -3  893.71   24.90
   0   5  -3  855.81   27.50
   0   5  -3  862.01   25.00
   0   5  -3  856.01   24.70
   0  -5   3  830.82   27.20
   0  -5   3  884.91   24.80
   0  -5   3  841.62   24.40
   0  -5   3  845.22   24.90
   0  -5   3  890.31   24.80
  -1   5  -3  226.98   11.50
  -1   5  -3  229.88   11.30
  -1   5  -3  234.08   10.80
  -1   5  -3  225.48   14.60
  -1   5  -3  232.08   11.80
   1  -5   3  223.08   10.90
   1  -5   3  235.38   11.20
   1  -5   3  226.88   11.50
   1  -5   3  249.38   14.60
   1  -5   3  226.08   11.20
  -2   5  -3  193.88    9.90
  -2   5  -3  173.48   13.90
  -2   5  -3  179.68   10.00
  -2   5  -3  177.58   10.60
   2  -5   3  157.98    9.70
   2  -5   3  183.88   10.00
   2  -5   3  161.38   10.60
   2  -5   3  174.98   10.10
   2  -5   3  185.38    9.00
   2  -5   3  147.99   14.20
  -3   5  -3  815.22   22.80
  -3   5  -3  762.02   23.30
  -3   5  -3  814.62   22.80
  -3   5  -3  799.72   28.40
  -3   5  -3  811.92   23.50
   3  -5   3  832.92   23.00
   3  -5   3  784.22   23.30
   3  -5   3  812.42   23.00
   3  -5   3  793.32   23.30
   3  -5   3  801.92   28.90
   3  -5   3  810.12   22.80
  -4   5  -3  279.07   13.30
  -4   5  -3  310.37   12.50
  -4   5  -3  300.87   13.40
  -4   5  -3  325.47   19.50
  -4   5  -3  311.77   12.50
   4  -5   3  295.27   12.70
   4  -5   3  306.77   14.20
   4  -5   3  271.07   13.00
   4  -5   3  290.57   19.70
   4  -5   3  307.27   12.20
   4  -5   3  303.37   13.20
  -5   5  -3  130.09   11.10
  -5   5  -3  145.69   16.50
  -5   5  -3  132.39   11.50
  -5   5  -3  129.49    9.40
   5  -5   3  126.89   10.20
   5  -5   3  133.59   10.70
   5  -5   3  120.09    9.50
   5  -5   3  136.89   10.60
   5  -5   3  128.29    9.70
  -6   5  -3   71.49    8.00
  -6   5  -3   64.39    8.50
  -6   5  -3   85.39    7.80
  -6   5  -3   44.70   12.80
  -6   5  -3   63.79    8.70
   6  -5   3   53.59    7.20
   6  -5   3   63.59    7.90
   6  -5   3   74.69   10.40
   6  -5   3   72.59    8.00
   6  -5   3   63.69    7.80
  -7   5  -3  158.58   17.40
  -7   5  -3  142.89   12.90
  -7   5  -3  157.78   13.50
   7  -5   3  152.38   15.30
   7  -5   3  139.89   12.70
   7  -5   3  154.38   13.70
   7  -5   3  168.18   14.70
   8  -5   3    6.30    7.90
  10   4  -3  359.36   28.50
  10   4  -3  345.57   25.40
  10   4  -3  409.16   27.10
 -10  -4   3  292.87   26.00
 -10  -4   3  372.56   23.40
 -10  -4   3  358.56   26.40
 -10  -4   3  313.97   28.20
   9   4  -3   50.59   12.90
   9   4  -3   50.19   13.40
   9   4  -3   44.90   12.50
   9   4  -3   56.79   12.60
  -9  -4   3   42.10   13.30
  -9  -4   3   52.79   12.50
  -9  -4   3   49.80   13.40
  -9  -4   3   49.70   12.50
   8   4  -3 1284.17   39.50
   8   4  -3 1354.66   40.50
   8   4  -3 1303.67   38.90
   8   4  -3 1267.57   39.70
  -8  -4   3 1325.17   40.80
  -8  -4   3 1320.27   39.80
  -8  -4   3 1253.67   38.60
  -8  -4   3 1199.68   39.30
   7   4  -3  196.78   15.90
   7   4  -3  209.18   17.50
   7   4  -3  226.38   16.10
  -7  -4   3  193.98   16.40
  -7  -4   3  200.88   15.30
  -7  -4   3  208.58   16.60
  -7  -4   3  196.38   16.00
   6   4  -3  108.89   10.70
   6   4  -3  126.39   11.10
   6   4  -3  118.69   10.80
   6   4  -3  121.79   12.10
  -6  -4   3  121.59   10.60
  -6  -4   3  106.19   10.20
  -6  -4   3  131.79   11.20
  -6  -4   3  107.79   10.50
   5   4  -3    6.40    3.30
   5   4  -3   10.30    6.00
   5   4  -3    6.10    5.40
   5   4  -3    1.10    6.00
   5   4  -3    7.60    6.40
  -5  -4   3    2.80    6.20
  -5  -4   3    6.40    6.20
  -5  -4   3    8.40    6.20
  -5  -4   3    3.60    5.90
   4   4  -3  147.99   10.40
   4   4  -3  129.09   11.20
   4   4  -3  162.48   11.00
   4   4  -3  134.59   10.70
   4   4  -3  132.89    8.20
  -4  -4   3  136.69   10.10
  -4  -4   3  145.49   11.20
  -4  -4   3  139.39   10.90
  -4  -4   3  142.09   11.00
   3   4  -3  616.24   19.90
   3   4  -3  615.34   19.30
   3   4  -3  570.44   18.10
   3   4  -3  610.24   19.90
   3   4  -3  586.74   19.30
  -3  -4   3  593.54   19.40
  -3  -4   3  619.64   19.70
  -3  -4   3  618.24   20.10
  -3  -4   3  591.74   19.60
   2   4  -3  645.84   20.10
   2   4  -3  639.04   20.10
   2   4  -3  666.23   19.90
   2   4  -3  652.73   19.80
   2   4  -3  652.93   19.70
  -2  -4   3  651.73   20.30
  -2  -4   3  636.64   19.50
  -2  -4   3  628.64   19.90
  -2  -4   3  665.53   20.20
  -2  -4   3  608.74   19.60
   1   4  -3   36.00    5.00
   1   4  -3   36.90    5.30
   1   4  -3   41.40    5.20
   1   4  -3   43.80    6.30
   1   4  -3   40.70    5.60
  -1  -4   3   47.10    5.50
  -1  -4   3   38.70    5.60
  -1  -4   3   30.00    4.80
  -1  -4   3   45.80    6.10
  -1  -4   3   31.70    5.10
   0   4  -3 2160.28   49.60
   0   4  -3 2176.88   52.19
   0   4  -3 2206.88   52.29
   0   4  -3 2201.68   51.99
   0   4  -3 2152.98   54.09
   0   4  -3 2186.28   52.09
   0  -4   3 2131.09   54.09
   0  -4   3 2196.18   51.79
   0  -4   3 2190.98   52.49
   0  -4   3 2227.48   52.19
   0  -4   3 2157.88   52.09
  -1   4  -3 1499.25   36.90
  -1   4  -3 1467.15   40.20
  -1   4  -3 1519.05   36.80
  -1   4  -3 1493.95   37.20
  -1   4  -3 1474.75   35.10
   1  -4   3 1520.05   37.00
   1  -4   3 1511.05   37.20
   1  -4   3 1486.65   40.20
   1  -4   3 1473.75   36.70
   1  -4   3 1489.95   37.30
  -2   4  -3  142.89    8.50
  -2   4  -3  143.99    8.00
  -2   4  -3  138.99   12.20
  -2   4  -3  138.89    8.20
  -2   4  -3  154.08    8.10
   2  -4   3  166.58   12.50
   2  -4   3  142.99    7.80
   2  -4   3  129.79    9.50
   2  -4   3  141.19    8.10
   2  -4   3  141.09    8.20
   2  -4   3  137.49    8.30
  -3   4  -3  253.97   15.30
  -3   4  -3  253.87   10.10
  -3   4  -3  259.77   10.90
  -3   4  -3  249.58   10.70
  -3   4  -3  277.87   10.40
   3  -4   3  249.18   10.70
   3  -4   3  229.88   15.00
   3  -4   3  255.27   10.90
   3  -4   3  260.07   10.40
   3  -4   3  254.27   10.20
   3  -4   3  259.27   11.10
  -4   4  -3 1377.86   33.10
  -4   4  -3 1305.07   38.90
  -4   4  -3 1350.96   32.90
  -4   4  -3 1313.77   33.60
  -4   4  -3 1334.07   33.50
   4  -4   3 1307.67   39.30
   4  -4   3 1319.27   33.60
   4  -4   3 1333.37   33.30
   4  -4   3 1376.86   35.30
   4  -4   3 1344.87   33.40
   4  -4   3 1351.96   32.90
  -5   4  -3 2221.28   60.79
  -5   4  -3 2366.26   54.09
  -5   4  -3 2347.97   54.49
  -5   4  -3 2356.86   53.89
  -5   4  -3 2263.17   54.99
   5  -4   3 2238.28   62.19
   5  -4   3 2339.17   54.29
   5  -4   3 2283.87   54.09
   5  -4   3 2362.16   57.39
   5  -4   3 2301.97   54.69
   5  -4   3 2338.27   53.69
  -6   4  -3   60.49   11.60
  -6   4  -3   91.79    8.80
  -6   4  -3   94.79    7.20
  -6   4  -3   83.19    7.40
   6  -4   3  103.69    7.70
   6  -4   3   90.89    7.60
   6  -4   3   80.99   13.10
   6  -4   3  108.49    9.60
   6  -4   3   91.69    7.10
   6  -4   3  110.79   10.70
  -7   4  -3  304.07   14.10
  -7   4  -3  315.87   13.60
  -7   4  -3  354.66   22.60
  -7   4  -3  304.57   13.80
   7  -4   3  299.77   12.80
   7  -4   3  306.57   13.50
   7  -4   3  329.77   19.80
   7  -4   3  286.97   13.70
   7  -4   3  314.67   14.30
  -8   4  -3    1.30    6.20
  -8   4  -3  -28.70   11.70
  -8   4  -3   -6.50    7.90
  -8   4  -3    7.40    6.90
   8  -4   3    7.60    6.20
   8  -4   3  -13.70    7.90
   8  -4   3    6.40   11.10
   8  -4   3    2.50    6.70
   8  -4   3    0.50    6.60
  10   3  -3   -1.10   13.70
  10   3  -3   -7.60   12.30
  10   3  -3   13.40   14.30
 -10  -3   3    5.00   12.10
 -10  -3   3   14.50   14.80
 -10  -3   3   10.20   13.00
 -10  -3   3  -14.30   14.80
   9   3  -3   75.89   13.80
   9   3  -3   72.89   13.00
   9   3  -3   52.79   12.30
   9   3  -3   52.19   11.30
  -9  -3   3   69.59   13.30
  -9  -3   3   42.90   12.60
  -9  -3   3   38.90   12.90
  -9  -3   3   64.39   13.70
   8   3  -3   55.19   11.60
   8   3  -3   53.39   11.30
   8   3  -3   59.89   11.10
   8   3  -3   58.29   11.40
  -8  -3   3   33.00   10.60
  -8  -3   3   68.89   11.60
  -8  -3   3   49.00   11.50
  -8  -3   3   50.89   11.70
   7   3  -3  176.38   14.80
   7   3  -3  209.68   16.10
   7   3  -3  189.28   15.50
  -7  -3   3  185.08   17.00
  -7  -3   3  202.08   14.90
  -7  -3   3  177.58   15.00
  -7  -3   3  175.18   15.60
   6   3  -3  236.28   14.90
   6   3  -3  259.57   14.80
   6   3  -3  260.27   15.00
   6   3  -3  268.47   15.80
  -6  -3   3  255.97   16.00
  -6  -3   3  211.38   16.60
  -6  -3   3  242.88   14.70
  -6  -3   3  240.28   14.60
   5   3  -3    8.90    5.40
   5   3  -3   10.20    6.30
   5   3  -3   19.40    6.20
   5   3  -3   12.10    5.90
  -5  -3   3    7.20    6.10
  -5  -3   3   16.70    6.30
  -5  -3   3   12.50    6.30
  -5  -3   3   18.20    6.20
   4   3  -3 1321.77   35.40
   4   3  -3 1324.97   35.20
   4   3  -3 1367.76   35.90
   4   3  -3 1340.17   35.20
  -4  -3   3 1290.77   35.30
  -4  -3   3 1302.27   35.00
  -4  -3   3 1332.57   35.60
  -4  -3   3 1381.96   35.50
   3   3  -3 1453.45   37.40
   3   3  -3 1429.56   34.90
   3   3  -3 1417.66   37.50
   3   3  -3 1501.35   38.00
   3   3  -3 1542.35   37.70
  -3  -3   3 1460.15   37.80
  -3  -3   3 1477.35   37.70
  -3  -3   3 1488.15   37.60
  -3  -3   3 1455.45   37.10
   2   3  -3  290.27   11.70
   2   3  -3  305.27   11.80
   2   3  -3  336.97   12.60
   2   3  -3  319.67   12.20
   2   3  -3  309.27   11.30
  -2  -3   3  318.17   11.60
  -2  -3   3  309.27   12.10
  -2  -3   3  322.07   12.20
  -2  -3   3  315.27   12.30
  -2  -3   3  306.37   11.80
   1   3  -3   15.50    4.00
   1   3  -3   15.60    4.00
   1   3  -3    8.50    3.50
   1   3  -3   15.40    3.60
   1   3  -3   11.60    3.50
  -1  -3   3   14.90    3.60
  -1  -3   3   14.00    4.00
  -1  -3   3   19.60    4.50
  -1  -3   3   12.40    4.00
  -1  -3   3   16.90    3.90
   0   3  -3 2475.05   57.79
   0   3  -3 2485.65   59.49
   0   3  -3 2524.15   57.99
   0   3  -3 2508.95   57.89
   0   3  -3 2404.16   57.79
   0  -3   3 2507.35   57.69
   0  -3   3 2531.95   57.99
   0  -3   3 2494.65   57.89
   0  -3   3 2473.15   58.09
   0  -3   3 2518.85   59.79
  -1   3  -3  635.54   17.90
  -1   3  -3  650.43   20.40
  -1   3  -3  645.34   17.80
  -1   3  -3  648.84   17.00
  -1   3  -3  640.84   17.60
   1  -3   3  653.53   18.20
   1  -3   3  636.54   17.80
   1  -3   3  634.84   17.60
   1  -3   3  657.43   17.90
   1  -3   3  675.03   20.80
  -2   3  -3  656.93   17.20
  -2   3  -3  628.94   17.50
  -2   3  -3  614.54   20.80
  -2   3  -3  635.84   17.20
  -2   3  -3  628.84   17.40
   2  -3   3  633.74   17.20
   2  -3   3  634.44   17.30
   2  -3   3  638.84   17.50
   2  -3   3  627.04   21.20
   2  -3   3  660.63   17.70
   2  -3   3  634.74   17.70
  -3   3  -3 1233.98   29.90
  -3   3  -3 1255.17   30.20
  -3   3  -3 1220.98   29.80
  -3   3  -3 1224.08   34.90
  -3   3  -3 1242.68   30.30
   3  -3   3 1254.17   30.30
   3  -3   3 1271.27   30.10
   3  -3   3 1214.88   30.30
   3  -3   3 1232.98   29.80
   3  -3   3 1285.97   31.80
   3  -3   3 1213.18   34.90
  -4   3  -3   25.50    4.10
  -4   3  -3   27.60    3.60
  -4   3  -3   13.70    6.50
   4  -3   3   17.50    3.80
   4  -3   3   17.60    3.80
   4  -3   3   26.10    5.30
   4  -3   3   21.50    3.60
   4  -3   3   21.20    7.60
   4  -3   3   24.10    3.90
  -5   3  -3   68.99    6.10
  -5   3  -3   63.89    8.60
  -5   3  -3   74.49    6.60
  -5   3  -3   66.89    6.10
   5  -3   3   75.99    5.70
   5  -3   3   76.09   10.80
   5  -3   3   66.79    7.80
   5  -3   3   70.79    6.30
   5  -3   3   71.79    5.60
  -6   3  -3  189.38    8.70
  -6   3  -3  168.88    8.70
  -6   3  -3  175.08    8.60
  -6   3  -3  185.28   15.00
   6  -3   3  183.48   15.10
   6  -3   3  159.48    9.00
   6  -3   3  163.88    8.50
   6  -3   3  166.88   13.30
   6  -3   3  148.79    8.70
   6  -3   3  161.28    9.00
  -7   3  -3  408.26   15.10
  -7   3  -3  438.46   13.80
  -7   3  -3  441.66   14.40
  -7   3  -3  441.86   13.80
  -7   3  -3  473.45   22.80
   7  -3   3  429.36   13.50
   7  -3   3  427.06   20.50
   7  -3   3  411.46   23.10
   7  -3   3  394.56   14.90
   7  -3   3  430.86   14.60
   7  -3   3  422.36   14.10
  -8   3  -3  154.68   12.00
  -8   3  -3  168.08   19.00
  -8   3  -3  161.78    9.10
  -8   3  -3  134.69   10.50
  -8   3  -3  159.58    9.20
   8  -3   3  155.48   16.90
   8  -3   3  153.28    8.90
   8  -3   3  157.18   14.60
   8  -3   3  136.59   11.60
   8  -3   3  144.19   10.40
   8  -3   3  153.28    9.40
  -9   3  -3   89.59   14.60
  -9   3  -3  103.99    8.30
  -9   3  -3  116.69   10.60
   9  -3   3   88.89    8.30
   9  -3   3  104.39    8.70
   9  -3   3   94.59    8.40
   9  -3   3   97.49    8.30
   9  -3   3   85.59   15.60
   9   2  -3  114.39   15.30
   9   2  -3  133.59   14.70
   9   2  -3  125.79   14.10
  -9  -2   3  148.59   15.90
  -9  -2   3  114.89   15.10
  -9  -2   3  137.69   14.80
   8   2  -3   62.89   11.70
   8   2  -3   79.59   11.60
   8   2  -3   78.89   11.70
   8   2  -3   65.89   10.90
  -8  -2   3   76.59   11.70
  -8  -2   3   76.99   11.90
  -8  -2   3   68.99   12.20
   7   2  -3  296.77   17.10
   7   2  -3  275.27   17.90
   7   2  -3  248.48   21.70
  -7  -2   3  305.87   17.10
  -7  -2   3  304.07   17.90
  -7  -2   3  286.97   16.70
  -7  -2   3  285.57   17.20
   6   2  -3  272.97   16.00
   6   2  -3  296.87   16.00
   6   2  -3  278.17   15.10
   6   2  -3  295.07   16.00
  -6  -2   3  236.08   22.30
  -6  -2   3  248.98   15.40
  -6  -2   3  310.17   16.60
  -6  -2   3  273.07   16.20
   5   2  -3  175.88   12.40
   5   2  -3  202.48   12.00
   5   2  -3  185.88   11.50
   5   2  -3  198.58   13.20
  -5  -2   3  183.38   13.20
  -5  -2   3  189.28   12.60
  -5  -2   3  221.68   12.20
  -5  -2   3  186.08   12.50
   4   2  -3  432.16   15.50
   4   2  -3  432.96   16.10
   4   2  -3  391.76   15.70
   4   2  -3  385.46   15.30
  -4  -2   3  409.66   15.70
  -4  -2   3  401.06   15.50
  -4  -2   3  389.76   15.10
  -4  -2   3  403.36   15.40
   3   2  -3 1429.06   35.70
   3   2  -3 1341.87   35.30
   3   2  -3 1373.96   35.40
   3   2  -3 1405.66   35.80
  -3  -2   3 1349.77   35.10
  -3  -2   3 1380.46   35.60
  -3  -2   3 1389.76   32.30
  -3  -2   3 1446.26   36.00
  -3  -2   3 1404.46   35.70
   2   2  -3 6979.40  153.18
   2   2  -3 6916.41  153.18
   2   2  -3 7049.09  153.58
   2   2  -3 6972.40  153.28
   2   2  -3 6676.23  151.28
  -2  -2   3 6879.21  152.98
  -2  -2   3 6848.92  153.38
  -2  -2   3 6969.70  153.38
  -2  -2   3 6792.62  151.68
  -2  -2   3 6767.32  152.98
   1   2  -3  254.07    9.40
   1   2  -3  249.38    9.50
   1   2  -3  274.97    9.80
   1   2  -3  269.77   10.10
   1   2  -3  272.67   10.00
  -1  -2   3  259.27    9.40
  -1  -2   3  265.87    9.90
  -1  -2   3  251.07    9.60
  -1  -2   3  271.57   10.10
  -1  -2   3  260.27    9.80
   0   2  -3 1982.50   48.30
   0   2  -3 2050.59   47.40
   0   2  -3 2087.09   47.60
   0   2  -3 2058.69   47.40
   0   2  -3 2085.29   47.50
   0  -2   3 2006.20   47.40
   0  -2   3 2039.40   47.40
   0  -2   3 1988.20   47.50
   0  -2   3 2083.39   47.30
   0  -2   3 2042.10   48.70
  -1   2  -3  587.74   15.20
  -1   2  -3  548.35   15.10
  -1   2  -3  571.34   15.50
  -1   2  -3  557.54   17.40
  -1   2  -3  570.14   15.30
   1  -2   3  569.54   15.30
   1  -2   3  558.34   15.40
   1  -2   3  563.54   17.70
   1  -2   3  598.54   15.20
   1  -2   3  582.54   15.40
  -2   2  -3 4905.91  118.09
  -2   2  -3 5418.96  118.29
  -2   2  -3 5321.27  120.49
  -2   2  -3 5241.58  116.99
  -2   2  -3 5357.36  117.09
  -2   2  -3 5339.57  117.09
   2  -2   3 5338.87  118.49
   2  -2   3 5337.57  117.09
   2  -2   3 5436.16  117.19
   2  -2   3 5393.76  117.29
   2  -2   3 5255.57  120.69
   2  -2   3 5426.16  116.99
  -3   2  -3  630.24   16.00
  -3   2  -3  653.23   16.00
  -3   2  -3  641.84   15.80
  -3   2  -3  608.24   20.30
   3  -2   3  626.64   20.70
   3  -2   3  638.24   18.40
   3  -2   3  663.73   15.90
   3  -2   3  632.54   16.20
   3  -2   3  627.44   16.10
   3  -2   3  635.64   15.90
  -4   2  -3  284.17    8.00
  -4   2  -3  284.07    8.50
  -4   2  -3  262.17    8.20
  -4   2  -3  279.17   13.90
  -4   2  -3  270.47    8.40
   4  -2   3  276.57    8.40
   4  -2   3  270.47   11.80
   4  -2   3  281.67    8.40
   4  -2   3  279.87    8.10
   4  -2   3  270.87    8.60
   4  -2   3  268.97   14.00
  -5   2  -3   15.50    2.90
  -5   2  -3   19.90    3.20
  -5   2  -3   20.10    7.00
  -5   2  -3   19.00    3.10
   5  -2   3   15.00    2.90
   5  -2   3    9.20    6.50
   5  -2   3   17.10    3.20
   5  -2   3   18.00    5.50
   5  -2   3   18.80    3.20
   5  -2   3   18.60    3.30
  -6   2  -3   42.80    4.70
  -6   2  -3   44.00    3.90
  -6   2  -3   50.39    4.00
  -6   2  -3   42.20    9.00
  -6   2  -3   37.50    4.20
   6  -2   3   58.79    4.40
   6  -2   3   50.09    5.20
   6  -2   3   52.49    4.40
   6  -2   3   49.70    7.50
   6  -2   3   45.90    4.00
   6  -2   3   42.50    8.90
  -7   2  -3   49.70    4.60
  -7   2  -3   38.80    8.80
  -7   2  -3   40.40    4.70
  -7   2  -3   30.50    4.80
  -7   2  -3   34.70    3.90
   7  -2   3   27.60    9.30
   7  -2   3   22.00    8.10
   7  -2   3   37.30    4.10
   7  -2   3   38.60    5.40
   7  -2   3   40.10    4.20
   7  -2   3   37.50    4.60
  -8   2  -3   14.30    4.80
  -8   2  -3   16.40    3.70
  -8   2  -3   13.00    3.70
  -8   2  -3   12.80    9.50
  -8   2  -3   19.30    4.90
   8  -2   3   17.50    4.00
   8  -2   3   16.30    5.10
   8  -2   3   14.30    4.90
   8  -2   3    9.60    3.90
   8  -2   3   27.10   13.40
   8  -2   3    6.90    9.10
  -9   2  -3    2.60    5.20
  -9   2  -3    5.40    5.10
   9  -2   3   10.60   11.40
   9  -2   3   12.60   12.50
   9  -2   3    4.20    5.00
   9  -2   3    9.30    5.40
   9   1  -3   50.09   11.60
   9   1  -3   65.69   12.30
   9   1  -3   50.79   13.40
   9   1  -3   67.89   13.10
  -9  -1   3   51.89   13.50
  -9  -1   3   57.09   13.10
  -9  -1   3   56.79   12.50
   8   1  -3  125.09   12.20
   8   1  -3  151.48   14.60
   8   1  -3  127.69   12.70
   8   1  -3  123.79   13.40
  -8  -1   3  112.09   13.10
  -8  -1   3  129.09   13.10
  -8  -1   3  122.39   13.80
   7   1  -3  491.95   22.50
   7   1  -3  555.04   21.90
   7   1  -3  493.75   21.20
  -7  -1   3  541.35   21.90
  -7  -1   3  519.95   21.60
  -7  -1   3  539.35   21.20
  -7  -1   3  479.25   21.90
   6   1  -3 1070.29   31.60
   6   1  -3 1097.99   31.80
   6   1  -3 1046.50   32.50
   6   1  -3 1113.79   32.20
  -6  -1   3 1093.09   32.30
  -6  -1   3 1041.10   37.00
  -6  -1   3 1052.29   34.10
  -6  -1   3 1117.49   32.00
   5   1  -3   26.20    7.20
   5   1  -3   28.50    6.70
   5   1  -3   26.30    6.70
  -5  -1   3   17.60    6.20
  -5  -1   3   23.20    6.70
  -5  -1   3   19.40    5.90
  -5  -1   3   18.00    6.20
   4   1  -3  640.84   20.30
   4   1  -3  642.54   20.90
   4   1  -3  632.14   20.80
   4   1  -3  624.94   20.80
  -4  -1   3  630.04   20.30
  -4  -1   3  638.74   20.80
  -4  -1   3  648.54   20.50
  -4  -1   3  658.43   20.50
   3   1  -3   23.00    4.80
   3   1  -3   18.10    4.40
   3   1  -3   17.10    4.50
   3   1  -3   17.20    4.90
  -3  -1   3    6.70    4.00
  -3  -1   3    7.70    4.40
  -3  -1   3    8.90    4.70
  -3  -1   3   11.60    4.40
  -3  -1   3   16.00    2.40
   2   1  -3 1020.20   27.30
   2   1  -3 1047.60   27.30
   2   1  -3 1036.20   27.40
   2   1  -3 1038.30   27.00
  -2  -1   3 1057.39   24.90
  -2  -1   3 1054.89   27.10
  -2  -1   3 1023.50   27.20
  -2  -1   3 1037.20   27.20
  -2  -1   3 1039.50   27.40
   1   1  -3   19.40    3.40
   1   1  -3   21.30    3.70
   1   1  -3   21.00    3.50
   1   1  -3   25.60    3.50
  -1  -1   3   22.10    3.50
  -1  -1   3   23.00    3.30
  -1  -1   3   21.60    3.70
  -1  -1   3   17.60    3.10
  -1  -1   3   18.90    3.40
   0   1  -3 1388.96   33.50
   0   1  -3 1443.26   33.20
   0   1  -3 1391.46   33.00
   0   1  -3 1392.96   33.00
   0   1  -3 1341.47   32.90
   0  -1   3 1389.76   33.70
   0  -1   3 1400.06   33.00
   0  -1   3 1410.36   33.20
   0  -1   3 1392.56   33.10
   0  -1   3 1366.76   32.80
  -1   1  -3  669.53   16.50
  -1   1  -3  652.23   17.70
  -1   1  -3  666.33   18.40
  -1   1  -3  649.04   16.50
  -1   1  -3  681.53   16.60
   1  -1   3  673.23   16.70
   1  -1   3  662.43   16.50
   1  -1   3  647.04   16.50
   1  -1   3  648.54   16.50
   1  -1   3  660.33   18.70
  -2   1  -3 1597.44   39.70
  -2   1  -3 1642.04   38.50
  -2   1  -3 1621.34   36.50
  -2   1  -3 1631.64   36.60
  -2   1  -3 1617.64   36.50
   2  -1   3 1593.04   36.70
   2  -1   3 1622.04   36.60
   2  -1   3 1676.13   36.50
   2  -1   3 1602.64   40.10
   2  -1   3 1597.04   38.60
   2  -1   3 1624.84   36.60
  -3   1  -3 1418.66   31.40
  -3   1  -3 1440.26   31.70
  -3   1  -3 1415.76   36.10
  -3   1  -3 1417.56   31.40
  -3   1  -3 1410.96   31.60
  -3   1  -3 1374.46   34.80
   3  -1   3 1417.76   31.70
   3  -1   3 1458.55   31.50
   3  -1   3 1386.06   36.40
   3  -1   3 1439.96   31.80
   3  -1   3 1419.26   35.00
   3  -1   3 1414.46   31.50
  -4   1  -3    5.20    1.50
  -4   1  -3    7.80    1.50
  -4   1  -3    4.50    4.70
   4  -1   3    4.90    3.60
   4  -1   3    8.40    1.60
   4  -1   3    6.20    1.60
   4  -1   3    6.00    4.80
  -5   1  -3   69.29    7.90
  -5   1  -3   58.39    3.60
  -5   1  -3   54.19    3.20
   5  -1   3   55.29    3.50
   5  -1   3   67.79    7.70
   5  -1   3   61.89    6.90
   5  -1   3   53.99    4.00
  -6   1  -3 1729.93   44.80
  -6   1  -3 1713.93   38.20
  -6   1  -3 1688.73   38.20
   6  -1   3 1679.23   44.90
   6  -1   3 1725.83   38.40
   6  -1   3 1651.53   38.40
   6  -1   3 1688.43   44.30
  -7   1  -3 1047.10   24.50
  -7   1  -3 1064.99   31.70
  -7   1  -3 1036.30   24.40
   7  -1   3 1044.00   31.70
   7  -1   3  994.10   24.60
   7  -1   3 1007.50   23.60
   7  -1   3 1045.20   23.60
   7  -1   3 1015.90   32.10
   7  -1   3 1041.90   24.80
  -8   1  -3  107.19    7.00
  -8   1  -3  116.99    7.00
   8  -1   3  140.69   13.20
   8  -1   3  106.19    7.60
   8  -1   3  149.19   13.60
   8  -1   3  109.69    7.20
  -9   1  -3  470.45   14.40
  -9   1  -3  500.45   14.60
   9  -1   3  484.05   14.90
   9  -1   3  481.55   14.90
   9  -1   3  518.85   24.70
   9  -1   3  562.44   26.10
 -10   1  -3   44.70    6.10
 -10   1  -3   34.10    8.90
  10  -1   3   33.30   13.80
  10  -1   3   50.99    6.40
  10  -1   3   34.90    6.20
  10  -1   3   37.60   14.60
   9   0  -3  390.96   25.30
   9   0  -3  452.25   25.90
   9   0  -3  466.95   23.40
   9   0  -3  451.55   23.00
  -9   0   3  446.06   24.80
  -9   0   3  497.95   24.00
  -9   0   3  447.76   26.10
   8   0  -3   79.09   11.00
   8   0  -3   81.19   12.60
   8   0  -3   86.09   12.90
   8   0  -3   90.89   11.00
  -8   0   3   79.39   12.10
  -8   0   3   77.59   11.80
   7   0  -3  464.35   22.10
   7   0  -3  498.65   21.30
   7   0  -3  488.95   20.20
   7   0  -3  490.65   20.60
  -7   0   3  461.85   21.60
  -7   0   3  514.45   21.40
  -7   0   3  470.35   21.40
  -7   0   3  464.85   20.70
   6   0  -3   27.50    7.90
   6   0  -3    9.80    6.60
   6   0  -3   15.80    7.80
   6   0  -3   19.60    7.00
  -6   0   3   22.60    3.50
  -6   0   3   18.20    6.80
  -6   0   3   18.70    7.70
  -6   0   3   11.40    7.40
  -6   0   3   12.60    7.40
   5   0  -3 2575.24   63.79
   5   0  -3 2671.53   64.49
   5   0  -3 2568.44   64.19
   5   0  -3 2653.63   64.59
  -5   0   3 2655.83   64.59
  -5   0   3 2609.14   63.99
  -5   0   3 2698.43   64.59
  -5   0   3 2680.13   59.19
  -5   0   3 2664.43   64.29
   4   0  -3 1589.94   39.40
   4   0  -3 1416.86   38.30
   4   0  -3 1451.75   38.30
  -4   0   3 1451.15   38.60
  -4   0   3 1506.65   38.50
  -4   0   3 1492.05   38.70
  -4   0   3 1518.35   38.90
   3   0  -3   27.40    5.60
   3   0  -3   15.20    4.80
   3   0  -3   25.00    5.00
   3   0  -3   25.40    5.20
  -3   0   3   29.70    5.40
  -3   0   3   25.20    5.00
  -3   0   3   33.50    5.20
  -3   0   3   22.90    5.00
   2   0  -3  212.38    9.80
   2   0  -3  225.98    9.60
   2   0  -3  213.28    9.60
   2   0  -3  199.68    9.30
  -2   0   3  195.28    9.40
  -2   0   3  220.98    9.80
  -2   0   3  221.48    9.40
  -2   0   3  223.68    9.90
   1   0  -3 1633.54   39.60
   1   0  -3 1638.24   39.80
   1   0  -3 1704.63   39.70
  -1   0   3 1664.13   39.80
  -1   0   3 1636.24   39.50
  -1   0   3 1643.44   39.70
   0   0  -3  147.79    6.60
   0   0  -3  157.88    6.70
   0   0  -3  147.99    6.50
   0   0  -3  161.88    6.40
   0   0   3  155.18    6.50
   0   0   3  148.89    6.30
   0   0   3  145.99    6.60
   0   0   3  157.38    6.70
  -1   0  -3  286.37    8.40
  -1   0  -3  280.87    8.40
   1   0   3  280.47    8.60
   1   0   3  280.17    8.30
   1   0   3  272.47    8.40
   1   0   3  277.37    8.50
  -2   0  -3    7.00    1.60
  -2   0  -3    3.80    2.50
  -2   0  -3    2.20    1.50
  -2   0  -3    4.00    1.50
   2   0   3   -0.40    3.10
   2   0   3    6.50    1.70
   2   0   3    5.70    1.70
   2   0   3    5.50    2.60
   2   0   3    5.70    1.70
   2   0   3    4.20    1.40
   3   0   3   24.80    3.60
   4   0   3 2337.67   55.29
   4   0   3 2241.88   54.39
   5   0   3 1731.13   44.20
   5   0   3 1800.92   44.90
  -6   0  -3   21.60    2.30
   6   0   3   17.50    6.00
   6   0   3   17.60    5.60
  -7   0  -3    1.20    2.60
  -7   0  -3    7.60    2.60
   7   0   3    2.50    2.50
   7   0   3    2.40    6.00
   7   0   3   17.70    7.10
   7   0   3    2.40    2.90
  -8   0  -3  906.61   22.20
  -8   0  -3  934.11   22.10
   8   0   3  899.41   21.10
   8   0   3  901.51   22.30
   8   0   3  918.61   29.60
   8   0   3  913.91   30.60
   8   0   3  908.31   22.60
  -9   0  -3  637.64   17.00
  -9   0  -3  641.84   17.30
   9   0   3  622.64   17.80
   9   0   3  632.24   27.40
   9   0   3  632.34   17.30
   9   0   3  677.53   26.10
 -10   0  -3   26.30    5.50
 -10   0  -3   25.50    5.40
  10   0   3   30.80   13.50
  10   0   3    9.60   11.00
  10   0   3   20.40    5.70
  10   0   3   31.80    5.40
   9  -1  -3  434.56   23.30
   9  -1  -3  313.47   26.10
   9  -1  -3  349.77   25.00
   9  -1  -3  395.36   22.70
  -9   1   3  364.16   24.60
  -9   1   3  424.96   22.80
  -9   1   3  437.46   27.00
   8  -1  -3    6.90    8.80
   8  -1  -3    3.90    8.50
   8  -1  -3   15.20   11.20
   8  -1  -3   17.10   10.90
  -8   1   3   15.80   10.00
  -8   1   3   14.70   13.20
   7  -1  -3  146.69   12.60
   7  -1  -3  119.49   12.70
   7  -1  -3  128.39   11.70
   7  -1  -3   95.69   12.20
  -7   1   3  122.79   12.40
  -7   1   3  122.89   12.30
  -7   1   3  125.69   10.60
  -7   1   3   87.59   11.70
   6  -1  -3  276.57   14.80
   6  -1  -3  262.97   16.60
   6  -1  -3  288.07   16.60
   6  -1  -3  251.27   15.10
  -6   1   3  221.88   15.40
  -6   1   3  260.17   12.30
  -6   1   3  285.97   16.20
  -6   1   3  272.17   15.10
  -6   1   3  301.77   16.50
   5  -1  -3  320.87   16.60
   5  -1  -3  342.27   16.00
   5  -1  -3  337.87   14.90
   5  -1  -3  344.37   14.60
  -5   1   3  320.57   12.70
  -5   1   3  336.47   15.90
  -5   1   3  350.76   15.50
  -5   1   3  332.47   15.80
  -5   1   3  335.27   15.20
   4  -1  -3  183.58   10.50
   4  -1  -3  166.48   10.80
   4  -1  -3  152.48   11.40
   4  -1  -3  167.08   11.10
  -4   1   3  161.98   11.00
  -4   1   3  160.68   10.80
  -4   1   3  178.08   11.20
  -4   1   3  170.48   11.40
   3  -1  -3   11.40    4.50
   3  -1  -3   19.90    4.60
   3  -1  -3   11.10    4.40
   3  -1  -3    9.40    4.70
  -3   1   3   15.00    4.70
  -3   1   3   13.40    4.70
  -3   1   3   19.30    5.10
  -3   1   3   10.50    4.70
   2  -1  -3  306.07   11.40
   2  -1  -3  312.07   11.80
   2  -1  -3  300.97   11.60
   2  -1  -3  311.17   11.40
  -2   1   3  314.37   11.50
  -2   1   3  306.07   11.80
  -2   1   3  300.37   11.40
  -2   1   3  296.37   11.60
   1  -1  -3 5235.88  118.39
   1  -1  -3 5240.58  118.59
   1  -1  -3 5296.07  118.29
   1  -1  -3 5372.26  118.49
  -1   1   3 5329.47  118.39
  -1   1   3 5403.06  118.49
  -1   1   3 5158.58  118.49
  -1   1   3 5455.25  118.59
   0  -1  -3 5569.54  124.09
   0  -1  -3 5662.03  123.99
   0  -1  -3 5735.53  124.09
   0  -1  -3 5554.64  123.79
   0   1   3 5497.55  123.99
   0   1   3 5650.94  123.89
   0   1   3 5557.14  123.89
   0   1   3 5609.44  123.99
  -1  -1  -3   47.20    3.50
  -1  -1  -3   52.89    3.50
  -1  -1  -3   51.99    3.70
   1   1   3   53.59    3.60
   1   1   3   57.49    3.70
   1   1   3   52.99    3.90
   1   1   3   49.30    3.60
  -2  -1  -3 3917.31   86.39
  -2  -1  -3 3938.41   88.49
  -2  -1  -3 3858.61   86.49
  -2  -1  -3 3969.90   86.49
   2   1   3 3945.61   86.49
   2   1   3 3920.41   86.39
   2   1   3 3856.31   86.39
   2   1   3 4059.19   86.49
  -3  -1  -3  209.78    6.20
  -3  -1  -3  234.88    6.20
  -3  -1  -3  225.18    9.10
  -3  -1  -3  236.78    6.20
  -3  -1  -3  235.88    6.40
   3   1   3  236.98    6.50
   3   1   3  241.78    9.20
   3   1   3  234.38    6.40
   3   1   3  233.78    6.30
  -4  -1  -3 6161.88  134.19
  -4  -1  -3 5896.21  133.89
  -4  -1  -3 6391.26  133.99
  -4  -1  -3 6027.10  134.19
   4   1   3 6136.09  134.29
   4   1   3 6244.28  133.99
   4   1   3 6253.67  138.39
   4   1   3 6282.37  134.09
   4   1   3 6108.59  134.29
   4   1   3 6305.07  138.69
  -5  -1  -3   31.80    2.50
  -5  -1  -3   24.10    2.10
   5   1   3   33.20    5.80
   5   1   3   34.90    2.80
   5   1   3   27.20    2.30
   5   1   3   20.00    4.70
  -6  -1  -3 3324.17   73.69
  -6  -1  -3 3235.98   73.19
  -6  -1  -3 3372.26   73.89
  -6  -1  -3 3344.27   73.09
   6   1   3 3352.16   73.39
   6   1   3 3414.46   79.69
   6   1   3 3353.86   73.29
   6   1   3 3386.56   78.89
   6   1   3 3374.56   73.99
  -7  -1  -3  360.56   10.10
  -7  -1  -3  354.66    9.30
  -7  -1  -3  344.87    9.50
  -7  -1  -3  368.86   10.50
   7   1   3  357.96   10.20
   7   1   3  319.17   16.90
   7   1   3  354.06    9.80
   7   1   3  354.46    9.50
   7   1   3  366.16   16.00
   7   1   3  353.26   10.80
  -8  -1  -3  276.87    8.30
  -8  -1  -3  293.17    8.70
  -8  -1  -3  283.97    9.80
  -8  -1  -3  278.87    9.30
   8   1   3  258.97    8.50
   8   1   3  285.67   10.30
   8   1   3  282.67   17.20
   8   1   3  270.57    9.00
   8   1   3  263.37   15.50
   8   1   3  279.87    9.40
  -9  -1  -3   13.60    4.20
  -9  -1  -3   12.20    3.50
  -9  -1  -3    9.30    4.70
  -9  -1  -3    7.60    3.60
   9   1   3    9.90    4.20
   9   1   3   13.30    3.60
   9   1   3    9.10    8.50
   9   1   3    8.30    4.00
   9   1   3   12.80    4.90
 -10  -1  -3  221.28   10.10
 -10  -1  -3  219.08   11.00
  10   1   3  221.18   10.20
  10   1   3  209.88   18.90
  10   1   3  224.68   11.70
  10   1   3  220.08    9.20
  10   1   3  226.18    8.30
   8  -2  -3  183.58   17.30
   8  -2  -3  248.78   18.50
   8  -2  -3  238.38   18.20
   8  -2  -3  242.18   17.90
  -8   2   3  233.18   16.20
  -8   2   3  254.37   21.90
  -8   2   3  219.68   18.80
   7  -2  -3   28.20   10.40
   7  -2  -3   18.80   10.90
   7  -2  -3   33.10    8.70
   7  -2  -3   13.60    8.30
  -7   2   3    1.30    9.30
  -7   2   3   36.50    8.90
  -7   2   3   28.50   11.10
  -7   2   3    8.10    8.60
   6  -2  -3   13.20    8.70
   6  -2  -3    6.90    6.90
   6  -2  -3   13.10    6.90
   6  -2  -3   21.00    8.20
  -6   2   3   22.40    9.10
  -6   2   3    8.40    7.40
  -6   2   3   17.00    7.20
  -6   2   3   14.80    8.00
  -6   2   3   15.00    8.40
   5  -2  -3   88.89    9.90
   5  -2  -3   72.89    9.50
   5  -2  -3   86.89    9.00
   5  -2  -3   87.99    8.70
  -5   2   3   95.89    8.90
  -5   2   3   99.79    9.40
  -5   2   3   78.39    8.70
  -5   2   3   98.89   10.30
  -5   2   3   84.79   11.60
   4  -2  -3   45.10    6.10
   4  -2  -3   46.30    6.30
   4  -2  -3   55.19    7.50
   4  -2  -3   48.40    7.50
  -4   2   3   51.79    7.10
  -4   2   3   50.69    7.10
  -4   2   3   34.80    6.70
  -4   2   3   50.29    7.20
   3  -2  -3  338.57   13.70
   3  -2  -3  362.26   13.90
   3  -2  -3  341.37   13.40
   3  -2  -3  336.67   12.90
  -3   2   3  349.17   13.40
  -3   2   3  336.07   13.30
  -3   2   3  342.67   13.70
  -3   2   3  333.37   13.70
   2  -2  -3  891.11   24.10
   2  -2  -3  930.31   24.50
   2  -2  -3  880.51   24.30
   2  -2  -3  901.71   24.20
  -2   2   3  893.81   24.50
  -2   2   3  904.21   24.30
  -2   2   3  882.11   24.10
  -2   2   3  906.01   24.50
   1  -2  -3   20.60    3.90
   1  -2  -3   15.10    3.70
   1  -2  -3   12.40    3.40
   1  -2  -3   11.60    3.30
  -1   2   3   12.30    3.40
  -1   2   3   10.90    3.70
  -1   2   3   10.70    3.10
  -1   2   3   17.60    3.50
   0  -2  -3  522.25   14.70
   0  -2  -3  509.85   14.40
   0  -2  -3  513.85   14.80
   0  -2  -3  533.45   14.70
   0   2   3  526.85   14.90
   0   2   3  519.75   14.60
   0   2   3  504.85   14.40
   0   2   3  526.45   14.70
  -1  -2  -3 1473.05   34.20
  -1  -2  -3 1483.85   34.30
  -1  -2  -3 1485.05   34.30
  -1  -2  -3 1436.96   34.40
   1   2   3 1413.96   34.30
   1   2   3 1458.65   34.20
   1   2   3 1466.65   34.10
   1   2   3 1424.46   34.20
  -2  -2  -3 4812.92  106.19
  -2  -2  -3 4743.73  104.79
  -2  -2  -3 4711.43  104.79
  -2  -2  -3 4781.52  104.89
   2   2   3 4809.02  104.89
   2   2   3 4708.83  104.79
   2   2   3 4770.32  104.99
   2   2   3 4635.74  104.79
  -3  -2  -3 1021.40   24.50
  -3  -2  -3 1025.80   24.30
  -3  -2  -3 1031.20   24.50
  -3  -2  -3 1032.60   26.20
  -3  -2  -3 1027.40   24.30
   3   2   3 1035.20   24.70
   3   2   3 1026.40   26.40
   3   2   3 1025.20   24.50
   3   2   3 1028.30   24.40
   3   2   3 1025.90   24.30
  -4  -2  -3   19.50    2.50
  -4  -2  -3   18.90    3.80
  -4  -2  -3   25.30    2.80
  -4  -2  -3   23.10    2.70
   4   2   3   22.10    4.10
   4   2   3   21.60    2.80
   4   2   3   15.90    2.40
   4   2   3   23.30    2.90
   4   2   3   23.20    2.80
  -5  -2  -3  244.68    7.70
  -5  -2  -3  239.68    7.70
  -5  -2  -3  246.88    7.80
   5   2   3  229.78    8.00
   5   2   3  255.67   11.30
   5   2   3  252.57    8.10
   5   2   3  251.27    7.90
  -6  -2  -3 1139.49   27.30
  -6  -2  -3 1123.39   27.00
  -6  -2  -3 1171.88   27.30
  -6  -2  -3 1118.99   27.20
   6   2   3 1158.68   31.10
   6   2   3 1156.98   31.70
   6   2   3 1144.39   27.30
   6   2   3 1135.39   27.00
   6   2   3 1160.88   27.60
   6   2   3 1149.58   27.50
  -7  -2  -3  237.98    8.60
  -7  -2  -3  223.98    8.20
  -7  -2  -3  204.28    8.70
  -7  -2  -3  230.18    8.70
   7   2   3  211.28   13.30
   7   2   3  211.58    8.30
   7   2   3  215.78   12.50
   7   2   3  215.08    8.80
   7   2   3  228.88    9.10
   7   2   3  209.18    8.80
  -8  -2  -3   35.60    4.50
  -8  -2  -3   44.00    5.00
  -8  -2  -3   36.50    5.00
  -8  -2  -3   45.40    4.80
   8   2   3   44.10    8.90
   8   2   3   42.00    5.60
   8   2   3   26.20    7.60
   8   2   3   41.00    5.40
   8   2   3   33.80    4.70
   8   2   3   45.70    5.00
  -9  -2  -3   19.30    4.30
  -9  -2  -3   23.60    5.40
  -9  -2  -3   28.30    4.90
  -9  -2  -3   19.40    5.10
   9   2   3   16.00    4.80
   9   2   3   13.30    5.10
   9   2   3   16.50    5.60
   9   2   3   19.60    4.50
   9   2   3    5.00    7.50
 -10  -2  -3  115.69    9.30
 -10  -2  -3  112.79    9.00
 -10  -2  -3  119.59    7.90
  10   2   3  123.19   11.40
  10   2   3  127.19    9.60
  10   2   3  110.19    7.90
  10   2   3  123.69   12.60
  10   2   3  111.19    9.40
 -11  -2  -3  135.69   10.60
 -11  -2  -3  128.99    9.50
 -11  -2  -3  123.19    8.70
  11   2   3  128.69   12.20
  11   2   3  130.79   10.80
  11   2   3  132.29   10.20
  11   2   3  116.19    8.90
  11   2   3  134.19   13.90
  11   2   3  151.78   18.70
   8  -3  -3   63.89   12.10
   8  -3  -3   58.59   11.40
   8  -3  -3   59.89   15.30
   8  -3  -3   70.19   14.30
  -8   3   3   55.69   12.70
  -8   3   3   59.29   13.30
  -8   3   3   42.10   12.50
  -8   3   3   40.10   14.40
   7  -3  -3  564.94   23.00
   7  -3  -3  600.64   26.40
   7  -3  -3  568.84   23.30
   7  -3  -3  569.24   27.00
  -7   3   3  561.24   24.10
  -7   3   3  592.84   23.70
  -7   3   3  578.34   25.20
   6  -3  -3   41.40   10.20
   6  -3  -3   29.50    9.90
   6  -3  -3   27.20    7.60
   6  -3  -3   19.20    7.60
  -6   3   3   38.80    8.90
  -6   3   3   28.80    9.80
  -6   3   3   44.90    9.70
  -6   3   3   24.70    8.50
   5  -3  -3  635.64   22.10
   5  -3  -3  640.84   22.90
   5  -3  -3  616.34   21.50
   5  -3  -3  624.34   22.90
  -5   3   3  622.74   23.10
  -5   3   3  617.74   21.70
  -5   3   3  635.94   23.20
  -5   3   3  635.54   22.50
   4  -3  -3  572.74   19.10
   4  -3  -3  543.05   19.70
   4  -3  -3  533.75   18.40
   4  -3  -3  523.55   18.80
  -4   3   3  574.04   19.80
  -4   3   3  513.65   20.40
  -4   3   3  535.35   19.20
  -4   3   3  528.15   19.30
  -4   3   3  549.85   19.00
   3  -3  -3 5402.46  123.49
   3  -3  -3 5597.84  123.29
   3  -3  -3 5422.96  123.19
   3  -3  -3 5431.26  123.39
  -3   3   3 5436.36  123.39
  -3   3   3 5351.56  123.29
  -3   3   3 5413.76  123.19
  -3   3   3 5406.06  123.09
   2  -3  -3  416.56   14.10
   2  -3  -3  411.26   14.50
   2  -3  -3  393.96   14.20
   2  -3  -3  397.06   14.40
  -2   3   3  412.36   14.10
  -2   3   3  398.26   14.30
  -2   3   3  395.66   14.50
   1  -3  -3 1940.71   45.60
   1  -3  -3 1876.71   45.40
   1  -3  -3 1902.71   45.20
   1  -3  -3 1830.92   45.50
  -1   3   3 1868.31   45.60
  -1   3   3 1878.11   45.40
  -1   3   3 1871.31   45.40
  -1   3   3 1933.51   45.40
   0  -3  -3  137.09    7.60
   0  -3  -3  153.68    7.50
   0  -3  -3  139.39    7.40
   0  -3  -3  137.69    7.00
   0   3   3  147.29    7.40
   0   3   3  139.79    7.70
   0   3   3  132.59    7.20
   0   3   3  140.89    7.10
  -1  -3  -3 2202.58   51.49
  -1  -3  -3 2258.17   51.39
  -1  -3  -3 2200.18   51.09
  -1  -3  -3 2167.28   51.19
   1   3   3 2196.78   51.29
   1   3   3 2228.08   51.29
   1   3   3 2221.58   51.29
   1   3   3 2161.88   51.49
  -2  -3  -3  483.35   14.50
  -2  -3  -3  518.15   14.60
  -2  -3  -3  527.65   15.10
  -2  -3  -3  536.35   14.50
  -2  -3  -3  513.35   14.80
   2   3   3  495.95   14.40
   2   3   3  514.35   14.50
   2   3   3  512.65   14.80
   2   3   3  506.45   14.60
  -3  -3  -3 2188.18   49.90
  -3  -3  -3 2156.48   49.99
  -3  -3  -3 2188.28   50.79
  -3  -3  -3 2184.38   50.19
   3   3   3 2128.79   50.29
   3   3   3 2176.98   50.09
   3   3   3 2162.88   50.09
   3   3   3 2146.59   49.90
   3   3   3 2181.48   51.09
  -4  -3  -3 3700.73   83.49
  -4  -3  -3 3732.13   83.59
  -4  -3  -3 3762.22   85.09
  -4  -3  -3 3806.32   83.79
  -4  -3  -3 3819.32   83.79
   4   3   3 3803.52   83.79
   4   3   3 3701.83   83.39
   4   3   3 3597.84   83.89
   4   3   3 3657.93   85.19
   4   3   3 3698.73   83.89
  -5  -3  -3  724.33   19.20
  -5  -3  -3  717.73   18.90
  -5  -3  -3  717.93   19.00
  -5  -3  -3  727.83   18.90
   5   3   3  767.12   21.70
   5   3   3  755.92   19.30
   5   3   3  709.13   18.80
   5   3   3  702.73   19.10
   5   3   3  705.33   19.30
  -6  -3  -3   94.59    6.20
  -6  -3  -3   87.19    6.40
  -6  -3  -3   98.09    6.50
  -6  -3  -3   84.39    6.50
   6   3   3   82.49    6.10
   6   3   3   88.59    6.80
   6   3   3   93.79    6.50
   6   3   3   85.89    6.80
   6   3   3   88.69    8.20
  -7  -3  -3  328.37   11.60
  -7  -3  -3  312.27   14.20
  -7  -3  -3  328.27   11.60
  -7  -3  -3  343.47   11.40
   7   3   3  330.47   11.80
   7   3   3  315.47   11.50
   7   3   3  308.37   11.90
   7   3   3  321.37   11.40
   7   3   3  349.67   16.00
   7   3   3  348.07   14.90
  -8  -3  -3  109.09    8.30
  -8  -3  -3   98.99    8.30
  -8  -3  -3  102.09    9.30
   8   3   3   99.59    7.70
   8   3   3  111.39    8.30
   8   3   3   97.49    8.90
   8   3   3  105.39    9.80
   8   3   3  108.79    8.00
   8   3   3  117.99   11.70
  -9  -3  -3   49.90    6.30
  -9  -3  -3   60.89    6.70
  -9  -3  -3   42.70    6.70
   9   3   3   45.20    6.90
   9   3   3   58.69   10.90
   9   3   3   40.60    8.10
   9   3   3   36.90    7.20
 -10  -3  -3  440.66   15.50
 -10  -3  -3  442.46   15.90
 -10  -3  -3  438.86   16.80
  10   3   3  459.25   15.80
  10   3   3  427.16   30.80
  10   3   3  441.76   16.00
  10   3   3  441.86   16.60
  10   3   3  443.16   17.40
  10   3   3  444.46   20.10
 -11  -3  -3   27.60    6.60
 -11  -3  -3   18.90    7.80
 -11  -3  -3   17.90    7.20
 -11  -3  -3   16.00    7.40
  11   3   3   23.40   10.60
  11   3   3   12.90    8.70
  11   3   3   18.30    7.20
  11   3   3   31.30    8.10
  11   3   3    6.40   13.70
  11   3   3   31.40    8.00
   7  -4  -3  178.78   17.00
   7  -4  -3  149.88   14.10
   7  -4  -3  171.18   14.80
   7  -4  -3  215.88   17.80
  -7   4   3  186.78   17.90
  -7   4   3  146.49   14.80
  -7   4   3  170.88   15.00
  -7   4   3  165.98   19.00
  -7   4   3  164.48   15.10
   6  -4  -3   78.69   12.10
   6  -4  -3   66.89   10.10
   6  -4  -3   62.99   11.60
   6  -4  -3   73.19   10.50
  -6   4   3   57.19   10.50
  -6   4   3   62.99   10.30
  -6   4   3   67.89   11.20
   5  -4  -3 1168.38   33.70
   5  -4  -3 1081.29   32.40
   5  -4  -3 1133.29   33.20
   5  -4  -3 1093.09   33.60
  -5   4   3 1109.09   35.00
  -5   4   3 1071.69   33.40
  -5   4   3 1178.18   33.50
  -5   4   3 1132.19   33.00
  -5   4   3 1143.09   33.90
   4  -4  -3  380.76   16.40
   4  -4  -3  370.36   16.80
   4  -4  -3  356.46   16.70
   4  -4  -3  376.16   16.20
  -4   4   3  362.66   17.10
  -4   4   3  347.77   16.50
  -4   4   3  397.86   16.90
  -4   4   3  366.66   15.50
  -4   4   3  383.26   19.10
   3  -4  -3   28.40    6.20
   3  -4  -3   16.60    6.40
   3  -4  -3   17.60    5.70
   3  -4  -3   16.20    5.50
  -3   4   3   14.70    6.10
  -3   4   3   13.50    5.50
  -3   4   3   27.10    6.10
  -3   4   3   22.00    6.80
   2  -4  -3  500.95   17.30
   2  -4  -3  500.55   16.60
   2  -4  -3  493.65   17.00
   2  -4  -3  478.05   17.30
  -2   4   3  493.25   16.60
  -2   4   3  504.75   17.40
  -2   4   3  466.35   17.30
  -2   4   3  520.55   17.20
   1  -4  -3  981.00   27.50
   1  -4  -3 1013.90   26.90
   1  -4  -3 1014.20   27.40
   1  -4  -3  966.00   27.20
  -1   4   3 1011.40   27.00
  -1   4   3 1002.00   27.70
  -1   4   3 1014.70   27.50
  -1   4   3 1027.50   27.20
   0  -4  -3  836.22   23.50
   0  -4  -3  893.61   23.40
   0  -4  -3  878.91   23.70
   0  -4  -3  830.72   23.80
   0   4   3  861.71   23.50
   0   4   3  852.91   23.20
   0   4   3  847.12   23.70
   0   4   3  830.82   23.90
  -1  -4  -3  946.01   24.80
  -1  -4  -3  946.21   25.10
  -1  -4  -3  916.41   24.90
   1   4   3  943.21   24.90
   1   4   3  971.60   25.30
   1   4   3  933.61   25.00
   1   4   3  924.91   25.30
  -2  -4  -3  141.29    7.50
  -2  -4  -3  142.09    7.80
  -2  -4  -3  144.19    8.20
  -2  -4  -3  133.79    7.60
   2   4   3  148.89    7.30
   2   4   3  136.09    7.50
   2   4   3  134.49    7.90
   2   4   3  139.39    7.80
  -3  -4  -3  411.36   12.90
  -3  -4  -3  402.96   12.90
  -3  -4  -3  410.86   13.60
  -3  -4  -3  404.46   13.00
  -3  -4  -3  395.26   13.30
   3   4   3  389.56   13.30
   3   4   3  419.86   13.00
   3   4   3  401.66   13.10
   3   4   3  391.56   13.50
  -4  -4  -3  705.03   19.90
  -4  -4  -3  732.43   19.60
  -4  -4  -3  707.73   19.60
  -4  -4  -3  682.13   22.70
  -4  -4  -3  724.63   20.00
   4   4   3  710.53   20.40
   4   4   3  705.43   19.80
   4   4   3  695.03   19.80
   4   4   3  739.53   19.60
   4   4   3  717.33   20.20
  -5  -4  -3  362.86   12.60
  -5  -4  -3  346.57   12.30
  -5  -4  -3  383.06   12.50
  -5  -4  -3  353.16   12.20
   5   4   3  367.56   12.70
   5   4   3  364.86   13.90
   5   4   3  370.86   12.90
   5   4   3  361.36   12.60
   5   4   3  354.06   12.10
  -6  -4  -3  467.35   14.80
  -6  -4  -3  472.65   14.70
  -6  -4  -3  462.15   14.80
  -6  -4  -3  435.96   14.50
   6   4   3  455.75   15.00
   6   4   3  440.46   14.90
   6   4   3  461.75   17.00
   6   4   3  434.76   14.60
   6   4   3  462.65   14.60
  -7  -4  -3  947.11   25.20
  -7  -4  -3  929.51   25.10
  -7  -4  -3  924.51   25.20
  -7  -4  -3  932.11   25.20
   7   4   3  963.70   28.60
   7   4   3  938.01   25.10
   7   4   3  903.21   25.50
   7   4   3  941.61   25.40
   7   4   3  931.71   25.10
  -8  -4  -3 1652.03   41.00
  -8  -4  -3 1695.93   41.00
  -8  -4  -3 1689.63   40.80
  -8  -4  -3 1614.74   40.80
   8   4   3 1657.83   40.90
   8   4   3 1654.83   41.40
   8   4   3 1611.54   45.00
   8   4   3 1645.54   41.10
   8   4   3 1658.63   40.70
  -9  -4  -3    7.80    5.70
  -9  -4  -3    0.20    6.30
  -9  -4  -3   16.10    7.00
  -9  -4  -3    6.70    6.60
   9   4   3   -2.90    8.40
   9   4   3   12.90    7.20
   9   4   3   23.40    6.60
   9   4   3   18.00    6.60
   9   4   3   19.60    6.50
   9   4   3    8.30    5.70
 -10  -4  -3  364.46   16.70
 -10  -4  -3  389.46   16.60
 -10  -4  -3  364.86   17.40
  10   4   3  349.87   16.70
  10   4   3  387.76   17.10
  10   4   3  399.56   16.40
  10   4   3  407.26   18.40
  10   4   3  377.96   17.30
 -11  -4  -3   -1.00    8.40
 -11  -4  -3    3.50    7.80
 -11  -4  -3   -1.90    7.70
  11   4   3    2.00    7.80
  11   4   3  -18.60   13.90
  11   4   3    4.00    8.60
  11   4   3    6.30    9.30
  11   4   3    7.80    8.50
   7  -5  -3   46.60   12.70
   7  -5  -3   40.80   12.00
   7  -5  -3   57.19   15.20
   7  -5  -3   51.79   14.50
  -7   5   3   22.30   13.50
  -7   5   3   23.40   15.10
  -7   5   3   84.09   13.80
  -7   5   3   43.20   11.70
  -7   5   3   52.19   13.80
   6  -5  -3  294.17   18.90
   6  -5  -3  274.57   18.90
   6  -5  -3  293.27   20.20
   6  -5  -3  266.37   20.70
  -6   5   3  285.97   21.60
  -6   5   3  277.17   19.10
  -6   5   3  279.67   22.40
   5  -5  -3  290.57   17.70
   5  -5  -3  281.37   16.70
   5  -5  -3  286.87   18.40
   5  -5  -3  269.47   17.10
  -5   5   3  317.37   20.40
  -5   5   3  244.28   18.40
  -5   5   3  274.57   17.20
  -5   5   3  258.57   17.50
   4  -5  -3  209.28   14.30
   4  -5  -3  219.38   14.70
   4  -5  -3  241.68   15.30
   4  -5  -3  218.08   15.10
  -4   5   3  210.78   15.80
  -4   5   3  216.28   14.70
  -4   5   3  248.68   14.30
  -4   5   3  219.08   17.10
  -4   5   3  235.78   14.70
   3  -5  -3  718.53   22.50
   3  -5  -3  656.53   22.70
   3  -5  -3  671.93   22.40
   3  -5  -3  667.43   22.90
  -3   5   3  691.53   22.00
  -3   5   3  653.83   22.30
  -3   5   3  529.25   24.00
  -3   5   3  645.64   22.90
   2  -5  -3   -0.90    5.20
   2  -5  -3    0.30    5.40
   2  -5  -3    7.50    5.10
   2  -5  -3    0.90    4.50
  -2   5   3    0.80    5.40
  -2   5   3    2.60    4.90
  -2   5   3    3.30    5.80
  -2   5   3    5.10    5.50
   1  -5  -3   53.49    6.40
   1  -5  -3   41.80    6.30
   1  -5  -3   60.69    7.20
   1  -5  -3   48.50    6.60
  -1   5   3   33.50    6.60
  -1   5   3   48.30    6.40
  -1   5   3   50.39    6.10
  -1   5   3   41.30    6.60
   0  -5  -3  758.12   21.90
   0  -5  -3  733.53   22.60
   0  -5  -3  744.53   22.10
   0  -5  -3  723.63   22.10
   0   5   3  721.43   22.20
   0   5   3  741.73   22.00
   0   5   3  749.53   21.60
   0   5   3  683.73   22.30
  -1  -5  -3   44.90    6.00
  -1  -5  -3   60.79    6.50
  -1  -5  -3   48.80    6.10
  -1  -5  -3   50.89    6.50
   1   5   3   48.50    6.30
   1   5   3   43.50    6.00
   1   5   3   64.69    6.70
   1   5   3   54.69    5.90
  -2  -5  -3   72.59    6.80
  -2  -5  -3   81.59    7.10
  -2  -5  -3   75.29    6.50
  -2  -5  -3   83.59    7.50
   2   5   3   84.29    7.30
   2   5   3   92.69    7.60
   2   5   3   83.29    7.70
   2   5   3   78.19    7.00
  -3  -5  -3 1756.12   43.10
  -3  -5  -3 1759.62   41.50
  -3  -5  -3 1722.63   42.60
  -3  -5  -3 1724.13   42.90
  -3  -5  -3 1734.63   43.30
   3   5   3 1766.72   43.50
   3   5   3 1742.53   42.60
   3   5   3 1708.83   42.80
   3   5   3 1736.93   43.10
  -4  -5  -3  967.00   26.40
  -4  -5  -3 1000.00   26.20
  -4  -5  -3  967.10   26.20
  -4  -5  -3  948.71   25.40
  -4  -5  -3  983.00   26.80
   4   5   3  955.00   26.30
   4   5   3  949.01   26.80
   4   5   3  929.61   26.20
   4   5   3  982.80   26.10
   4   5   3  983.00   26.00
  -5  -5  -3   56.99    6.20
  -5  -5  -3   65.19    6.80
  -5  -5  -3   57.29    6.30
  -5  -5  -3   51.99    6.50
   5   5   3   59.79    6.20
   5   5   3   57.59    6.90
   5   5   3   64.59    6.60
   5   5   3   55.79    6.00
   5   5   3   66.69    6.80
  -6  -5  -3   71.59    7.30
  -6  -5  -3   76.09    7.00
  -6  -5  -3   64.99    6.60
   6   5   3   59.19    6.50
   6   5   3   67.89    7.20
   6   5   3   67.79    7.00
   6   5   3   64.79    7.40
   6   5   3   71.09    7.20
  -7  -5  -3  597.04   19.30
  -7  -5  -3  537.95   22.20
  -7  -5  -3  603.44   19.20
  -7  -5  -3  612.64   19.40
   7   5   3  601.74   19.10
   7   5   3  624.64   19.30
   7   5   3  576.34   19.70
   7   5   3  608.54   19.50
   7   5   3  613.04   21.50
  -8  -5  -3  427.46   16.20
  -8  -5  -3  421.16   16.20
  -8  -5  -3  394.36   16.10
  -8  -5  -3  434.36   18.70
   8   5   3  410.66   16.90
   8   5   3  429.16   16.80
   8   5   3  424.36   16.00
   8   5   3  405.86   15.70
   8   5   3  401.36   19.20
  -9  -5  -3  122.89   11.20
  -9  -5  -3  101.99    9.60
  -9  -5  -3  120.29   10.20
  -9  -5  -3  112.29    9.80
   9   5   3  111.99    9.40
   9   5   3  120.49    9.70
   9   5   3  108.39   12.90
   9   5   3  103.69    9.80
   9   5   3  115.79   10.00
 -10  -5  -3  289.07   16.60
 -10  -5  -3  317.27   16.60
 -10  -5  -3  292.27   16.40
  10   5   3  291.17   15.60
  10   5   3  280.37   16.00
  10   5   3  288.37   17.00
  10   5   3  283.17   16.80
  10   5   3  288.47   16.10
 -11  -5  -3    8.10   10.00
 -11  -5  -3   -4.80    9.40
 -11  -5  -3    7.60   10.00
 -11  -5  -3    5.90    8.90
  11   5   3    9.90    8.50
  11   5   3   13.00    9.60
  11   5   3   10.10    9.40
  11   5   3    7.40    8.90
  11   5   3   -0.10    9.10
  11   5   3   -1.90   13.80
   6  -6  -3   44.10   11.50
   6  -6  -3   45.10   13.50
   6  -6  -3   62.39   14.00
   6  -6  -3   50.79   12.50
  -6   6   3   55.49   13.70
  -6   6   3   71.39   14.50
  -6   6   3   41.30   12.80
  -6   6   3   41.30   13.30
  -6   6   3   55.79   11.70
   5  -6  -3  154.38   14.60
   5  -6  -3  157.58   14.00
   5  -6  -3  123.39   13.00
   5  -6  -3  160.08   14.20
  -5   6   3  137.09   13.50
  -5   6   3  152.68   14.70
  -5   6   3  135.59   13.80
  -5   6   3  131.19   13.30
   4  -6  -3   13.50    8.80
   4  -6  -3    9.70    7.90
   4  -6  -3    5.20    7.70
   4  -6  -3   -0.60    7.50
  -4   6   3    5.50    7.80
  -4   6   3   -2.00    8.00
  -4   6   3    1.80    8.80
  -4   6   3   -4.20    7.40
  -4   6   3    6.40   10.30
   3  -6  -3  120.79   18.20
   3  -6  -3   85.99    9.50
   3  -6  -3   82.89   10.20
   3  -6  -3   84.09    9.60
  -3   6   3   87.59    9.80
  -3   6   3   78.39   10.40
  -3   6   3   80.09    9.70
  -3   6   3   53.39    8.80
  -3   6   3   88.89   12.50
   2  -6  -3  660.83   22.60
   2  -6  -3  629.64   21.50
   2  -6  -3  610.94   21.90
   2  -6  -3  651.23   22.50
  -2   6   3  617.54   22.10
  -2   6   3  623.34   23.00
  -2   6   3  553.84   30.40
  -2   6   3  630.54   21.50
   1  -6  -3 2095.69   51.69
   1  -6  -3 2033.80   51.49
   1  -6  -3 2045.30   50.89
   1  -6  -3 1968.00   51.59
  -1   6   3 2029.40   52.19
  -1   6   3 2052.69   50.89
  -1   6   3 2011.00   51.49
  -1   6   3 1978.00   50.89
   0  -6  -3  101.39    9.20
   0  -6  -3  107.99    9.50
   0  -6  -3  113.19   10.40
   0  -6  -3  104.49    9.50
   0   6   3  136.39   11.80
   0   6   3  121.09   10.30
   0   6   3  100.79    8.60
   0   6   3  123.19    9.40
  -1  -6  -3 3579.74   83.49
  -1  -6  -3 3544.35   82.79
  -1  -6  -3 3601.34   83.29
  -1  -6  -3 3599.44   83.89
   1   6   3 3539.45   83.19
   1   6   3 3476.75   82.69
   1   6   3 3443.06   83.29
   1   6   3 3526.05   83.89
  -2  -6  -3  133.79   10.00
  -2  -6  -3  162.08   11.20
  -2  -6  -3  128.39    9.90
  -2  -6  -3  155.58    9.40
   2   6   3  148.79    9.80
   2   6   3  132.89   10.90
   2   6   3  118.59    9.90
   2   6   3  125.79    9.90
  -3  -6  -3 1667.33   43.10
  -3  -6  -3 1706.33   42.90
  -3  -6  -3 1642.24   42.00
  -3  -6  -3 1686.83   42.50
  -3  -6  -3 1684.23   39.90
   3   6   3 1669.03   42.10
   3   6   3 1664.73   42.40
   3   6   3 1587.84   42.50
   3   6   3 1675.03   43.00
  -4  -6  -3   13.20    5.60
  -4  -6  -3   13.50    4.90
  -4  -6  -3   13.40    5.00
  -4  -6  -3   14.20    4.10
  -4  -6  -3   10.20    5.40
   4   6   3    8.80    5.10
   4   6   3    9.80    4.90
   4   6   3   10.70    5.10
   4   6   3   15.90    5.90
  -5  -6  -3 4154.28   96.09
  -5  -6  -3 4172.48   96.39
  -5  -6  -3 4071.29   95.69
  -5  -6  -3 4164.08   95.79
   5   6   3 4124.29   95.99
   5   6   3 4227.98   95.19
   5   6   3 4154.48   96.09
   5   6   3 4054.49   96.29
   5   6   3 4156.18   95.49
  -6  -6  -3 2392.46   58.59
  -6  -6  -3 2404.66   58.29
  -6  -6  -3 2377.56   58.19
  -6  -6  -3 2433.46   58.39
   6   6   3 2391.26   58.09
   6   6   3 2430.46   58.19
   6   6   3 2357.36   58.39
   6   6   3 2361.16   58.59
   6   6   3 2333.87   58.19
  -7  -6  -3   80.19    8.20
  -7  -6  -3   87.79    8.70
   7   6   3   89.09    9.00
   7   6   3   88.79    9.20
   7   6   3   84.89    8.80
   7   6   3   80.09    8.90
   7   6   3   81.79    9.00
  -8  -6  -3  146.99   12.00
  -8  -6  -3  154.98   12.00
  -8  -6  -3  158.28   12.40
  -8  -6  -3  150.38   12.10
   8   6   3  127.39   12.20
   8   6   3  156.98   12.20
   8   6   3  112.99   19.30
   8   6   3  155.28   13.10
   8   6   3  147.09   12.00
  -9  -6  -3  282.57   16.10
  -9  -6  -3  319.87   16.30
  -9  -6  -3  294.67   15.50
  -9  -6  -3  290.77   16.20
   9   6   3  268.07   15.50
   9   6   3  279.17   19.00
   9   6   3  286.97   15.60
   9   6   3  285.57   16.60
   9   6   3  274.77   15.50
 -10  -6  -3  138.39   12.20
 -10  -6  -3  102.29   12.80
 -10  -6  -3  118.19   11.60
 -10  -6  -3  123.49   11.80
  10   6   3  106.19   10.80
  10   6   3  135.79   12.20
  10   6   3  135.19   11.90
  10   6   3  117.59   12.00
 -11  -6  -3   10.30   10.00
 -11  -6  -3    7.50   10.40
 -11  -6  -3   -0.30   10.30
  11   6   3    6.60   10.00
  11   6   3   -0.30    9.40
  11   6   3    6.40    9.90
  11   6   3   -1.40    9.40
  11   6   3    6.70   14.70
  11   6   3    7.30   10.40
   5  -7  -3   25.20   11.50
   5  -7  -3   10.30   11.50
   5  -7  -3    9.80   11.20
   5  -7  -3    4.70   10.80
  -5   7   3    8.50   11.80
  -5   7   3   -9.90   10.90
  -5   7   3   22.90   11.70
  -5   7   3    6.20    9.80
  -5   7   3    9.30   14.50
   4  -7  -3  313.27   19.80
   4  -7  -3  316.97   19.90
   4  -7  -3  284.77   20.30
   4  -7  -3  279.07   18.50
  -4   7   3  295.77   19.40
  -4   7   3  260.97   21.60
  -4   7   3  291.67   18.40
  -4   7   3  262.27   19.10
  -4   7   3  304.07   24.40
   3  -7  -3  671.93   24.50
   3  -7  -3  683.53   25.90
   3  -7  -3  652.13   25.70
   3  -7  -3  658.23   25.10
  -3   7   3  683.23   27.20
  -3   7   3  649.64   31.50
  -3   7   3  689.63   25.30
  -3   7   3  640.54   24.60
   2  -7  -3   57.29   11.50
   2  -7  -3   75.59    9.40
   2  -7  -3   76.69   10.10
   2  -7  -3   62.59    9.40
  -2   7   3   58.69    8.70
  -2   7   3   60.49   10.40
  -2   7   3   57.19    8.90
  -2   7   3   57.69    9.90
   1  -7  -3   13.80    7.30
   1  -7  -3   36.80    8.60
   1  -7  -3   32.90    8.10
   1  -7  -3   30.40    7.90
  -1   7   3   20.50    7.20
  -1   7   3   22.10    6.50
  -1   7   3   29.70    8.70
   0  -7  -3  458.55   17.80
   0  -7  -3  407.76   18.20
   0  -7  -3  433.86   18.20
   0  -7  -3  413.36   18.00
   0   7   3  443.66   18.20
   0   7   3  384.66   18.90
   0   7   3  390.56   25.60
   0   7   3  431.96   18.20
  -1  -7  -3 1508.25   40.80
  -1  -7  -3 1514.85   40.90
  -1  -7  -3 1471.85   40.20
  -1  -7  -3 1504.45   41.70
   1   7   3 1568.94   42.00
   1   7   3 1567.14   40.90
   1   7   3 1526.75   40.40
   1   7   3 1494.55   41.10
  -2  -7  -3   16.10    6.50
  -2  -7  -3   29.40    7.20
  -2  -7  -3   16.80    6.70
  -2  -7  -3   17.40    6.10
   2   7   3   11.90    5.20
   2   7   3   13.80    5.50
   2   7   3    8.60    6.70
   2   7   3   13.90    5.70
  -3  -7  -3  879.61   27.40
  -3  -7  -3  875.01   26.90
  -3  -7  -3  911.61   26.60
  -3  -7  -3  870.11   23.20
  -3  -7  -3  922.21   28.00
   3   7   3  902.11   27.30
   3   7   3  879.51   28.00
   3   7   3  878.91   26.50
   3   7   3  881.11   27.10
  -4  -7  -3  120.79   10.10
  -4  -7  -3   83.39    9.10
  -4  -7  -3   88.89    9.20
  -4  -7  -3   83.99    8.40
  -4  -7  -3   93.09    7.70
   4   7   3   85.69    8.90
   4   7   3   88.89    9.40
   4   7   3   89.79    8.70
   4   7   3   98.49    9.10
  -5  -7  -3   -1.70    6.40
  -5  -7  -3    1.80    5.30
  -5  -7  -3    0.40    5.80
  -5  -7  -3    0.70    5.70
   5   7   3    9.40    5.40
   5   7   3   11.10    5.80
   5   7   3   -3.30    5.70
   5   7   3    9.40    6.30
  -6  -7  -3   81.69   10.90
  -6  -7  -3   88.29    9.70
  -6  -7  -3  101.49   10.00
  -6  -7  -3  121.69   10.20
   6   7   3   98.59   10.10
   6   7   3  110.19    8.90
   6   7   3  110.39   10.20
   6   7   3   77.99    8.80
   6   7   3   99.99    9.80
  -7  -7  -3   61.29    8.60
  -7  -7  -3   74.89    9.60
  -7  -7  -3   61.09    9.30
  -7  -7  -3   54.59    8.40
   7   7   3   77.89    9.50
   7   7   3   58.09    8.60
   7   7   3   70.59    9.10
   7   7   3   76.69    9.30
   7   7   3   71.29    8.90
  -8  -7  -3  116.89   10.60
  -8  -7  -3  120.89   11.10
   8   7   3  106.09   11.40
   8   7   3  109.59   10.60
   8   7   3   92.89   10.40
   8   7   3  101.09   10.20
   8   7   3  101.09   10.80
  -9  -7  -3  178.38   13.60
  -9  -7  -3  216.08   16.10
  -9  -7  -3  216.68   15.70
   9   7   3  198.98   15.40
   9   7   3  223.28   17.60
   9   7   3  241.58   15.40
   9   7   3  247.08   16.10
   9   7   3  202.08   15.40
 -10  -7  -3   96.39   12.50
 -10  -7  -3   99.99   12.10
 -10  -7  -3   91.69   11.70
  10   7   3   79.49   12.20
  10   7   3  111.59   12.20
  10   7   3  101.89   11.60
  10   7   3   98.39   14.20
  10   7   3  113.19   11.90
 -11  -7  -3  -11.20   10.30
 -11  -7  -3   24.60   11.70
 -11  -7  -3   18.20   10.90
 -11  -7  -3   12.90   10.50
  11   7   3   17.20   11.60
  11   7   3   14.90   14.40
  11   7   3   -0.20   10.20
  11   7   3    8.60   10.30
  11   7   3    0.80   11.00
  11   7   3    2.00   10.10
   4  -8  -3  312.77   22.00
   4  -8  -3  338.77   24.00
   4  -8  -3  299.37   23.20
  -4   8   3  295.87   21.80
  -4   8   3  275.37   21.60
  -4   8   3  312.87   24.60
  -4   8   3  337.47   29.10
  -4   8   3  325.47   22.70
   3  -8  -3  102.09   13.50
   3  -8  -3  101.49   13.10
   3  -8  -3  101.09   13.00
   3  -8  -3   82.89   12.30
  -3   8   3   98.19   14.70
  -3   8   3   82.89   12.70
  -3   8   3  109.49   13.40
  -3   8   3   96.79   16.90
   2  -8  -3 1160.68   34.70
   2  -8  -3 1100.59   34.90
   2  -8  -3 1177.58   35.90
   2  -8  -3 1108.29   36.40
  -2   8   3 1112.99   35.00
  -2   8   3 1121.29   37.00
  -2   8   3 1149.58   41.60
  -2   8   3 1117.69   35.40
   1  -8  -3 1350.06   39.80
   1  -8  -3 1443.16   41.00
   1  -8  -3 1375.66   41.00
  -1   8   3 1446.86   40.60
  -1   8   3 1363.46   40.60
  -1   8   3 1503.45   44.70
  -1   8   3 1441.46   42.70
   0  -8  -3  104.49   11.10
   0  -8  -3   85.09   10.10
   0  -8  -3   79.09   10.30
   0   8   3   91.79   10.90
   0   8   3   71.39    9.20
   0   8   3   94.29   12.40
   0   8   3   67.59   10.40
  -1  -8  -3  377.16   18.70
  -1  -8  -3  391.26   17.70
  -1  -8  -3  407.46   18.60
  -1  -8  -3  394.66   18.80
   1   8   3  379.86   18.20
   1   8   3  367.56   17.40
   1   8   3  386.26   19.70
   1   8   3  371.16   18.00
  -2  -8  -3  425.76   18.00
  -2  -8  -3  411.26   18.40
  -2  -8  -3  414.96   14.00
  -2  -8  -3  412.96   18.40
  -2  -8  -3  437.36   20.00
   2   8   3  440.66   18.80
   2   8   3  396.86   18.40
   2   8   3  423.26   17.60
   2   8   3  436.36   20.00
  -3  -8  -3 1222.98   34.90
  -3  -8  -3 1146.09   35.00
  -3  -8  -3 1168.58   29.10
  -3  -8  -3  998.50   41.80
  -3  -8  -3 1219.08   34.40
   3   8   3 1209.98   34.40
   3   8   3 1201.48   33.90
   3   8   3 1128.69   35.20
   3   8   3 1172.68   34.70
  -4  -8  -3   64.79    9.90
  -4  -8  -3  100.59   10.20
  -4  -8  -3   81.49    9.90
  -4  -8  -3  104.99   10.00
  -4  -8  -3   87.39    6.60
   4   8   3   86.89    9.30
   4   8   3   84.89    9.90
   4   8   3   99.69   10.60
   4   8   3   84.79   10.10
  -5  -8  -3   14.90    7.10
  -5  -8  -3   19.10    7.90
  -5  -8  -3   22.90    7.50
   5   8   3   22.20    8.00
   5   8   3   25.70    7.70
   5   8   3   25.10    7.20
  -6  -8  -3   35.20    8.80
  -6  -8  -3   26.50    7.50
  -6  -8  -3   44.40    8.80
  -6  -8  -3   28.60    8.40
   6   8   3   27.40    8.10
   6   8   3   38.80    8.30
   6   8   3   32.20    7.80
  -7  -8  -3   65.29    9.40
  -7  -8  -3   69.09   11.00
  -7  -8  -3   94.69   11.00
  -7  -8  -3   67.79   10.00
   7   8   3   63.69    9.80
   7   8   3   84.99   10.30
   7   8   3   79.79    9.20
   7   8   3   73.59   10.20
   7   8   3   66.89   10.20
  -8  -8  -3   28.20    9.60
  -8  -8  -3   11.60    9.20
  -8  -8  -3   25.40    9.10
  -8  -8  -3   31.30    9.20
   8   8   3   42.90    9.40
   8   8   3   30.50    9.40
   8   8   3   29.40    9.30
   8   8   3   26.40    9.00
   8   8   3   43.00    9.30
  -9  -8  -3  160.78   14.80
  -9  -8  -3  161.88   14.10
   9   8   3  176.48   14.20
   9   8   3  154.78   14.50
   9   8   3  160.98   13.60
   9   8   3  175.78   14.20
   9   8   3  171.88   15.10
 -10  -8  -3   17.20   11.10
 -10  -8  -3   23.70   10.80
  10   8   3   30.50   11.70
  10   8   3   23.80   10.20
  10   8   3   10.60   12.80
  10   8   3   20.90   10.10
  10   8   3   34.20   11.00
   3  -9  -3    8.60   11.60
   3  -9  -3   13.60   12.20
   3  -9  -3  -11.90   11.80
   3  -9  -3    9.50   12.10
  -3   9   3   16.10   13.80
  -3   9   3   -0.40   15.90
  -3   9   3   15.30   12.40
  -3   9   3    4.20   13.90
  -3   9   3  -16.70   11.40
   2  -9  -3   22.90   11.30
   2  -9  -3   27.90   11.60
   2  -9  -3   36.60   11.20
   2  -9  -3   33.90   11.00
  -2   9   3   26.30   12.60
  -2   9   3   27.40   10.90
  -2   9   3   24.20   11.70
  -2   9   3    4.50   14.50
   1  -9  -3    9.20    9.30
   1  -9  -3    0.80   10.60
   1  -9  -3    2.00    9.00
   1  -9  -3   13.50   10.20
  -1   9   3   -0.10   11.20
  -1   9   3   12.90    9.90
  -1   9   3   -4.20    9.30
   0  -9  -3   14.50    9.10
   0  -9  -3   18.40    8.90
   0  -9  -3   12.20   11.20
   0  -9  -3   16.40    9.20
   0   9   3    5.00    9.50
   0   9   3   19.00   10.70
   0   9   3   22.80    8.60
   0   9   3    5.60    9.10
  -1  -9  -3   -0.70    8.40
  -1  -9  -3   11.60    8.50
  -1  -9  -3   -0.20    8.30
  -1  -9  -3   -4.10    8.30
   1   9   3   19.80    8.90
   1   9   3    3.50    8.10
   1   9   3   17.30    8.90
   1   9   3   -5.30    8.60
  -2  -9  -3  377.76   19.40
  -2  -9  -3  391.46   19.80
  -2  -9  -3  378.66   20.40
  -2  -9  -3  358.26   12.60
   2   9   3  365.66   19.30
   2   9   3  327.57   19.50
   2   9   3  394.36   18.40
   2   9   3  387.56   20.80
  -3  -9  -3  390.26   19.80
  -3  -9  -3  383.16   20.70
  -3  -9  -3  376.96   19.30
  -3  -9  -3  425.16   19.10
  -3  -9  -3  388.26   12.60
   3   9   3  410.66   19.90
   3   9   3  371.06   20.80
   3   9   3  380.36   18.60
   3   9   3  371.76   20.30
  -4  -9  -3    8.80    8.20
  -4  -9  -3    1.70    7.70
  -4  -9  -3    5.80    8.90
   4   9   3   -9.00    7.80
   4   9   3    8.80    8.70
   4   9   3   -4.30    7.30
  -5  -9  -3   25.20    9.10
  -5  -9  -3   41.70    8.80
  -5  -9  -3   45.60   10.50
  -5  -9  -3   60.59   10.50
   5   9   3   62.49   10.20
   5   9   3   39.40    9.10
   5   9   3   33.40    9.30
   5   9   3   61.19   10.80
  -6  -9  -3  228.28   18.70
  -6  -9  -3  243.18   17.40
  -6  -9  -3  235.98   16.50
   6   9   3  193.58   17.60
   6   9   3  230.78   17.50
   6   9   3  195.28   15.60
   6   9   3  260.27   17.20
  -7  -9  -3 1395.96   42.70
  -7  -9  -3 1384.46   41.60
  -7  -9  -3 1430.96   41.30
   7   9   3 1419.36   42.30
   7   9   3 1451.55   42.40
   7   9   3 1408.16   41.60
   7   9   3 1443.66   41.20
  -8  -9  -3   81.39   12.30
  -8  -9  -3   83.89   10.80
  -8  -9  -3   89.29   12.90
   8   9   3   72.09   11.90
   8   9   3   76.79   11.80
   8   9   3   66.89   10.70
   8   9   3   72.99   12.10
   8   9   3  102.09   12.40
  -9  -9  -3  665.53   27.40
  -9  -9  -3  628.64   25.80
  -9  -9  -3  638.14   27.60
  -9  -9  -3  642.74   27.90
   9   9   3  610.94   26.90
   9   9   3  669.63   27.20
   9   9   3  622.24   26.70
   9   9   3  664.93   27.00
   9   9   3  634.84   28.30
 -10  -9  -3   13.20   12.30
 -10  -9  -3   21.90   12.20
 -10  -9  -3   -5.40   11.00
 -10  -9  -3   29.80   12.70
  10   9   3   27.10   13.30
  10   9   3   24.50   12.00
  10   9   3   13.20   13.00
  10   9   3   43.70   12.00
  10   9   3   37.00   11.60
   2 -10  -3   33.20   13.50
   2 -10  -3   46.00   14.20
   2 -10  -3   29.60   13.30
   2 -10  -3   28.80   13.30
  -2  10   3   37.70   14.70
  -2  10   3   44.10   13.60
  -2  10   3   19.40   12.60
  -2  10   3   33.50   17.80
  -2  10   3   45.80   14.30
   1 -10  -3   13.10   11.50
   1 -10  -3   17.90   11.80
   1 -10  -3   -2.60   11.90
   1 -10  -3   34.30   11.90
  -1  10   3    0.50   15.20
  -1  10   3   22.10   12.40
  -1  10   3    4.60   10.40
  -1  10   3   -3.60   12.70
  -1  10   3    9.10   11.80
   0 -10  -3   20.00   11.30
   0 -10  -3    1.00   10.80
   0 -10  -3   17.50   11.80
   0 -10  -3   -1.90   10.00
   0  10   3   17.90   10.30
   0  10   3   21.80   10.80
   0  10   3    5.10   10.70
   0  10   3    5.90   12.00
  -1 -10  -3   38.00   10.70
  -1 -10  -3   28.30   10.80
  -1 -10  -3   19.20   10.70
  -1 -10  -3   32.90   11.20
   1  10   3   20.40   10.90
   1  10   3   22.10   11.30
   1  10   3   27.10   10.80
   1  10   3   59.69   11.50
  -2 -10  -3  130.99   15.30
  -2 -10  -3  126.49    8.10
  -2 -10  -3  102.49   13.40
  -2 -10  -3  141.19   14.30
  -2 -10  -3  144.19   13.90
   2  10   3  131.09   14.10
   2  10   3   95.69   13.30
   2  10   3  136.19   13.10
   2  10   3  117.99   13.70
  -3 -10  -3    2.90    9.20
  -3 -10  -3    7.90   11.10
  -3 -10  -3   18.90    9.60
  -3 -10  -3    8.70    9.70
   3  10   3   31.90   13.80
   3  10   3   18.20   10.20
   3  10   3   -4.80    9.40
   3  10   3   12.60    9.40
  -4 -10  -3  484.35   23.30
  -4 -10  -3  489.45   23.80
  -4 -10  -3  495.15   22.70
  -4 -10  -3  465.45   23.90
   4  10   3  476.95   23.20
   4  10   3  548.35   25.80
   4  10   3  487.45   23.40
   4  10   3  506.05   24.30
  -5 -10  -3  421.06   22.90
  -5 -10  -3  427.16   22.00
  -5 -10  -3  425.66   24.30
   5  10   3  375.06   25.80
   5  10   3  388.76   21.50
   5  10   3  398.76   22.10
   5  10   3  396.06   22.00
  -6 -10  -3   17.10    9.60
  -6 -10  -3   13.70   10.00
  -6 -10  -3   24.30   11.50
   6  10   3   14.20   10.30
   6  10   3    5.20    9.40
   6  10   3   13.30    9.80
   6  10   3    2.70    9.70
  -7 -10  -3   34.30   11.60
  -7 -10  -3   13.60   10.80
  -7 -10  -3   38.70   12.20
   7  10   3    4.70   11.40
   7  10   3   10.20   10.40
   7  10   3   19.50   10.60
   7  10   3   20.70   10.60
  -8 -10  -3  276.07   22.20
  -8 -10  -3  251.47   24.10
  -8 -10  -3  241.28   20.60
   8  10   3  260.57   21.70
   8  10   3  251.17   20.70
   8  10   3  265.17   23.00
   8  10   3  258.57   24.10
  -9 -10  -3  390.46   26.00
  -9 -10  -3  411.26   26.30
  -9 -10  -3  390.26   24.30
  -9 -10  -3  362.56   22.90
   9  10   3  385.76   22.40
   9  10   3  395.06   28.70
   9  10   3  369.36   24.50
   9  10   3  426.76   24.10
   9  10   3  391.16   27.00
   0 -11  -3  959.40   37.80
   0 -11  -3  972.40   38.50
   0 -11  -3  978.30   35.90
   0 -11  -3  935.61   36.70
   0  11   3  995.80   37.90
   0  11   3 1037.50   37.60
   0  11   3  991.60   37.30
   0  11   3  962.70   44.00
  -1 -11  -3  238.18   20.00
  -1 -11  -3  263.67   22.80
  -1 -11  -3  267.27   23.60
  -1 -11  -3  241.28   23.00
  -1 -11  -3  232.78   10.30
   1  11   3  235.58   19.50
   1  11   3  243.18   22.10
   1  11   3  262.97   23.50
   1  11   3  220.68   19.40
  -2 -11  -3  361.26   23.20
  -2 -11  -3  400.26   24.90
  -2 -11  -3  373.96   24.30
  -2 -11  -3  333.57   24.80
   2  11   3  365.16   22.40
   2  11   3  380.66   26.40
   2  11   3  394.16   24.90
   2  11   3  349.07   23.60
  -3 -11  -3  140.39   15.40
  -3 -11  -3  133.29   15.50
  -3 -11  -3  178.38   17.30
   3  11   3  175.18   17.00
   3  11   3  146.39   15.80
   3  11   3  119.09   14.10
   3  11   3  172.58   18.60
  -4 -11  -3  472.85   24.90
  -4 -11  -3  454.85   25.20
  -4 -11  -3  494.65   26.60
  -4 -11  -3  466.45   27.10
   4  11   3  507.45   25.70
   4  11   3  498.85   25.90
   4  11   3  533.75   27.40
   4  11   3  500.05   25.40
  -5 -11  -3  295.97   22.20
  -5 -11  -3  303.17   21.60
  -5 -11  -3  318.47   23.10
  -5 -11  -3  296.37   23.70
   5  11   3  269.97   23.20
   5  11   3  315.57   23.20
   5  11   3  355.26   22.50
   5  11   3  339.37   23.40
  -6 -11  -3  169.08   17.30
  -6 -11  -3  140.89   16.60
  -6 -11  -3  159.48   16.00
  -6 -11  -3  129.89   16.60
   6  11   3  140.99   16.60
   6  11   3  154.18   16.10
   6  11   3  145.29   16.90
   6  11   3  144.29   15.50
  -7 -11  -3  298.77   25.80
  -7 -11  -3  327.37   23.30
  -7 -11  -3  297.47   22.40
  -7 -11  -3  380.76   26.10
   7  11   3  330.87   25.00
   7  11   3  354.16   22.70
   7  11   3  276.57   23.10
   7  11   3  320.57   24.80
  -8 -11  -3   41.10   14.10
  -8 -11  -3   11.90   14.10
  -8 -11  -3   28.30   13.90
  -8 -11  -3   34.20   13.10
   8  11   3   17.60   12.80
   8  11   3   30.00   14.30
   8  11   3   24.00   13.10
   8  11   3   26.40   13.20
  -3 -12  -3   73.99   15.80
  -3 -12  -3   83.49   16.00
  -3 -12  -3   61.29   15.80
  -3 -12  -3   60.49   15.90
   3  12   3  102.39   17.70
   3  12   3   62.79   16.60
   3  12   3   80.19   15.30
   3  12   3   78.29   15.40
  -4 -12  -3    7.80   13.90
  -4 -12  -3    0.70   12.50
  -4 -12  -3    7.10   13.50
  -4 -12  -3   -1.10   13.50
   4  12   3  -18.70   12.30
   4  12   3    2.20   13.90
   4  12   3   17.40   13.40
   4  12   3  -25.60   12.10
  -5 -12  -3   -9.60   13.00
  -5 -12  -3   -5.90   14.10
  -5 -12  -3   -8.40   12.50
  -5 -12  -3    8.80   12.60
   5  12   3  -15.10   12.80
   5  12   3    7.80   13.80
   5  12   3   -0.20   12.80
   5  12   3    0.20   13.50
  -6 -12  -3   56.39   15.80
  -6 -12  -3   51.49   15.00
  -6 -12  -3   61.99   15.10
  -6 -12  -3   64.19   15.60
   6  12   3   54.79   15.70
   6  12   3   66.69   15.80
   6  12   3   88.19   16.50
   6  12   3   76.69   16.00
   4  11  -4   70.09   16.20
   4  11  -4   89.09   16.20
   4  11  -4  103.79   18.30
   4  11  -4   84.79   19.50
   4  11  -4  102.99   17.40
  -4 -11   4  104.19   18.30
  -4 -11   4   76.29   14.70
  -4 -11   4   94.49   18.40
  -4 -11   4  115.29   17.90
   3  11  -4  254.67   21.10
   3  11  -4  258.27   22.10
   3  11  -4  225.18   23.10
   3  11  -4  243.78   20.90
   3  11  -4  263.77   21.40
  -3 -11   4  228.38   19.50
  -3 -11   4  244.88   20.50
  -3 -11   4  281.87   22.40
  -3 -11   4  289.27   22.60
   2  11  -4  189.48   19.70
   2  11  -4  151.38   17.50
   2  11  -4  141.09   17.40
   2  11  -4  198.98   23.60
   2  11  -4  176.88   19.10
  -2 -11   4  223.48   21.30
  -2 -11   4  179.38   19.20
  -2 -11   4  165.38   16.90
  -2 -11   4  168.68   19.50
   1  11  -4  440.96   36.10
   1  11  -4  488.35   30.40
   1  11  -4  482.05   28.50
   1  11  -4  475.25   29.80
   1  11  -4  534.35   28.80
  -1 -11   4  548.85   31.70
  -1 -11   4  494.65   29.40
  -1 -11   4  508.85   28.40
  -1 -11   4  452.35   26.60
   6  10  -4   86.79   17.40
   6  10  -4  103.69   18.60
   6  10  -4   88.69   15.70
   6  10  -4   74.29   16.00
  -6 -10   4  102.49   15.70
  -6 -10   4   97.89   18.20
  -6 -10   4   93.49   16.40
  -6 -10   4  101.09   18.30
   5  10  -4   -4.50   12.10
   5  10  -4    0.40   13.60
   5  10  -4    4.20   13.10
   5  10  -4   16.20   13.80
   5  10  -4   -4.70    4.90
   5  10  -4  -15.10   13.20
  -5 -10   4  -11.10   13.80
  -5 -10   4  -14.40   11.50
  -5 -10   4    9.90   14.20
  -5 -10   4    1.80   11.80
   4  10  -4  304.57   24.80
   4  10  -4  261.37   20.60
   4  10  -4  270.57   21.30
   4  10  -4  265.17   25.90
   4  10  -4  282.87   22.80
  -4 -10   4  302.37   22.80
  -4 -10   4  250.47   21.80
  -4 -10   4  284.47   29.10
  -4 -10   4  246.68   19.90
   3  10  -4  394.66   25.20
   3  10  -4  444.16   25.20
   3  10  -4  445.26   26.40
   3  10  -4  413.46   25.10
   3  10  -4  397.86   27.90
  -3 -10   4  407.56   27.50
  -3 -10   4  390.06   24.40
  -3 -10   4  448.36   25.40
  -3 -10   4  433.96   24.10
   2  10  -4   13.30   12.40
   2  10  -4   26.40   11.50
   2  10  -4   20.30   13.20
   2  10  -4   26.70   15.10
  -2 -10   4   -3.80   11.60
  -2 -10   4   16.70   10.20
  -2 -10   4    1.70   10.50
  -2 -10   4   -5.20   11.70
   1  10  -4   37.30   12.70
   1  10  -4   33.90   13.00
   1  10  -4   28.10   13.30
   1  10  -4   47.50   16.30
  -1 -10   4   50.39   13.20
  -1 -10   4   39.00   11.60
  -1 -10   4   44.90   11.30
  -1 -10   4   45.30   13.00
   0  10  -4  141.09   16.60
   0  10  -4  116.99   19.30
   0  10  -4  141.79   16.50
   0  10  -4  113.89   15.50
   0  10  -4  133.59   14.80
   0 -10   4  140.89   14.90
   0 -10   4  121.39   16.40
   0 -10   4  122.69   14.70
  -1  10  -4  127.99   15.10
  -1  10  -4  159.88   16.00
  -1  10  -4  167.78   16.90
  -1  10  -4  167.88   16.20
  -1  10  -4  151.18   21.30
   1 -10   4  129.59   16.60
   1 -10   4  140.09   15.60
   1 -10   4  144.29   15.90
   1 -10   4  134.89   15.20
  -2  10  -4    6.80   11.20
   2 -10   4    0.80   11.60
   2 -10   4    7.00   11.30
   7   9  -4    4.90   12.90
   7   9  -4   12.20   14.60
   7   9  -4  -13.30   11.40
   7   9  -4   21.70   14.50
   7   9  -4   18.00   10.10
  -7  -9   4   15.00   14.30
  -7  -9   4  -21.60   11.60
  -7  -9   4    3.70   14.70
  -7  -9   4  -19.80   12.50
   6   9  -4  615.54   31.00
   6   9  -4  615.34   28.90
   6   9  -4  629.64   29.10
   6   9  -4  599.94   28.00
   6   9  -4  579.54   26.30
  -6  -9   4  609.54   29.40
  -6  -9   4  628.64   30.90
  -6  -9   4  610.74   28.50
  -6  -9   4  576.94   31.00
   5   9  -4    3.70   10.40
   5   9  -4   11.90   11.10
   5   9  -4    3.80   11.50
   5   9  -4   -5.10   11.70
   5   9  -4   -0.60   11.70
  -5  -9   4   26.70   11.30
  -5  -9   4    1.70   10.10
  -5  -9   4    8.40   12.40
  -5  -9   4   32.90   12.60
   4   9  -4  371.96   22.40
   4   9  -4  385.06   24.10
   4   9  -4  384.46   22.20
   4   9  -4  398.26   24.10
   4   9  -4  383.26   23.50
  -4  -9   4  385.26   22.10
  -4  -9   4  434.16   24.80
  -4  -9   4  343.17   22.80
  -4  -9   4  423.26   23.30
   3   9  -4   20.70   11.80
   3   9  -4    4.10   10.60
   3   9  -4   10.40    9.90
   3   9  -4   10.30   10.90
  -3  -9   4   16.80   11.20
  -3  -9   4   22.30    9.70
  -3  -9   4   11.20   10.20
  -3  -9   4    3.00    9.60
   2   9  -4  487.95   24.90
   2   9  -4  509.15   27.40
   2   9  -4  493.15   24.60
   2   9  -4  507.95   24.10
  -2  -9   4  503.45   25.90
  -2  -9   4  471.75   23.80
  -2  -9   4  524.75   22.40
  -2  -9   4  540.95   25.00
   1   9  -4  507.15   25.00
   1   9  -4  543.95   24.70
   1   9  -4  529.75   28.00
   1   9  -4  456.25   22.20
  -1  -9   4  478.15   25.00
  -1  -9   4  469.75   21.50
  -1  -9   4  492.35   23.00
  -1  -9   4  461.75   22.40
   0   9  -4   26.70   10.00
   0   9  -4   20.70    9.80
   0   9  -4   49.99   14.20
   0   9  -4   43.80   11.90
   0  -9   4   49.50   10.70
   0  -9   4   56.69   11.50
   0  -9   4   46.50   12.20
   0  -9   4   52.29   10.20
  -1   9  -4   20.70   13.20
  -1   9  -4   27.80   14.80
  -1   9  -4   17.90   11.00
  -1   9  -4   27.90   10.60
  -1   9  -4   27.80   10.20
   1  -9   4   28.00    9.90
   1  -9   4   50.49   11.30
   1  -9   4   20.80   10.90
   1  -9   4   14.40    9.40
  -2   9  -4   47.00   13.10
  -2   9  -4   65.29   16.90
  -2   9  -4   59.09   12.30
  -2   9  -4   67.99   13.30
   2  -9   4   38.70   11.10
   2  -9   4   46.80   11.70
   2  -9   4   43.10   10.70
   2  -9   4   65.59   12.80
  -3   9  -4   15.30   11.10
  -3   9  -4   27.50   15.60
  -3   9  -4   16.50   11.50
  -3   9  -4   25.40   10.50
   3  -9   4   28.80   11.70
   3  -9   4   41.20   11.30
   3  -9   4   13.90   10.50
   3  -9   4   20.80   10.30
   8   8  -4   39.60    8.30
   8   8  -4   25.40   14.70
   8   8  -4   22.50   13.50
   8   8  -4   16.00   12.30
   8   8  -4   42.90   16.00
  -8  -8   4   26.60   12.90
  -8  -8   4   20.70   16.00
  -8  -8   4   57.99   13.90
  -8  -8   4  -11.10   14.30
   7   8  -4   22.10   13.20
   7   8  -4   27.10    9.50
   7   8  -4   24.80   12.20
   7   8  -4   15.80   13.30
   7   8  -4   20.40   12.30
  -7  -8   4   11.40   13.50
  -7  -8   4   20.20   11.70
  -7  -8   4   42.10   11.90
  -7  -8   4   13.90   13.60
   6   8  -4  291.87   21.40
   6   8  -4  281.87   18.90
   6   8  -4  279.27   23.50
   6   8  -4  310.57   21.10
  -6  -8   4  314.17   21.90
  -6  -8   4  251.27   20.00
  -6  -8   4  294.47   20.40
  -6  -8   4  283.77   23.00
   5   8  -4   52.79   10.80
   5   8  -4   39.10   10.90
   5   8  -4   54.89   12.20
   5   8  -4   39.90   10.20
   5   8  -4   58.69   12.00
  -5  -8   4   57.19   11.10
  -5  -8   4   38.00    9.80
  -5  -8   4   45.10   14.40
  -5  -8   4   62.59   12.50
   4   8  -4  104.49   12.20
   4   8  -4   92.39   11.30
   4   8  -4  110.49   12.60
  -4  -8   4  134.59   13.10
  -4  -8   4   95.79   13.00
  -4  -8   4  110.99   13.00
  -4  -8   4   95.69   11.30
   3   8  -4   55.09   10.40
   3   8  -4   51.39   10.70
   3   8  -4   62.39   10.50
   3   8  -4   74.79   12.20
   3   8  -4   57.39   10.80
  -3  -8   4   50.49   11.30
  -3  -8   4   46.40    9.70
  -3  -8   4   39.20   10.60
  -3  -8   4   43.10    9.70
   2   8  -4  225.68   15.90
   2   8  -4  251.17   19.90
   2   8  -4  215.48   17.50
   2   8  -4  214.38   16.50
   2   8  -4  206.88   17.60
  -2  -8   4  221.98   15.80
  -2  -8   4  224.38   17.00
  -2  -8   4  237.68   18.40
  -2  -8   4  221.58   17.10
   1   8  -4  133.49   12.10
   1   8  -4  124.19   12.80
   1   8  -4  114.29   11.10
  -1  -8   4  158.18   14.60
  -1  -8   4  121.19   13.20
  -1  -8   4  117.49   11.30
   0   8  -4  105.59   14.60
   0   8  -4   86.99   10.60
   0   8  -4   89.09   11.30
   0   8  -4   92.99   12.00
   0   8  -4  102.09   11.40
   0  -8   4   87.69   10.40
   0  -8   4  101.19   11.30
   0  -8   4  101.49   11.30
   0  -8   4   99.59   11.70
  -1   8  -4   25.60    8.30
  -1   8  -4   17.90    8.10
  -1   8  -4   14.10    8.40
  -1   8  -4   28.20   11.30
  -1   8  -4   18.60    9.40
   1  -8   4   20.50    7.70
   1  -8   4   12.20    9.10
   1  -8   4   11.70    8.50
   1  -8   4   13.80    8.10
  -2   8  -4  408.86   20.30
  -2   8  -4  391.36   26.40
  -2   8  -4  376.46   21.60
  -2   8  -4  449.66   20.20
   2  -8   4  406.56   19.80
   2  -8   4  407.86   18.60
   2  -8   4  379.66   19.20
   2  -8   4  396.36   20.80
  -3   8  -4  867.11   30.10
  -3   8  -4  896.41   30.50
  -3   8  -4  930.31   37.80
   3  -8   4  904.41   29.40
   3  -8   4  899.01   30.90
   3  -8   4  892.91   29.20
   3  -8   4  909.01   30.30
  -4   8  -4   51.89   11.40
  -4   8  -4   60.49   12.40
  -4   8  -4   60.69   11.00
  -4   8  -4   47.50   12.70
  -4   8  -4   32.10   15.60
   4  -8   4   46.70   10.70
   4  -8   4   47.00   10.30
   4  -8   4   64.79   10.90
   4  -8   4   44.70   10.40
   4  -8   4   63.29   10.10
  -5   8  -4  134.79   14.30
  -5   8  -4  152.18   15.10
  -5   8  -4  120.69   13.10
  -5   8  -4  124.09   21.80
  -5   8  -4  130.69   12.60
   5  -8   4  149.29   13.80
   5  -8   4  165.18   14.40
   5  -8   4  145.39   13.30
   5  -8   4  152.08   14.90
   9   7  -4  129.69   19.30
   9   7  -4  112.59   18.00
   9   7  -4  161.88   17.80
   9   7  -4  136.59   18.30
  -9  -7   4  100.19   18.20
  -9  -7   4  108.09   16.80
  -9  -7   4  144.39   18.30
  -9  -7   4   88.99   17.60
   8   7  -4   70.69   15.00
   8   7  -4   40.80   12.50
   8   7  -4   80.99   15.00
   8   7  -4   28.00   12.60
  -8  -7   4   63.39   14.10
  -8  -7   4   67.49   15.50
  -8  -7   4   55.99   13.10
  -8  -7   4   36.40   14.50
   7   7  -4   12.80   10.90
   7   7  -4    8.40   11.20
   7   7  -4   19.50    7.30
   7   7  -4   19.80   10.80
   7   7  -4    7.30   11.30
  -7  -7   4   23.70   10.90
  -7  -7   4   14.50   12.30
  -7  -7   4   13.40   11.70
  -7  -7   4   24.40   11.60
   6   7  -4   97.19   13.10
   6   7  -4   88.29   10.10
   6   7  -4  108.39   14.00
   6   7  -4  107.39   12.80
   6   7  -4   96.19   12.60
  -6  -7   4   94.59   12.50
  -6  -7   4   76.79   12.70
  -6  -7   4   70.89   11.20
  -6  -7   4   87.09   15.20
   5   7  -4  113.19   11.10
   5   7  -4  102.09   12.10
   5   7  -4  116.59   12.60
   5   7  -4  126.29   14.20
   5   7  -4   70.99   10.90
  -5  -7   4  123.39   13.20
  -5  -7   4  116.79   13.30
  -5  -7   4  104.89   12.60
  -5  -7   4   86.19   11.20
   4   7  -4   22.60    9.00
   4   7  -4   52.89    9.60
   4   7  -4   36.40    9.30
   4   7  -4   40.60    9.00
   4   7  -4   36.60    9.70
  -4  -7   4   28.20    9.70
  -4  -7   4   28.30    8.40
  -4  -7   4   28.40    7.50
  -4  -7   4   27.40    9.40
   3   7  -4  109.69   10.80
   3   7  -4  155.68   14.40
   3   7  -4  105.29   10.80
   3   7  -4  112.39   11.60
   3   7  -4  112.09   11.80
  -3  -7   4   96.09   10.40
  -3  -7   4   88.19    9.90
  -3  -7   4  115.39   11.80
  -3  -7   4  101.49   11.50
   2   7  -4  702.83   26.60
   2   7  -4  692.33   24.40
   2   7  -4  678.93   25.60
   2   7  -4  734.43   24.90
   2   7  -4  735.03   25.70
  -2  -7   4  739.43   26.50
  -2  -7   4  707.23   25.10
  -2  -7   4  764.62   26.00
  -2  -7   4  696.03   24.60
   1   7  -4  209.48   14.20
   1   7  -4  202.28   15.30
   1   7  -4  204.88   17.40
   1   7  -4  246.58   14.70
   1   7  -4  206.08    7.60
  -1  -7   4  203.58   16.00
  -1  -7   4  203.18   14.50
  -1  -7   4  194.68   13.10
  -1  -7   4  207.58   14.80
   0   7  -4  239.18   15.10
   0   7  -4  253.37   14.80
   0   7  -4  237.58   15.50
   0   7  -4  248.38   19.30
   0   7  -4  261.47   16.20
   0  -7   4  263.07   15.30
   0  -7   4  255.37   16.10
   0  -7   4  247.88   14.30
   0  -7   4  233.08   15.00
  -1   7  -4   37.80    9.00
  -1   7  -4   40.00    8.10
  -1   7  -4   41.40    9.10
  -1   7  -4   36.70    7.80
   1  -7   4   23.80    8.00
   1  -7   4   42.90    9.00
   1  -7   4   32.30    7.50
  -2   7  -4  274.17   18.60
  -2   7  -4  322.77   16.20
  -2   7  -4  318.47   21.90
  -2   7  -4  295.87   16.60
   2  -7   4  288.97   16.40
   2  -7   4  313.97   15.90
   2  -7   4  293.97   15.60
  -3   7  -4   31.40    8.40
  -3   7  -4   17.20    8.90
  -3   7  -4   29.40    8.10
  -3   7  -4   42.70   11.90
   3  -7   4   31.40    8.80
   3  -7   4   47.30    8.40
   3  -7   4   29.20   11.60
   3  -7   4   37.20    8.20
  -4   7  -4  384.06   18.90
  -4   7  -4  392.66   26.40
  -4   7  -4  396.06   17.90
  -4   7  -4  420.86   19.30
   4  -7   4  384.06   18.00
   4  -7   4  432.96   18.30
   4  -7   4  399.46   18.80
   4  -7   4  401.46   17.90
   4  -7   4  383.36   18.70
  -5   7  -4  224.28   17.40
  -5   7  -4  266.87   15.60
  -5   7  -4  217.38   21.00
  -5   7  -4  225.78   16.10
  -5   7  -4  237.08   17.60
   5  -7   4  289.37   17.80
   5  -7   4  274.37   16.70
   5  -7   4  257.57   16.90
   5  -7   4  257.77   15.80
   5  -7   4  220.68   15.20
  -6   7  -4    4.40   16.20
  -6   7  -4    7.00    9.90
  -6   7  -4    4.60    8.60
  -6   7  -4   10.60   10.00
   6  -7   4    6.20    8.70
   6  -7   4    8.30    8.50
   6  -7   4   30.70   11.40
   6  -7   4    6.30    9.00
   6  -7   4   -8.70    9.30
   9   6  -4   64.49   14.00
   9   6  -4   66.69   15.40
   9   6  -4  117.29   18.00
   9   6  -4   84.59   16.80
  -9  -6   4   79.49   16.30
  -9  -6   4   76.49   17.00
  -9  -6   4   88.69   16.40
  -9  -6   4   73.99   15.10
   8   6  -4   19.40   11.70
   8   6  -4   20.00   13.20
   8   6  -4   28.80   13.70
   8   6  -4    1.90   10.60
  -8  -6   4   22.20   12.60
  -8  -6   4   13.10   11.80
  -8  -6   4   13.30   11.70
   7   6  -4  333.07   21.00
   7   6  -4  357.66   22.80
   7   6  -4  352.36   20.50
   7   6  -4  389.36   23.70
  -7  -6   4  388.86   21.30
  -7  -6   4  395.56   22.40
  -7  -6   4  369.76   23.00
   6   6  -4  389.76   21.20
   6   6  -4  394.76   20.90
   6   6  -4  381.56   15.00
   6   6  -4  388.06   20.30
   6   6  -4  360.66   21.60
  -6  -6   4  385.36   21.60
  -6  -6   4  377.06   20.80
  -6  -6   4  393.26   21.60
  -6  -6   4  392.36   19.40
   5   6  -4  644.04   24.80
   5   6  -4  667.13   25.90
   5   6  -4  668.93   21.90
   5   6  -4  648.74   24.70
   5   6  -4  684.73   28.20
  -5  -6   4  661.83   24.10
  -5  -6   4  666.53   25.20
  -5  -6   4  695.13   26.40
  -5  -6   4  641.54   25.00
   4   6  -4 1985.10   53.09
   4   6  -4 2067.09   51.49
   4   6  -4 2094.89   53.69
   4   6  -4 2024.80   52.99
   4   6  -4 1997.80   52.69
  -4  -6   4 2036.90   53.39
  -4  -6   4 2003.30   53.69
  -4  -6   4 1992.90   52.49
  -4  -6   4 2012.70   52.99
   3   6  -4    9.60    7.10
   3   6  -4    5.70    6.10
   3   6  -4    9.50    6.90
   3   6  -4   14.00    7.30
   3   6  -4   14.80    6.30
  -3  -6   4   12.70    7.50
  -3  -6   4    7.90    7.20
  -3  -6   4   13.10    6.40
  -3  -6   4    9.40    6.80
   2   6  -4  999.90   30.30
   2   6  -4  974.40   29.50
   2   6  -4  978.00   29.30
   2   6  -4  987.60   30.10
   2   6  -4  969.50   31.10
  -2  -6   4  989.60   30.50
  -2  -6   4  971.50   29.70
  -2  -6   4  981.40   29.40
  -2  -6   4  982.80   29.90
   1   6  -4  256.17   13.90
   1   6  -4  228.48   15.70
   1   6  -4  266.97   14.50
   1   6  -4  253.77    9.70
   1   6  -4  265.17   14.10
   1   6  -4  232.68   14.60
  -1  -6   4  270.77   14.90
  -1  -6   4  256.57   13.00
  -1  -6   4  244.18   13.50
  -1  -6   4  244.28   14.40
   0   6  -4 3306.97   79.29
   0   6  -4 3300.07   79.29
   0   6  -4 3259.97   74.59
   0   6  -4 3345.47   79.29
   0   6  -4 3382.26   79.09
   0   6  -4 3385.56   82.69
   0  -6   4 3408.26   79.39
   0  -6   4 3314.57   78.89
   0  -6   4 3350.56   79.79
   0  -6   4 3323.57   82.89
   0  -6   4 3246.38   78.99
  -1   6  -4  696.83   23.10
  -1   6  -4  676.13   26.80
  -1   6  -4  692.43   22.80
  -1   6  -4  720.13   22.20
   1  -6   4  690.03   22.80
   1  -6   4  592.84   30.40
   1  -6   4  701.43   23.30
   1  -6   4  705.33   22.60
   1  -6   4  697.43   22.20
  -2   6  -4   58.89   10.70
  -2   6  -4   70.79    8.40
  -2   6  -4   75.89    8.20
   2  -6   4   79.49    8.40
   2  -6   4   54.29   10.50
   2  -6   4   67.69    7.90
   2  -6   4   77.59    8.30
   2  -6   4   57.89    8.10
  -3   6  -4    4.40    6.40
  -3   6  -4    7.60    5.60
  -3   6  -4   -3.10   15.70
  -3   6  -4   -5.50    6.50
  -3   6  -4    3.20    5.50
   3  -6   4    2.60    9.70
   3  -6   4    5.60    5.70
   3  -6   4   -8.70    5.50
   3  -6   4   10.10    6.40
   3  -6   4    9.80    7.50
   3  -6   4   -0.20    5.40
  -4   6  -4  141.79   10.80
  -4   6  -4  120.59   10.30
  -4   6  -4  102.69   14.20
  -4   6  -4  121.99   10.10
  -4   6  -4  111.79    9.20
   4  -6   4  118.09    9.50
   4  -6   4  112.99   10.00
   4  -6   4  126.79   15.60
   4  -6   4  108.49    9.10
   4  -6   4  127.39   10.20
   4  -6   4  106.09    9.70
  -5   6  -4  132.69   16.30
  -5   6  -4  133.89   10.80
  -5   6  -4  135.39   11.80
  -5   6  -4  140.29   11.20
   5  -6   4  127.59   10.70
   5  -6   4  118.99   11.20
   5  -6   4  129.09   11.80
   5  -6   4  129.69   10.60
  -6   6  -4   -1.00    7.40
  -6   6  -4   -0.60    8.60
  -6   6  -4    1.80    6.90
  -6   6  -4    0.90    7.80
  -6   6  -4    3.90   13.00
   6  -6   4    9.90    7.70
   6  -6   4   -5.00    9.40
   6  -6   4    2.00    7.00
   6  -6   4   -2.50    7.40
   6  -6   4    2.10    7.20
  -7   6  -4   26.00    9.00
  -7   6  -4    2.10   15.30
  -7   6  -4   27.60    8.80
  -7   6  -4   39.80    9.50
   7  -6   4   35.80    8.50
   7  -6   4   31.30    9.30
   7  -6   4   40.50    9.20
   7  -6   4   31.50    9.00
   7  -6   4   19.70   12.80
   9   5  -4   83.89   17.20
   9   5  -4   78.39   15.90
   9   5  -4  101.59   15.60
   9   5  -4  133.19   17.10
  -9  -5   4   87.79   16.40
  -9  -5   4  117.79   16.70
  -9  -5   4   77.49   16.20
  -9  -5   4  102.49   16.60
   8   5  -4  166.98   15.80
   8   5  -4  154.38   17.10
   8   5  -4  168.68   15.50
   8   5  -4  148.69   19.00
  -8  -5   4  175.58   17.30
  -8  -5   4  142.99   16.30
  -8  -5   4  131.79   14.90
   7   5  -4    6.90   10.40
   7   5  -4   22.40    9.60
   7   5  -4    4.20   10.30
   7   5  -4   14.70    9.50
  -7  -5   4   11.50    9.00
  -7  -5   4   23.00   10.70
  -7  -5   4   34.50   10.70
   6   5  -4   93.09   12.50
   6   5  -4   82.29   10.60
   6   5  -4   63.29   10.30
   6   5  -4   73.19   10.60
  -6  -5   4   69.29   10.80
  -6  -5   4   74.19   11.60
  -6  -5   4   79.49   11.30
  -6  -5   4   58.69   10.00
   5   5  -4  890.11   28.80
   5   5  -4  888.71   28.60
   5   5  -4  841.02   23.70
   5   5  -4  895.11   29.60
   5   5  -4  860.01   28.50
  -5  -5   4  885.41   29.30
  -5  -5   4  844.32   29.10
  -5  -5   4  846.62   28.70
  -5  -5   4  848.62   27.70
   4   5  -4 1082.99   31.30
   4   5  -4 1078.99   32.40
   4   5  -4 1059.29   31.50
   4   5  -4 1020.10   30.90
   4   5  -4 1033.10   28.50
  -4  -5   4 1026.10   31.80
  -4  -5   4 1016.30   31.50
  -4  -5   4 1022.70   30.40
  -4  -5   4 1003.60   31.10
   3   5  -4  283.97   14.00
   3   5  -4  282.37   14.70
   3   5  -4  289.07   15.20
   3   5  -4  283.27   15.30
   3   5  -4  301.37   14.60
  -3  -5   4  321.47   15.90
  -3  -5   4  293.47   15.30
  -3  -5   4  276.27   14.70
  -3  -5   4  295.47   14.10
   2   5  -4  595.84   21.00
   2   5  -4  639.84   21.20
   2   5  -4  612.64   21.00
   2   5  -4  607.74   20.50
   2   5  -4  581.54   20.90
  -2  -5   4  598.54   20.80
  -2  -5   4  616.24   21.70
  -2  -5   4  590.84   20.00
  -2  -5   4  596.34   21.30
  -2  -5   4  591.64   20.70
   1   5  -4   16.50    5.20
   1   5  -4   12.10    5.60
   1   5  -4   16.50    5.70
   1   5  -4    4.30    5.10
   1   5  -4   16.50    6.60
  -1  -5   4    9.60    6.50
  -1  -5   4   19.30    6.10
  -1  -5   4   19.10    6.20
  -1  -5   4   17.30    5.90
  -1  -5   4   13.30    5.30
   0   5  -4   33.00    4.60
   0   5  -4   34.00    6.30
   0   5  -4   27.60    5.90
   0   5  -4   32.80    5.90
   0   5  -4   32.00    6.50
   0   5  -4   42.90    8.40
   0  -5   4   24.90    5.90
   0  -5   4   33.20    7.60
   0  -5   4   31.00    6.10
   0  -5   4   32.60    6.30
   0  -5   4   38.50    6.00
  -1   5  -4  508.55   15.10
  -1   5  -4  515.95   17.80
  -1   5  -4  516.15   17.50
  -1   5  -4  506.45   17.90
  -1   5  -4  512.35   17.20
  -1   5  -4  502.45   20.60
   1  -5   4  530.85   17.20
   1  -5   4  497.65   17.10
   1  -5   4  522.75   21.50
   1  -5   4  528.95   17.60
   1  -5   4  503.35   18.00
  -2   5  -4  448.96   15.60
  -2   5  -4  421.66   15.80
  -2   5  -4  431.06   15.40
  -2   5  -4  426.26   19.70
   2  -5   4  421.76   15.00
   2  -5   4  436.96   15.60
   2  -5   4  394.06   20.10
   2  -5   4  444.36   15.70
   2  -5   4  427.56   16.20
  -3   5  -4  143.09    9.70
  -3   5  -4  158.58   10.70
  -3   5  -4  172.88   15.80
  -3   5  -4  170.78   11.10
   3  -5   4  172.88   10.30
   3  -5   4  143.19   17.60
   3  -5   4  169.78    9.80
   3  -5   4  149.49   10.80
   3  -5   4  164.68   10.50
   3  -5   4  145.99   10.50
  -4   5  -4  669.23   20.70
  -4   5  -4  671.43   19.80
  -4   5  -4  649.34   19.90
  -4   5  -4  655.23   20.80
  -4   5  -4  666.83   27.20
   4  -5   4  617.44   27.50
   4  -5   4  683.03   19.80
   4  -5   4  680.63   21.80
   4  -5   4  648.94   20.60
   4  -5   4  657.93   20.50
   4  -5   4  661.93   20.00
  -5   5  -4  649.14   20.70
  -5   5  -4  622.24   28.30
  -5   5  -4  653.43   19.20
  -5   5  -4  654.93   20.30
   5  -5   4  626.14   20.10
   5  -5   4  654.03   19.60
   5  -5   4  665.13   23.10
   5  -5   4  622.94   20.40
   5  -5   4  602.84   29.10
   5  -5   4  651.13   19.10
  -6   5  -4   -2.90    5.60
  -6   5  -4    0.90    6.00
  -6   5  -4    4.40   11.40
  -6   5  -4    3.90    6.30
   6  -5   4   -4.20    8.10
   6  -5   4    4.30    6.70
   6  -5   4   -3.20   12.60
   6  -5   4   -4.90    5.70
   6  -5   4    2.70    5.80
   6  -5   4    4.50    5.80
  -7   5  -4   94.29    8.40
  -7   5  -4   66.59   14.60
  -7   5  -4   87.99    8.60
  -7   5  -4   88.59    8.80
   7  -5   4   85.79    8.10
   7  -5   4   93.59    9.00
   7  -5   4   92.29    9.20
   7  -5   4   94.79    8.50
   7  -5   4   99.89   12.90
   9   4  -4  432.06   38.80
   9   4  -4  464.35   26.90
   9   4  -4  505.65   29.80
   9   4  -4  464.65   27.00
  -9  -4   4  453.55   28.50
  -9  -4   4  498.15   28.50
  -9  -4   4  472.85   27.30
  -9  -4   4  480.25   28.60
   8   4  -4  174.38   16.90
   8   4  -4  174.98   16.20
   8   4  -4  141.39   15.20
   8   4  -4  218.78   20.10
  -8  -4   4  170.58   16.30
  -8  -4   4  188.98   16.20
  -8  -4   4  191.68   16.00
   7   4  -4 1736.63   48.70
   7   4  -4 1801.12   48.90
   7   4  -4 1722.83   48.70
   7   4  -4 1784.42   49.90
  -7  -4   4 1653.83   47.60
  -7  -4   4 1746.73   49.10
  -7  -4   4 1702.63   49.20
   6   4  -4  550.74   23.30
   6   4  -4  608.84   25.90
   6   4  -4  606.44   23.30
   6   4  -4  590.44   24.50
  -6  -4   4  585.64   23.70
  -6  -4   4  622.24   23.60
  -6  -4   4  584.14   22.40
  -6  -4   4  602.64   24.00
   5   4  -4   99.79   10.20
   5   4  -4  125.69   11.80
   5   4  -4  117.29   10.80
   5   4  -4  109.89   10.50
  -5  -4   4  134.99   12.10
  -5  -4   4  114.99   10.70
  -5  -4   4  110.59   11.10
  -5  -4   4  116.29   12.20
   4   4  -4   24.90    7.00
   4   4  -4   38.80    5.10
   4   4  -4   47.10    7.60
   4   4  -4   30.90    6.20
  -4  -4   4   40.10    7.80
  -4  -4   4   35.90    7.30
   3   4  -4 1561.24   41.70
   3   4  -4 1627.74   42.10
   3   4  -4 1567.34   41.50
   3   4  -4 1583.34   41.30
   3   4  -4 1614.64   39.70
  -3  -4   4 1591.44   41.70
  -3  -4   4 1620.34   40.30
  -3  -4   4 1595.64   42.10
  -3  -4   4 1537.05   40.90
  -3  -4   4 1601.44   41.70
   2   4  -4 1147.49   31.70
   2   4  -4 1199.78   31.60
   2   4  -4 1146.89   31.90
   2   4  -4 1167.68   31.30
   2   4  -4 1129.29   31.30
  -2  -4   4 1156.98   31.20
  -2  -4   4 1152.08   32.10
  -2  -4   4 1177.98   31.90
  -2  -4   4 1131.29   31.50
  -2  -4   4 1150.88   31.60
   1   4  -4    8.50    4.50
   1   4  -4   17.20    5.70
   1   4  -4   15.70    4.90
   1   4  -4   16.20    5.00
   1   4  -4    9.60    5.00
  -1  -4   4   19.70    6.00
  -1  -4   4    9.40    4.60
  -1  -4   4   15.60    5.30
  -1  -4   4   13.70    4.80
  -1  -4   4   16.60    5.10
   0   4  -4   23.30    4.90
   0   4  -4   24.40    4.50
   0   4  -4   16.60    4.90
   0  -4   4   35.70    6.80
   0  -4   4   22.50    5.10
   0  -4   4   20.70    4.90
  -1   4  -4   26.30    5.10
  -1   4  -4   39.00    5.40
  -1   4  -4   30.10    4.40
  -1   4  -4   33.30    5.10
  -1   4  -4   32.10    7.10
  -1   4  -4   32.60    8.30
   1  -4   4   33.20    5.30
   1  -4   4   29.10    5.10
   1  -4   4   43.20    7.90
   1  -4   4   33.90    5.10
   1  -4   4   37.60    5.30
  -2   4  -4  721.33   21.00
  -2   4  -4  726.23   20.20
  -2   4  -4  721.73   25.10
  -2   4  -4  723.83   20.50
  -2   4  -4  739.53   20.70
  -2   4  -4  722.83   20.60
   2  -4   4  737.73   20.80
   2  -4   4  723.43   20.70
   2  -4   4  724.13   25.30
   2  -4   4  757.02   20.90
  -3   4  -4   86.99    8.10
  -3   4  -4   85.49   10.60
  -3   4  -4   81.89    7.50
  -3   4  -4   84.99    7.20
  -3   4  -4   79.99    7.20
   3  -4   4   89.09    7.50
   3  -4   4   83.59   11.20
   3  -4   4   81.49    6.70
   3  -4   4   83.99    7.30
   3  -4   4   89.89    7.50
   3  -4   4   84.59    7.00
  -4   4  -4  339.17   12.20
  -4   4  -4  365.16   12.00
  -4   4  -4  335.97   18.70
  -4   4  -4  352.56   13.20
  -4   4  -4  344.37   12.90
   4  -4   4  354.86   12.80
   4  -4   4  368.76   20.30
   4  -4   4  345.07   12.50
   4  -4   4  370.56   12.30
   4  -4   4  340.57   12.80
   4  -4   4  356.16   15.20
  -5   4  -4  109.99    8.70
  -5   4  -4  108.39    7.70
  -5   4  -4   90.79   12.30
  -5   4  -4  116.89    7.70
   5  -4   4  123.09   10.00
   5  -4   4  105.19    7.90
   5  -4   4  109.59    8.80
   5  -4   4  114.59   13.30
   5  -4   4  117.79    8.40
   5  -4   4  107.99    8.20
  -6   4  -4 1948.41   45.00
  -6   4  -4 1890.61   45.20
  -6   4  -4 1908.21   44.50
  -6   4  -4 1933.01   44.90
   6  -4   4 1906.11   44.70
   6  -4   4 1883.11   45.50
   6  -4   4 1895.31   45.20
   6  -4   4 1818.72   54.19
   6  -4   4 1936.31   50.49
   6  -4   4 1882.51   44.60
  -7   4  -4  211.78   21.00
  -7   4  -4  244.28   11.60
  -7   4  -4  240.18   11.60
  -7   4  -4  258.77   10.60
  -7   4  -4  244.78   11.20
   7  -4   4  230.78   12.10
   7  -4   4  268.27   18.80
   7  -4   4  232.78    9.90
   7  -4   4  197.08   19.00
   7  -4   4  232.08   11.70
   7  -4   4  232.98   11.20
  -8   4  -4  134.89   12.00
  -8   4  -4  143.39   10.90
  -8   4  -4  115.49   16.50
   8  -4   4  128.59    7.40
   8  -4   4  124.99    8.30
   8  -4   4  167.68   20.00
   8  -4   4  121.59   11.20
   8  -4   4  150.88   16.00
   8  -4   4  116.49   10.70
   9   3  -4   68.39   15.60
   9   3  -4   60.19   14.90
   9   3  -4   24.80   12.70
   9   3  -4   77.39   14.30
  -9  -3   4   62.59   14.50
  -9  -3   4   74.19   15.60
  -9  -3   4   58.19   13.10
  -9  -3   4   70.99   15.00
   8   3  -4   13.20   10.50
   8   3  -4    1.50   11.30
   8   3  -4   -0.30   10.60
   8   3  -4    5.90   11.00
  -8  -3   4    8.00   10.20
  -8  -3   4    9.70   10.40
  -8  -3   4    6.10   11.40
   7   3  -4    1.40    8.40
   7   3  -4    5.30    8.70
   7   3  -4    2.00    9.20
   7   3  -4   -4.30    9.10
  -7  -3   4   10.20    8.90
  -7  -3   4   17.90   10.10
  -7  -3   4   15.60    9.10
   6   3  -4   82.19   10.60
   6   3  -4  102.59   11.20
   6   3  -4   72.59   10.30
   6   3  -4   97.89   11.60
  -6  -3   4   65.09   10.30
  -6  -3   4   75.09    9.80
  -6  -3   4   59.29    9.80
  -6  -3   4   72.39   10.30
   5   3  -4   19.00    6.20
   5   3  -4   20.30    6.70
   5   3  -4   21.40    7.40
   5   3  -4   32.30    8.60
  -5  -3   4   23.40    7.90
  -5  -3   4   32.40    7.60
  -5  -3   4   21.80    7.30
  -5  -3   4   17.40    7.10
   4   3  -4  132.99   11.40
   4   3  -4  124.89   12.00
   4   3  -4  130.29   10.40
   4   3  -4  119.79   10.90
  -4  -3   4  102.39    9.20
  -4  -3   4  118.49   10.00
  -4  -3   4  117.59   10.10
  -4  -3   4  129.29   11.40
   3   3  -4  840.42   24.90
   3   3  -4  807.62   24.30
   3   3  -4  841.32   24.40
   3   3  -4  809.42   24.40
   3   3  -4  774.22   21.30
  -3  -3   4  810.92   22.20
  -3  -3   4  808.42   24.80
  -3  -3   4  803.42   24.50
  -3  -3   4  803.12   23.80
  -3  -3   4  805.22   24.30
   2   3  -4 1516.55   38.00
   2   3  -4 1581.04   39.50
   2   3  -4 1514.05   39.60
   2   3  -4 1614.44   39.60
   2   3  -4 1523.45   39.40
  -2  -3   4 1606.04   40.00
  -2  -3   4 1562.14   39.60
  -2  -3   4 1487.95   38.40
  -2  -3   4 1533.05   38.90
  -2  -3   4 1549.24   39.30
   1   3  -4   36.00    5.30
   1   3  -4   37.70    5.60
   1   3  -4   28.60    5.00
   1   3  -4   32.30    5.10
   1   3  -4   40.70    5.20
  -1  -3   4   40.50    5.20
  -1  -3   4   35.10    5.40
  -1  -3   4   25.70    4.70
  -1  -3   4   36.50    5.30
  -1  -3   4   41.30    5.90
   0   3  -4  339.07   12.70
   0   3  -4  358.06   14.10
   0   3  -4  339.87   12.50
   0   3  -4  345.67   12.30
   0   3  -4  354.76   12.60
   0  -3   4  371.86   12.70
   0  -3   4  352.46   12.30
   0  -3   4  350.46   14.40
   0  -3   4  337.57   12.50
   0  -3   4  352.96   12.90
  -1   3  -4 1269.17   31.50
  -1   3  -4 1284.77   31.80
  -1   3  -4 1246.08   31.60
  -1   3  -4 1269.77   31.50
  -1   3  -4 1244.68   34.30
   1  -3   4 1303.37   31.90
   1  -3   4 1286.47   34.90
   1  -3   4 1271.67   31.70
   1  -3   4 1268.37   32.00
   1  -3   4 1260.27   31.50
  -2   3  -4 4221.38   94.79
  -2   3  -4 4275.17   94.89
  -2   3  -4 4114.29   98.69
  -2   3  -4 4236.98   94.89
  -2   3  -4 4253.97   94.89
  -2   3  -4 4099.69   95.19
   2  -3   4 4145.49   94.79
   2  -3   4 4199.68   95.19
   2  -3   4 4348.06   99.39
   2  -3   4 4256.07   94.69
   2  -3   4 4301.17   94.99
  -3   3  -4   51.89    5.00
  -3   3  -4   53.29    4.80
  -3   3  -4   41.80    7.10
  -3   3  -4   56.59    4.90
  -3   3  -4   53.89    4.80
   3  -3   4   47.20    5.90
   3  -3   4   46.80    4.90
   3  -3   4   42.80    7.80
   3  -3   4   49.80    4.90
   3  -3   4   52.49    4.60
   3  -3   4   48.60    4.60
  -4   3  -4 1234.08   29.80
  -4   3  -4 1283.07   29.70
  -4   3  -4 1189.78   35.80
  -4   3  -4 1270.17   30.00
   4  -3   4 1277.67   33.40
   4  -3   4 1233.88   29.80
   4  -3   4 1235.18   30.10
   4  -3   4 1235.18   30.30
   4  -3   4 1212.88   29.80
   4  -3   4 1245.28   36.90
  -5   3  -4   38.40    4.30
  -5   3  -4   35.20    7.70
  -5   3  -4   35.60    4.40
  -5   3  -4   40.70    3.90
  -5   3  -4   44.20    4.20
   5  -3   4   26.10    9.20
   5  -3   4   38.80    7.10
   5  -3   4   30.80    4.10
   5  -3   4   45.20    4.40
   5  -3   4   39.90    4.00
   5  -3   4   29.60    4.20
  -6   3  -4  776.12   18.40
  -6   3  -4  724.73   18.50
  -6   3  -4  779.92   28.10
  -6   3  -4  758.02   19.20
  -6   3  -4  744.93   19.30
   6  -3   4  762.72   19.40
   6  -3   4  751.12   18.50
   6  -3   4  711.33   32.50
   6  -3   4  731.93   19.50
   6  -3   4  690.63   32.90
   6  -3   4  674.53   18.60
  -7   3  -4   22.90   10.30
  -7   3  -4   39.20    5.00
  -7   3  -4   36.10    5.40
   7  -3   4   45.20   12.20
   7  -3   4   42.00    9.60
   7  -3   4   49.10    5.70
   7  -3   4   42.10    3.80
  -8   3  -4  524.95   26.50
  -8   3  -4  530.05   14.60
  -8   3  -4  494.65   14.30
   8  -3   4  512.85   15.00
   8  -3   4  503.45   15.00
   8  -3   4  496.55   28.30
   8  -3   4  532.35   25.50
  -9   3  -4  230.18   19.50
   9  -3   4  224.08   13.00
   9  -3   4  243.88   22.40
   9  -3   4  280.77   20.80
   9  -3   4  219.08    9.20
   9   2  -4  175.78   17.20
   9   2  -4  193.08   18.30
   9   2  -4  214.28   19.80
   9   2  -4  187.58   16.90
  -9  -2   4  167.88   17.30
  -9  -2   4  208.28   18.50
  -9  -2   4  180.88   16.20
  -9  -2   4  180.48   18.70
   8   2  -4   -0.30    9.50
   8   2  -4  -10.80   11.20
   8   2  -4   -6.40   10.60
   8   2  -4    1.40   10.00
  -8  -2   4  -12.70    9.00
  -8  -2   4    4.90   10.90
  -8  -2   4   -1.80   11.40
   7   2  -4   39.10   10.40
   7   2  -4   26.90    9.30
   7   2  -4   22.40    9.90
  -7  -2   4   23.50    9.90
  -7  -2   4   18.80    9.40
  -7  -2   4   14.80    9.20
  -7  -2   4   17.50    9.30
   6   2  -4  205.38   15.70
   6   2  -4  202.28   14.80
   6   2  -4  208.58   15.70
   6   2  -4  213.88   16.70
  -6  -2   4  227.78   16.80
  -6  -2   4  192.98   15.70
  -6  -2   4  214.08   15.60
  -6  -2   4  190.68   14.80
   5   2  -4   51.69    8.20
   5   2  -4   42.00    8.00
   5   2  -4   50.09    7.90
   5   2  -4   25.60    7.90
  -5  -2   4   48.40    8.10
  -5  -2   4   40.00    9.00
  -5  -2   4   40.70    8.20
  -5  -2   4   48.60    8.40
   4   2  -4    3.10    6.30
   4   2  -4    8.10    5.90
   4   2  -4   -6.50    5.30
   4   2  -4   -7.00    5.40
  -4  -2   4    1.90    5.60
  -4  -2   4    1.90    5.80
  -4  -2   4   -3.90    5.20
  -4  -2   4   -1.70    2.70
  -4  -2   4   -2.30    5.60
   3   2  -4  918.61   26.70
   3   2  -4  933.11   26.90
   3   2  -4  899.01   26.60
   3   2  -4  927.71   26.50
  -3  -2   4  924.31   26.10
  -3  -2   4  917.11   23.30
  -3  -2   4  900.61   26.40
  -3  -2   4  949.90   26.90
  -3  -2   4  902.01   26.70
   2   2  -4   32.90    5.40
   2   2  -4   30.40    5.20
   2   2  -4   28.40    5.20
   2   2  -4   34.00    5.50
  -2  -2   4   37.50    5.70
  -2  -2   4   24.00    5.10
  -2  -2   4   37.00    5.20
  -2  -2   4   27.70    4.80
  -2  -2   4   28.30    4.50
   1   2  -4 2496.95   58.19
   1   2  -4 2370.86   57.19
   1   2  -4 2511.95   57.89
   1   2  -4 2479.65   57.89
   1   2  -4 2381.96   57.79
  -1  -2   4 2545.85   58.29
  -1  -2   4 2479.05   58.19
  -1  -2   4 2480.25   57.99
  -1  -2   4 2409.96   57.79
  -1  -2   4 2435.06   57.59
   0   2  -4 2407.76   57.49
   0   2  -4 2426.06   58.49
   0   2  -4 2469.75   57.59
   0   2  -4 2559.54   58.09
   0   2  -4 2536.55   57.79
   0  -2   4 2537.45   57.99
   0  -2   4 2448.16   57.39
   0  -2   4 2515.85   57.79
   0  -2   4 2421.16   57.49
   0  -2   4 2490.15   59.19
  -1   2  -4   25.00    4.90
  -1   2  -4   16.90    3.20
  -1   2  -4   12.40    3.70
  -1   2  -4   18.40    3.40
  -1   2  -4   20.50    3.60
   1  -2   4   11.30    3.10
   1  -2   4   16.60    3.30
   1  -2   4    8.20    3.10
   1  -2   4   10.80    4.60
   1  -2   4    8.30    3.10
  -2   2  -4   12.70    3.00
  -2   2  -4   17.70    3.00
  -2   2  -4   12.90    4.70
  -2   2  -4   16.70    3.10
  -2   2  -4   11.80    2.90
  -2   2  -4   10.40    3.70
   2  -2   4    7.80    2.90
   2  -2   4   10.50    2.80
   2  -2   4   10.20    2.90
   2  -2   4   19.00    5.20
   2  -2   4   13.00    3.40
  -3   2  -4 2905.81   64.79
  -3   2  -4 2900.31   64.89
  -3   2  -4 2865.21   69.59
  -3   2  -4 2825.92   67.29
  -3   2  -4 2841.92   64.69
   3  -2   4 2901.51   70.39
   3  -2   4 2878.41   64.89
   3  -2   4 2944.61   64.69
   3  -2   4 2891.21   65.09
   3  -2   4 2898.41   64.79
   3  -2   4 3000.90   67.89
  -4   2  -4 3361.26   73.99
  -4   2  -4 3335.47   74.09
  -4   2  -4 3384.76   80.39
  -4   2  -4 3352.16   73.69
  -4   2  -4 3287.17   73.69
   4  -2   4 3425.26   73.79
   4  -2   4 3308.07   74.19
   4  -2   4 3330.27   78.19
   4  -2   4 3312.47   80.69
   4  -2   4 3314.47   73.79
   4  -2   4 3374.56   74.19
  -5   2  -4   33.90    2.90
  -5   2  -4   27.10    2.90
  -5   2  -4   27.10    7.80
   5  -2   4   23.50    3.10
   5  -2   4   27.30    3.10
   5  -2   4   23.80    6.10
   5  -2   4   27.20    8.20
   5  -2   4   24.80    2.40
   5  -2   4   27.20    2.60
  -6   2  -4  141.09    6.00
  -6   2  -4  156.58   14.00
  -6   2  -4  153.58    5.70
   6  -2   4  154.78   12.70
   6  -2   4  148.19   13.50
   6  -2   4  152.58    6.40
   6  -2   4  142.59    5.70
  -7   2  -4  191.28   16.40
   7  -2   4  187.58   18.70
   7  -2   4  175.98   13.30
   7  -2   4  177.18    6.50
   7  -2   4  174.78    6.40
  -8   2  -4  223.18   19.00
   8  -2   4  199.68   18.50
   8  -2   4  164.18   16.70
   9  -2   4   96.79   15.20
   9  -2   4  100.89   15.10
   9   1  -4  289.77   26.40
   9   1  -4  307.47   22.70
   9   1  -4  307.17   24.90
   9   1  -4  318.07   22.40
  -9  -1   4  334.17   25.00
  -9  -1   4  305.97   21.00
  -9  -1   4  279.57   24.70
  -9  -1   4  238.98   20.40
   8   1  -4   30.00   12.50
   8   1  -4   35.50   11.00
   8   1  -4   33.00   12.60
   8   1  -4   37.30   10.70
  -8  -1   4   34.40   12.00
  -8  -1   4   35.40   11.70
  -8  -1   4   22.10   10.60
   7   1  -4  169.18   14.90
   7   1  -4  166.78   15.90
   7   1  -4  160.58   13.70
   7   1  -4  151.38   13.70
  -7  -1   4  132.79   12.90
  -7  -1   4  166.18   14.00
  -7  -1   4  124.29   13.30
  -7  -1   4  147.09   14.10
   6   1  -4 1016.20   31.90
   6   1  -4  959.50   31.00
   6   1  -4  935.01   31.90
   6   1  -4 1044.90   31.40
  -6  -1   4 1010.00   31.60
  -6  -1   4  990.60   31.70
  -6  -1   4  980.70   30.90
  -6  -1   4  999.70   31.20
   5   1  -4 3954.40   93.09
   5   1  -4 3754.02   92.99
   5   1  -4 3898.31   92.89
  -5  -1   4 4036.30   92.89
  -5  -1   4 4046.20   93.09
  -5  -1   4 3935.41   93.39
  -5  -1   4 3838.62   92.89
   4   1  -4  353.86   15.50
   4   1  -4  337.77   15.10
   4   1  -4  376.06   16.40
   4   1  -4  345.57   16.40
  -4  -1   4  354.06   15.70
  -4  -1   4  352.26   16.00
  -4  -1   4  362.36   15.60
  -4  -1   4  339.27   10.00
  -4  -1   4  334.37   15.60
   3   1  -4 1081.09   29.90
   3   1  -4 1039.20   29.50
   3   1  -4 1029.60   29.00
   3   1  -4 1059.29   29.70
  -3  -1   4 1052.29   29.60
  -3  -1   4 1049.70   29.30
  -3  -1   4 1057.79   25.70
  -3  -1   4 1032.50   29.30
  -3  -1   4 1041.10   29.10
   2   1  -4   11.70    4.70
   2   1  -4    8.30    4.40
   2   1  -4    7.50    4.30
   2   1  -4    4.50    4.20
  -2  -1   4   10.40    4.60
  -2  -1   4   10.30    3.50
  -2  -1   4    5.50    4.10
  -2  -1   4   20.20    4.90
  -2  -1   4   14.30    4.50
   1   1  -4 2728.93   65.39
   1   1  -4 2800.92   65.59
   1   1  -4 2766.12   65.19
   1   1  -4 2920.11   65.69
  -1  -1   4 2772.12   64.69
  -1  -1   4 2913.81   65.79
  -1  -1   4 2799.42   65.19
  -1  -1   4 2789.62   65.49
  -1  -1   4 2766.12   65.49
   0   1  -4  910.01   23.00
   0   1  -4  857.11   22.60
   0   1  -4  843.92   22.80
   0   1  -4  868.81   22.90
   0  -1   4  854.31   22.80
   0  -1   4  871.31   23.00
   0  -1   4  865.91   22.60
   0  -1   4  852.01   22.80
   0  -1   4  864.91   23.60
  -1   1  -4 2420.36   56.69
  -1   1  -4 2495.65   56.79
  -1   1  -4 2513.65   56.79
   1  -1   4 2531.45   56.99
   1  -1   4 2450.75   56.79
   1  -1   4 2493.45   59.09
   1  -1   4 2507.95   56.69
   1  -1   4 2461.05   56.79
  -2   1  -4 2579.54   57.79
  -2   1  -4 2571.24   60.99
  -2   1  -4 2301.37   59.29
  -2   1  -4 2574.64   57.69
  -2   1  -4 2604.54   57.69
  -2   1  -4 2584.54   59.89
   2  -1   4 2591.44   57.79
   2  -1   4 2577.64   57.89
   2  -1   4 2624.14   57.79
   2  -1   4 2597.24   57.69
   2  -1   4 2608.84   61.59
  -3   1  -4   96.59    4.30
  -3   1  -4  100.29    4.50
  -3   1  -4   92.19    4.10
  -3   1  -4  104.09    9.00
  -3   1  -4   90.09    4.30
  -3   1  -4   87.19    7.10
   3  -1   4   94.29    7.10
   3  -1   4   87.69    4.20
   3  -1   4   77.69    7.40
   3  -1   4   96.19    4.30
   3  -1   4   97.49    4.40
   3  -1   4   87.19    4.50
  -4   1  -4  123.89   10.70
  -4   1  -4  137.49    4.00
  -4   1  -4  139.19    4.30
  -4   1  -4  132.39    9.00
   4  -1   4  118.49    8.90
   4  -1   4  146.09    4.30
   4  -1   4  142.99    4.40
   4  -1   4  149.19   11.10
  -5   1  -4  272.97   14.70
   5  -1   4  287.27   13.40
   5  -1   4  296.37   15.20
  -6   1  -4   50.89    8.60
   6  -1   4   44.00    7.60
   6  -1   4   46.30    8.60
   7  -1   4  358.46   19.50
   7  -1   4  357.56   18.10
   8  -1   4  515.15   24.20
   8  -1   4  507.75   23.70
   9  -1   4   -3.40   11.10
   9  -1   4   -6.00   11.00
  10  -1   4  142.79   17.40
  10  -1   4  143.09   18.80
   9   0  -4   19.50   14.50
   9   0  -4   48.50   15.50
   9   0  -4   30.60   13.00
   9   0  -4   37.40   12.50
  -9   0   4   38.80   12.60
  -9   0   4   47.50   16.00
  -9   0   4   26.70   14.50
  -9   0   4   21.30   13.80
   8   0  -4  295.97   21.90
   8   0  -4  277.57   19.50
   8   0  -4  295.77   20.10
   8   0  -4  245.58   23.10
  -8   0   4  268.07   22.00
  -8   0   4  262.57   19.90
  -8   0   4  337.97   22.80
  -8   0   4  248.68   21.10
   7   0  -4  388.16   20.90
   7   0  -4  380.56   19.60
   7   0  -4  374.66   22.50
   7   0  -4  400.46   20.30
  -7   0   4  363.66   20.10
  -7   0   4  401.46   21.60
  -7   0   4  384.96   21.10
  -7   0   4  370.66   21.50
   6   0  -4   21.50    9.10
   6   0  -4   40.50    9.00
   6   0  -4   36.20    9.80
  -6   0   4   27.40    9.20
  -6   0   4   18.40    8.60
  -6   0   4   34.60    8.50
  -6   0   4   16.80    8.10
   5   0  -4   67.79    9.50
   5   0  -4   63.29    9.00
   5   0  -4   52.59    8.40
   5   0  -4   71.19    8.40
  -5   0   4   71.19    6.30
  -5   0   4   42.00    8.60
  -5   0   4   55.29   10.10
  -5   0   4   58.09    8.50
  -5   0   4   62.29    8.80
   4   0  -4  912.21   28.10
   4   0  -4  984.20   28.50
   4   0  -4 1027.70   29.70
  -4   0   4  957.60   29.00
  -4   0   4  943.41   28.20
  -4   0   4 1009.50   29.10
  -4   0   4 1022.50   29.10
   3   0  -4 2433.76   61.09
   3   0  -4 2617.24   61.89
   3   0  -4 2564.54   61.39
  -3   0   4 2485.25   61.39
  -3   0   4 2583.14   61.29
  -3   0   4 2542.65   61.49
  -3   0   4 2577.44   61.69
   2   0  -4  203.88   10.50
   2   0  -4  205.28   10.70
   2   0  -4  226.88   10.40
   2   0  -4  202.18   10.80
  -2   0   4  206.78   10.70
  -2   0   4  188.78   10.40
  -2   0   4  201.58   10.80
  -2   0   4  202.88   10.10
   1   0  -4    9.20    4.30
   1   0  -4    3.90    3.60
   1   0  -4    3.30    3.60
  -1   0   4    0.90    3.80
  -1   0   4    9.90    4.20
  -1   0   4    6.60    3.90
  -1   0   4    4.80    3.70
   0   0  -4  606.64   16.90
   0   0  -4  569.24   16.90
   0   0  -4  616.04   17.10
   0   0   4  583.34   16.90
   0   0   4  571.64   16.90
   0   0   4  580.94   16.80
   0   0   4  586.34   16.60
  -1   0  -4  151.28    6.70
  -1   0  -4  159.28    7.00
   1   0   4  160.08    7.00
   1   0   4  153.48    6.80
   1   0   4  163.78    7.20
   1   0   4  151.58    6.90
  -2   0  -4   72.59    4.40
  -2   0  -4   60.99    4.40
  -2   0  -4   71.99    4.40
  -2   0  -4   75.59    6.40
  -2   0  -4   71.49    4.60
   2   0   4   61.29    4.50
   2   0   4   70.59    4.30
   2   0   4   68.69    4.70
   2   0   4   77.09    7.40
   2   0   4   69.39    4.70
  -3   0  -4  369.56    9.40
  -3   0  -4  362.96    9.20
  -3   0  -4  339.67   12.70
  -3   0  -4  366.06    9.10
  -3   0  -4  362.96    9.30
   3   0   4  356.86    9.30
   3   0   4  367.36    9.40
   3   0   4  348.07    9.50
   3   0   4  369.56    9.10
   3   0   4  377.16   14.30
   3   0   4  357.46   12.90
  -4   0  -4  473.05   16.10
   4   0   4  517.95   17.70
   4   0   4  474.25   16.20
   5   0   4   87.89    7.90
   5   0   4  107.69    9.90
   6   0   4  906.41   28.20
   6   0   4  877.81   27.00
   7   0   4   19.20    7.80
   7   0   4   21.20    7.40
   8   0   4  342.87   19.70
   8   0   4  340.87   19.60
   9   0   4   52.59   11.60
   9   0   4   52.39   11.90
  10   0   4  636.84   29.50
  10   0   4  604.64   31.10
   8  -1  -4  912.21   31.70
   8  -1  -4  857.71   31.80
   8  -1  -4  804.32   32.50
   8  -1  -4  889.01   34.60
  -8   1   4  826.92   33.60
  -8   1   4  887.81   32.90
  -8   1   4  874.21   30.60
  -8   1   4  819.22   33.00
   7  -1  -4  504.25   22.20
   7  -1  -4  465.05   24.70
   7  -1  -4  486.15   23.70
   7  -1  -4  468.55   22.00
  -7   1   4  458.25   15.70
  -7   1   4  447.76   23.50
  -7   1   4  488.95   23.80
  -7   1   4  489.15   22.60
   6  -1  -4  567.04   21.50
   6  -1  -4  475.75   21.30
   6  -1  -4  563.24   22.40
   6  -1  -4  540.25   23.50
  -6   1   4  530.55   22.40
  -6   1   4  493.65   21.30
  -6   1   4  484.65   16.80
  -6   1   4  529.45   22.40
  -6   1   4  516.95   22.30
   5  -1  -4  246.18   16.20
   5  -1  -4  223.98   14.10
   5  -1  -4  245.18   15.30
   5  -1  -4  216.98   14.50
  -5   1   4  214.78   13.90
  -5   1   4  253.07   15.50
  -5   1   4  231.38   15.20
  -5   1   4  226.38   11.30
   4  -1  -4  356.86   15.80
   4  -1  -4  388.76   17.20
   4  -1  -4  388.26   16.60
   4  -1  -4  343.37   15.10
  -4   1   4  344.87   15.90
  -4   1   4  344.77   16.40
  -4   1   4  371.16   16.70
  -4   1   4  350.26   16.50
   3  -1  -4   79.89    8.30
   3  -1  -4   93.29    8.40
   3  -1  -4   77.99    8.00
   3  -1  -4   88.99    8.00
  -3   1   4   84.89    8.00
  -3   1   4   96.19    8.70
  -3   1   4   81.09    8.00
  -3   1   4   78.79    7.70
   2  -1  -4   70.49    6.90
   2  -1  -4   86.69    7.80
   2  -1  -4   88.09    7.60
   2  -1  -4   84.99    7.70
  -2   1   4   89.99    8.50
  -2   1   4   80.59    6.90
  -2   1   4   67.49    6.70
  -2   1   4   71.39    6.80
   1  -1  -4   47.10    5.40
   1  -1  -4   29.80    4.70
   1  -1  -4   29.40    5.00
   1  -1  -4   40.20    5.10
  -1   1   4   27.20    4.40
  -1   1   4   39.20    5.10
  -1   1   4   37.80    5.40
  -1   1   4   39.20    5.30
   0  -1  -4 1244.18   31.20
   0  -1  -4 1234.78   31.10
   0  -1  -4 1258.67   31.00
   0  -1  -4 1244.98   31.10
   0   1   4 1284.47   31.20
   0   1   4 1249.57   31.30
   0   1   4 1261.97   31.20
  -1  -1  -4 4826.32  107.59
  -1  -1  -4 4858.51  107.69
  -1  -1  -4 4867.81  107.79
  -1  -1  -4 4765.52  107.69
   1   1   4 4797.92  107.69
   1   1   4 4882.81  107.59
   1   1   4 4905.01  107.89
  -2  -1  -4  656.73   19.50
  -2  -1  -4  671.13   17.10
  -2  -1  -4  693.63   17.30
  -2  -1  -4  693.43   17.20
  -2  -1  -4  690.33   17.10
   2   1   4  685.13   17.10
   2   1   4  671.03   17.20
   2   1   4  667.43   17.20
  -3  -1  -4  303.07    8.60
  -3  -1  -4  304.57    8.50
  -3  -1  -4  301.57   11.50
  -3  -1  -4  302.37    8.50
   3   1   4  310.17    8.50
   3   1   4  308.97    8.70
   3   1   4  305.67    8.70
   3   1   4  327.47   12.00
   3   1   4  309.27    8.70
  -4  -1  -4  205.58    5.60
  -4  -1  -4  202.98    5.80
  -4  -1  -4  205.48    5.90
  -4  -1  -4  202.58   10.00
  -4  -1  -4  208.58    5.70
   4   1   4  202.98    6.10
   4   1   4  201.08    5.70
   4   1   4  198.48    9.90
   4   1   4  212.58   11.30
   4   1   4  212.78    5.90
   5   1   4 3976.20   93.99
   5   1   4 4149.18   94.99
   6   1   4 1779.92   46.90
   6   1   4 1875.61   47.40
   7   1   4  881.01   28.10
   8   1   4 1503.15   42.40
   8   1   4 1546.45   43.50
   9   1   4  231.88   17.80
  10   1   4  271.27   21.00
  10   1   4  227.88   22.50
   8  -2  -4   34.60   11.50
   8  -2  -4   -1.00   13.50
   8  -2  -4   25.70   12.00
   8  -2  -4   25.70   14.40
  -8   2   4    5.80   12.60
  -8   2   4   13.50    9.00
  -8   2   4    0.80   13.90
  -8   2   4   39.90   14.10
  -8   2   4   48.90   11.30
   7  -2  -4  225.78   17.40
   7  -2  -4  245.48   17.90
   7  -2  -4  232.98   17.80
   7  -2  -4  238.48   21.80
  -7   2   4  231.88   19.50
  -7   2   4  264.57   20.30
  -7   2   4  207.18   15.50
  -7   2   4  229.88   18.50
   6  -2  -4  202.38   15.40
   6  -2  -4  233.78   19.40
   6  -2  -4  251.57   18.00
   6  -2  -4  218.28   15.90
  -6   2   4  263.87   17.00
  -6   2   4  237.48   18.00
  -6   2   4  214.28   17.50
  -6   2   4  229.28   14.20
  -6   2   4  228.18   17.30
   5  -2  -4   40.40    7.90
   5  -2  -4   39.70    9.40
   5  -2  -4   38.40    9.00
   5  -2  -4   47.90    8.60
  -5   2   4   35.50    9.00
  -5   2   4   45.50    9.00
  -5   2   4   50.59    9.40
  -5   2   4   29.10    7.90
  -5   2   4   35.10    7.40
   4  -2  -4  454.05   19.30
   4  -2  -4  441.86   18.00
   4  -2  -4  474.05   17.50
   4  -2  -4  450.35   18.50
  -4   2   4  487.85   19.50
  -4   2   4  481.55   19.00
  -4   2   4  470.75   18.80
  -4   2   4  483.15   18.70
   3  -2  -4 1643.34   41.90
   3  -2  -4 1516.95   41.20
   3  -2  -4 1648.73   42.00
   3  -2  -4 1607.64   41.80
  -3   2   4 1660.33   42.40
  -3   2   4 1611.44   41.80
  -3   2   4 1640.74   41.80
   2  -2  -4    2.60    4.50
   2  -2  -4    9.30    4.60
   2  -2  -4   11.50    5.10
   2  -2  -4    5.20    4.10
  -2   2   4    7.80    4.60
  -2   2   4   -0.10    4.30
  -2   2   4    1.90    4.30
  -2   2   4   13.40    4.80
   1  -2  -4 1485.65   36.10
   1  -2  -4 1441.56   36.10
   1  -2  -4 1455.15   36.30
   1  -2  -4 1367.06   36.20
  -1   2   4 1453.95   36.40
  -1   2   4 1446.86   36.10
  -1   2   4 1465.55   36.30
  -1   2   4 1428.76   36.10
   0  -2  -4    6.00    3.00
   0  -2  -4    0.20    3.00
   0  -2  -4    4.10    3.10
   0  -2  -4    4.60    3.20
   0   2   4    2.70    3.30
   0   2   4   -0.10    2.90
   0   2   4    5.80    3.40
   0   2   4    6.80    3.50
  -1  -2  -4 1998.10   47.10
  -1  -2  -4 2009.20   47.40
  -1  -2  -4 2092.59   47.60
  -1  -2  -4 2043.80   47.40
   1   2   4 2055.19   47.50
   1   2   4 2009.40   47.30
   1   2   4 2042.30   47.60
   1   2   4 1982.00   47.20
  -2  -2  -4  514.75   14.10
  -2  -2  -4  511.35   14.10
  -2  -2  -4  493.45   13.80
   2   2   4  522.45   14.20
   2   2   4  516.95   14.30
   2   2   4  513.45   14.00
   2   2   4  490.35   14.00
  -3  -2  -4 9011.20  197.58
  -3  -2  -4 8900.41  197.58
  -3  -2  -4 9069.29  197.78
  -3  -2  -4 9094.99  200.18
  -3  -2  -4 9067.29  197.88
   3   2   4 9004.50  197.58
   3   2   4 9202.48  197.78
   3   2   4 9063.89  197.68
   3   2   4 8999.80  197.88
  -4  -2  -4 1187.68   28.00
  -4  -2  -4 1154.78   31.00
  -4  -2  -4 1176.38   27.70
  -4  -2  -4 1209.08   27.80
   4   2   4 1191.18   27.90
   4   2   4 1183.28   28.20
   4   2   4 1202.98   31.40
   4   2   4 1189.98   28.00
   4   2   4 1209.48   27.70
  -5  -2  -4  442.36   11.50
  -5  -2  -4  432.26   15.80
  -5  -2  -4  430.06   11.20
  -5  -2  -4  449.36   11.60
  -5  -2  -4  425.26   11.60
   5   2   4  435.86   11.90
   5   2   4  439.76   11.30
   5   2   4  439.06   11.70
   5   2   4  441.86   15.90
   5   2   4  431.86   11.60
  -6  -2  -4    2.50    2.00
  -6  -2  -4    2.70    2.40
  -6  -2  -4    2.80    2.40
  -6  -2  -4    5.90    2.50
   6   2   4    4.90    2.60
   6   2   4    2.20    5.10
   6   2   4    8.40    2.50
   6   2   4    3.60    2.80
   6   2   4    1.70    5.70
   6   2   4    4.50    2.30
  -7  -2  -4  659.03   17.20
  -7  -2  -4  699.63   16.00
  -7  -2  -4  700.23   16.90
   7   2   4  726.03   23.80
   7   2   4  684.73   17.20
   7   2   4  709.93   23.90
   7   2   4  689.83   16.20
   7   2   4  652.73   17.30
  -8  -2  -4  506.95   13.30
  -8  -2  -4  486.35   13.20
   8   2   4  518.25   21.80
   8   2   4  480.35   13.50
   8   2   4  512.35   20.50
  -9  -2  -4    4.50    3.40
  -9  -2  -4    3.00    3.60
   9   2   4    2.40    4.00
   9   2   4    2.90    3.50
   9   2   4   -2.20    7.80
 -10  -2  -4  141.79    6.70
 -10  -2  -4  128.89    7.20
  10   2   4  132.79   13.80
  10   2   4  131.89    7.00
  10   2   4  118.69    8.00
  11   2   4   11.40    5.50
  11   2   4   12.30   13.80
  11   2   4    7.00    4.00
  11   2   4    7.20   11.80
   7  -3  -4   36.00   10.70
   7  -3  -4   48.20   11.50
   7  -3  -4   41.30   13.00
   7  -3  -4   41.50   13.30
  -7   3   4   44.90   12.80
  -7   3   4   39.40   10.70
  -7   3   4   45.80   14.60
  -7   3   4   41.90   10.40
  -7   3   4   34.00   12.50
   6  -3  -4  293.27   20.40
   6  -3  -4  254.47   21.00
   6  -3  -4  251.47   17.40
   6  -3  -4  266.07   17.30
  -6   3   4  271.17   17.90
  -6   3   4  277.77   19.30
  -6   3   4  274.17   17.40
  -6   3   4  291.87   19.60
  -6   3   4  282.07   26.20
   5  -3  -4  289.27   15.60
   5  -3  -4  331.57   18.20
   5  -3  -4  298.97   18.30
   5  -3  -4  317.37   17.70
  -5   3   4  277.37   16.40
  -5   3   4  321.67   17.80
  -5   3   4  311.47   17.80
  -5   3   4  294.57   16.90
  -5   3   4  321.77   18.20
   4  -3  -4   -2.10    5.80
   4  -3  -4   -3.30    6.30
   4  -3  -4   -0.90    7.00
   4  -3  -4    6.70    6.10
  -4   3   4    1.80    6.60
  -4   3   4    0.20    6.80
   3  -3  -4   13.80    5.80
   3  -3  -4   21.70    6.20
   3  -3  -4   21.80    6.50
   3  -3  -4    8.80    4.90
  -3   3   4   11.60    5.70
  -3   3   4   20.20    6.70
  -3   3   4   18.00    6.10
   2  -3  -4 2373.66   56.69
   2  -3  -4 2272.87   56.49
   2  -3  -4 2311.17   56.89
   2  -3  -4 2374.56   56.49
  -2   3   4 2339.97   56.39
  -2   3   4 2309.37   56.89
  -2   3   4 2320.57   56.69
  -2   3   4 2382.46   56.89
   1  -3  -4 3139.89   71.89
   1  -3  -4 3030.30   71.19
   1  -3  -4 3083.79   71.49
   1  -3  -4 3123.49   71.59
  -1   3   4 3054.49   71.39
  -1   3   4 3010.70   71.39
  -1   3   4 2970.10   71.59
   0  -3  -4  667.53   19.20
   0  -3  -4  665.13   19.50
   0  -3  -4  622.44   18.90
   0  -3  -4  653.43   18.70
   0   3   4  631.64   19.30
   0   3   4  693.93   19.10
   0   3   4  675.43   19.10
   0   3   4  656.33   19.10
  -1  -3  -4 1902.91   45.90
  -1  -3  -4 1881.01   45.30
  -1  -3  -4 1963.90   45.70
  -1  -3  -4 1915.21   45.70
   1   3   4 1932.51   45.70
   1   3   4 1913.41   45.90
   1   3   4 1923.41   45.50
   1   3   4 1901.41   45.60
  -2  -3  -4  939.81   24.20
  -2  -3  -4  979.40   24.10
  -2  -3  -4  957.80   24.60
  -2  -3  -4  897.51   24.00
   2   3   4  919.51   24.20
   2   3   4  967.60   24.30
   2   3   4  912.81   24.30
   2   3   4  957.30   24.10
  -3  -3  -4 2444.36   56.09
  -3  -3  -4 2449.35   55.89
  -3  -3  -4 2449.16   57.49
  -3  -3  -4 2433.86   55.99
   3   3   4 2419.36   55.99
   3   3   4 2474.45   55.89
   3   3   4 2399.06   56.29
   3   3   4 2403.86   56.09
  -4  -3  -4  348.77   11.50
  -4  -3  -4  366.26   11.50
  -4  -3  -4  359.56   11.10
  -4  -3  -4  362.86   11.00
  -4  -3  -4  344.67   13.20
   4   3   4  365.76   11.70
   4   3   4  356.96   13.40
   4   3   4  362.36   11.30
   4   3   4  366.56   11.10
   4   3   4  365.86   11.60
  -5  -3  -4 2282.17   51.69
  -5  -3  -4 2250.27   54.89
  -5  -3  -4 2248.18   51.69
  -5  -3  -4 2245.08   51.99
  -5  -3  -4 2247.68   51.99
   5   3   4 2239.58   55.09
   5   3   4 2253.67   52.19
   5   3   4 2262.67   51.59
   5   3   4 2256.37   51.89
   5   3   4 2299.27   52.09
  -6  -3  -4   42.90    3.90
  -6  -3  -4   41.80    4.20
  -6  -3  -4   40.30    4.40
   6   3   4   41.00    4.30
   6   3   4   46.90    4.90
   6   3   4   23.90    4.10
   6   3   4   33.60    3.90
   6   3   4   32.40    6.30
  -7  -3  -4  126.69    7.10
  -7  -3  -4  126.49    6.70
  -7  -3  -4  107.39    6.90
   7   3   4  125.79   12.00
   7   3   4  113.39    7.10
   7   3   4  116.69    7.30
   7   3   4  115.89    7.50
   7   3   4  118.09    7.00
   7   3   4  134.59   12.10
  -8  -3  -4   32.50    4.70
  -8  -3  -4   45.80    5.30
  -8  -3  -4   34.60    5.30
  -8  -3  -4   41.10    4.50
   8   3   4   45.20    5.50
   8   3   4   40.20    8.40
   8   3   4   45.80    5.40
   8   3   4   36.90    8.60
   8   3   4   35.60    5.10
   8   3   4   35.20    4.50
  -9  -3  -4  258.47    9.50
  -9  -3  -4  221.68   11.10
  -9  -3  -4  249.08   10.50
  -9  -3  -4  281.27    9.90
   9   3   4  251.27    9.70
   9   3   4  249.18   16.50
   9   3   4  265.27   18.40
   9   3   4  241.58   11.20
 -10  -3  -4   95.79    6.70
 -10  -3  -4  114.59    8.90
 -10  -3  -4  104.69    8.90
 -10  -3  -4   91.59    7.30
  10   3   4  107.49    7.90
  10   3   4  130.69   13.10
  10   3   4  105.79   10.00
  10   3   4  100.09    7.20
 -11  -3  -4    4.40    5.50
 -11  -3  -4   11.70    5.90
  11   3   4   11.50   13.40
  11   3   4   10.60    6.30
  11   3   4    7.30    5.70
  11   3   4    6.50    4.10
  11   3   4    2.70   10.60
   7  -4  -4    8.70   13.50
   7  -4  -4   -4.40   10.20
   7  -4  -4   -3.90   10.70
   7  -4  -4   -7.40   14.00
  -7   4   4    2.80    9.90
  -7   4   4   15.70   15.50
  -7   4   4    2.20   13.50
  -7   4   4  -16.10   11.80
  -7   4   4   -4.60   10.50
   6  -4  -4  862.61   33.60
   6  -4  -4  966.40   31.50
   6  -4  -4  977.40   33.60
   6  -4  -4  928.31   31.90
  -6   4   4  947.01   33.10
  -6   4   4  965.40   31.60
  -6   4   4  950.40   37.80
  -6   4   4  957.20   31.30
  -6   4   4  974.70   34.20
   5  -4  -4   99.29   11.70
   5  -4  -4   82.89   10.60
   5  -4  -4  100.59   11.90
   5  -4  -4  115.29   11.80
  -5   4   4   86.79   11.70
  -5   4   4  103.09   11.90
   4  -4  -4 1558.44   42.20
   4  -4  -4 1546.45   42.40
   4  -4  -4 1594.04   42.30
  -4   4   4 1519.65   41.90
  -4   4   4 1497.45   41.80
  -4   4   4 1554.14   42.60
   3  -4  -4  814.72   25.20
   3  -4  -4  790.52   24.60
   3  -4  -4  763.72   25.10
   3  -4  -4  815.42   24.90
  -3   4   4  785.62   25.70
  -3   4   4  763.62   24.90
  -3   4   4  775.32   24.80
   2  -4  -4  525.75   18.70
   2  -4  -4  528.05   18.20
   2  -4  -4  533.65   18.90
   2  -4  -4  498.55   18.10
  -2   4   4  511.35   19.20
  -2   4   4  529.05   18.50
  -2   4   4  564.14   18.70
   1  -4  -4  381.96   15.00
   1  -4  -4  371.66   14.50
   1  -4  -4  356.96   14.50
   1  -4  -4  373.96   14.10
  -1   4   4  365.96   14.30
  -1   4   4  357.26   13.90
  -1   4   4  371.36   15.10
  -1   4   4  357.46   14.60
   0  -4  -4 1385.66   35.90
   0  -4  -4 1386.56   35.20
   0  -4  -4 1417.36   35.70
   0   4   4 1311.07   35.40
   0   4   4 1426.16   35.60
   0   4   4 1376.46   36.00
  -1  -4  -4 2321.07   55.89
  -1  -4  -4 2336.87   55.89
  -1  -4  -4 2350.66   55.69
  -1  -4  -4 2345.57   56.29
   1   4   4 2409.76   55.99
   1   4   4 2334.67   56.29
   1   4   4 2426.26   55.79
   1   4   4 2285.77   55.79
  -2  -4  -4  396.26   13.10
  -2  -4  -4  369.16   13.10
  -2  -4  -4  363.26   12.50
  -2  -4  -4  360.46   13.40
   2   4   4  347.27   12.90
   2   4   4  383.16   13.10
   2   4   4  367.06   13.20
   2   4   4  386.36   12.70
  -3  -4  -4   16.80    4.20
  -3  -4  -4   18.90    3.70
  -3  -4  -4   17.90    3.70
  -3  -4  -4   19.90    4.30
  -3  -4  -4   24.10    4.60
   3   4   4   15.90    3.90
   3   4   4   19.00    3.80
   3   4   4   17.80    4.10
   3   4   4   20.30    4.20
  -4  -4  -4  209.08    8.90
  -4  -4  -4  194.78   10.10
   4   4   4  210.48    8.90
   4   4   4  221.38    9.30
   4   4   4  205.98    9.70
  -5  -4  -4   83.79    6.30
  -5  -4  -4   75.89    6.40
  -5  -4  -4   78.19    7.20
  -5  -4  -4   84.29    7.20
  -5  -4  -4   86.29    7.50
   5   4   4   86.69    7.30
   5   4   4   80.59    7.20
   5   4   4   77.49    7.00
   5   4   4   88.19    6.50
   5   4   4   80.79    7.50
  -6  -4  -4   28.80    5.10
  -6  -4  -4   24.30    4.50
  -6  -4  -4   23.30    4.60
  -6  -4  -4   21.00    4.20
   6   4   4   26.20    4.50
   6   4   4   18.90    4.50
   6   4   4   21.30    6.10
   6   4   4   22.90    4.40
   6   4   4   25.10    4.80
  -7  -4  -4  333.57   12.00
  -7  -4  -4  343.27   12.40
  -7  -4  -4  338.67   12.10
  -7  -4  -4  330.57   12.40
   7   4   4  346.27   12.50
   7   4   4  335.97   16.10
   7   4   4  326.67   11.90
   7   4   4  307.97   12.40
   7   4   4  313.37   12.20
  -8  -4  -4    4.60    4.70
  -8  -4  -4   -4.10    4.90
  -8  -4  -4    4.80    4.30
   8   4   4   11.50    7.50
   8   4   4    4.80    4.90
   8   4   4   11.00    4.60
   8   4   4    4.10    4.40
   8   4   4   -0.60    4.70
  -9  -4  -4 1266.57   31.90
  -9  -4  -4 1213.98   32.30
  -9  -4  -4 1288.37   32.50
   9   4   4 1262.37   32.90
   9   4   4 1302.47   36.90
   9   4   4 1277.77   32.90
   9   4   4 1251.27   32.40
   9   4   4 1299.97   39.10
 -10  -4  -4  323.07   13.00
 -10  -4  -4  321.27   14.30
 -10  -4  -4  304.57   14.40
 -10  -4  -4  322.87   14.30
  10   4   4  318.57   14.10
  10   4   4  303.07   14.50
  10   4   4  337.37   19.10
  10   4   4  331.07   13.50
  10   4   4  307.17   14.90
 -11  -4  -4  101.59   10.00
 -11  -4  -4  115.49   10.20
 -11  -4  -4  121.39    9.70
  11   4   4  118.99   13.70
  11   4   4  128.69   11.50
  11   4   4  110.09    8.30
  11   4   4  102.39    9.90
  11   4   4   95.39   16.60
  11   4   4  124.69   10.20
   6  -5  -4   77.29   14.30
   6  -5  -4   50.39   12.40
   6  -5  -4   53.19   12.20
   6  -5  -4   56.39   14.10
  -6   5   4   58.49   13.80
  -6   5   4   58.99   13.60
  -6   5   4   58.79   11.30
  -6   5   4   56.39   12.70
  -6   5   4   31.60   13.30
   5  -5  -4  261.57   19.80
   5  -5  -4  260.87   17.80
   5  -5  -4  253.87   19.00
   5  -5  -4  295.17   18.40
  -5   5   4  239.18   16.80
  -5   5   4  247.58   20.10
  -5   5   4  216.78   19.20
  -5   5   4  244.28   19.40
   4  -5  -4  765.22   27.00
   4  -5  -4  768.02   26.60
   4  -5  -4  710.23   25.70
   4  -5  -4  771.22   26.60
  -4   5   4  754.52   26.90
  -4   5   4  786.52   26.60
  -4   5   4  768.72   29.00
  -4   5   4  762.52   27.30
   3  -5  -4   64.39    9.10
   3  -5  -4   51.29    8.30
   3  -5  -4   44.00    8.50
   3  -5  -4   41.00    8.30
  -3   5   4   46.20    9.00
  -3   5   4   55.19    8.50
  -3   5   4   48.00    8.70
  -3   5   4   49.99    8.20
   2  -5  -4  216.58   13.50
   2  -5  -4  243.88   13.40
   2  -5  -4  229.38   12.80
   2  -5  -4  254.87   14.20
  -2   5   4  239.38   15.40
  -2   5   4  230.08   13.60
  -2   5   4  248.48   13.70
  -2   5   4  217.38   14.20
   1  -5  -4   42.20    7.30
   1  -5  -4   53.99    7.70
   1  -5  -4   39.30    6.50
   1  -5  -4   45.40    6.70
  -1   5   4   54.19    7.80
  -1   5   4   48.80    6.80
  -1   5   4   34.50    6.90
  -1   5   4   48.70    6.70
   0  -5  -4   53.19    7.10
   0  -5  -4   38.10    6.00
   0  -5  -4   34.00    6.00
   0  -5  -4   34.10    5.80
   0   5   4   35.70    6.00
   0   5   4   31.50    5.60
   0   5   4   31.70    6.80
   0   5   4   24.10    5.80
  -1  -5  -4  201.78   11.40
  -1  -5  -4  236.38   11.50
  -1  -5  -4  234.68   11.90
  -1  -5  -4  220.78   11.00
   1   5   4  230.28   10.70
   1   5   4  215.68   11.80
   1   5   4  234.88   11.40
   1   5   4  244.68   11.70
  -2  -5  -4  638.94   18.90
  -2  -5  -4  621.54   19.40
  -2  -5  -4  592.14   19.90
  -2  -5  -4  625.64   19.40
   2   5   4  608.34   19.80
   2   5   4  645.14   19.20
   2   5   4  595.44   19.20
   2   5   4  613.84   19.30
  -3  -5  -4   40.90    5.60
  -3  -5  -4   45.80    5.30
  -3  -5  -4   41.80    5.40
  -3  -5  -4   43.10    5.60
  -3  -5  -4   34.10    5.80
   3   5   4   44.60    6.30
   3   5   4   49.99    5.90
   3   5   4   42.40    6.00
   3   5   4   38.20    5.30
  -4  -5  -4  865.21   23.70
  -4  -5  -4  832.52   24.20
  -4  -5  -4  865.11   23.90
  -4  -5  -4  854.01   24.60
  -4  -5  -4  836.92   23.90
   4   5   4  855.91   23.90
   4   5   4  838.52   24.20
   4   5   4  887.51   24.60
   4   5   4  842.72   23.60
  -5  -5  -4 1947.31   48.00
  -5  -5  -4 1955.40   48.40
  -5  -5  -4 1829.72   50.59
  -5  -5  -4 2026.80   48.90
  -5  -5  -4 1986.40   48.00
   5   5   4 2012.90   48.30
   5   5   4 1962.70   48.70
   5   5   4 2026.10   48.60
   5   5   4 2081.39   49.70
   5   5   4 2034.80   47.90
  -6  -5  -4   76.39    7.00
  -6  -5  -4   75.89    6.80
  -6  -5  -4   71.89    7.50
  -6  -5  -4   78.09    7.10
   6   5   4   70.09    8.00
   6   5   4   83.39    7.60
   6   5   4   66.49    6.90
   6   5   4   66.49    6.60
   6   5   4   64.19    6.90
  -7  -5  -4  217.18   11.30
  -7  -5  -4  224.98   11.10
  -7  -5  -4  197.38   11.30
   7   5   4  204.58   10.80
   7   5   4  224.78   11.00
   7   5   4  185.48   11.20
   7   5   4  191.18   13.90
   7   5   4  198.18   11.60
  -8  -5  -4    3.50    5.20
  -8  -5  -4    2.40    5.80
  -8  -5  -4    7.50    5.00
  -8  -5  -4   -0.50    5.70
   8   5   4   12.50    8.20
   8   5   4    5.20    5.40
   8   5   4    8.60    5.20
   8   5   4    3.30    5.70
   8   5   4    0.70    5.50
  -9  -5  -4  213.38   13.00
  -9  -5  -4  214.58   12.90
  -9  -5  -4  225.28   12.70
  -9  -5  -4  221.48   12.50
   9   5   4  219.68   12.40
   9   5   4  281.17   19.30
   9   5   4  214.78   12.60
   9   5   4  222.18   13.20
   9   5   4  234.68   13.60
 -10  -5  -4   20.00    7.70
 -10  -5  -4   -4.40    7.10
 -10  -5  -4   -0.60    7.20
  10   5   4   10.80    7.10
  10   5   4    0.90    6.60
  10   5   4   -0.10    7.40
  10   5   4   11.60    9.20
  10   5   4    2.90    7.30
 -11  -5  -4  201.78   15.90
 -11  -5  -4  250.17   14.70
 -11  -5  -4  246.88   15.80
  11   5   4  236.08   19.10
  11   5   4  194.88   15.70
  11   5   4  186.98   15.80
  11   5   4  212.08   19.90
  11   5   4  235.08   16.30
   6  -6  -4  351.46   24.00
   5  -6  -4   69.99   13.60
   5  -6  -4   59.29   12.00
   5  -6  -4   53.49   12.00
   5  -6  -4   66.99   13.20
  -5   6   4   57.59   13.20
  -5   6   4   61.59   12.20
  -5   6   4   67.49   20.60
  -5   6   4   55.29   11.80
   4  -6  -4   10.10    9.10
   4  -6  -4   12.30    9.10
   4  -6  -4   -0.10    8.90
   4  -6  -4    7.00    8.70
  -4   6   4   17.90    8.80
  -4   6   4    7.10   11.40
  -4   6   4    1.50    8.50
  -4   6   4   16.50   10.10
   3  -6  -4   25.00    9.00
   3  -6  -4   31.50    8.90
   3  -6  -4   11.10    7.70
   3  -6  -4   29.80    8.60
  -3   6   4   33.90    8.70
  -3   6   4   35.00    8.90
  -3   6   4   21.70    9.40
   2  -6  -4   91.09   10.00
   2  -6  -4   83.09   10.10
   2  -6  -4   95.19   10.90
   2  -6  -4   96.69   10.00
  -2   6   4  110.99   10.40
  -2   6   4   90.19    9.40
  -2   6   4   90.59    9.80
  -2   6   4   95.59   10.80
   1  -6  -4  289.87   14.40
   1  -6  -4  303.67   14.90
   1  -6  -4  294.07   15.50
   1  -6  -4  315.87   15.90
  -1   6   4  295.37   14.90
  -1   6   4  291.47   16.10
  -1   6   4  259.47   15.30
   0  -6  -4  686.83   23.70
   0  -6  -4  664.73   22.10
   0  -6  -4  681.33   22.60
   0  -6  -4  723.13   23.30
   0   6   4  678.43   22.10
   0   6   4  701.63   22.80
   0   6   4  702.83   23.30
   0   6   4  719.13   24.10
  -1  -6  -4    8.70    5.90
  -1  -6  -4    7.40    5.60
  -1  -6  -4   16.00    5.50
  -1  -6  -4   -1.70    5.00
   1   6   4   21.00    5.80
   1   6   4   11.20    5.80
   1   6   4   13.20    6.30
   1   6   4   16.50    5.30
  -2  -6  -4 1813.72   46.10
  -2  -6  -4 1832.52   45.50
  -2  -6  -4 1804.32   46.50
  -2  -6  -4 1808.02   45.80
   2   6   4 1809.82   45.80
   2   6   4 1759.72   46.50
   2   6   4 1743.43   45.90
   2   6   4 1830.72   45.60
  -3  -6  -4  937.21   27.30
  -3  -6  -4  943.81   27.50
  -3  -6  -4  947.51   26.50
  -3  -6  -4  907.01   25.30
  -3  -6  -4  937.11   26.70
   3   6   4  927.41   27.50
   3   6   4  936.31   26.80
   3   6   4  923.31   26.30
   3   6   4  873.81   26.60
  -4  -6  -4  853.71   25.80
  -4  -6  -4  834.22   23.70
  -4  -6  -4  863.71   25.20
  -4  -6  -4  823.82   24.50
  -4  -6  -4  876.21   25.10
   4   6   4  844.22   25.60
   4   6   4  865.01   25.10
   4   6   4  851.41   24.50
   4   6   4  807.72   25.00
  -5  -6  -4  587.84   20.40
  -5  -6  -4  596.44   19.10
  -5  -6  -4  572.04   18.60
  -5  -6  -4  554.44   19.40
  -5  -6  -4  562.54   18.70
   5   6   4  578.74   18.90
   5   6   4  573.64   19.70
   5   6   4  598.84   19.60
   5   6   4  569.84   19.30
  -6  -6  -4 2010.00   49.00
  -6  -6  -4 1948.41   48.60
  -6  -6  -4 1906.71   49.80
  -6  -6  -4 1970.50   48.50
   6   6   4 1919.91   49.30
   6   6   4 1927.91   49.30
   6   6   4 1945.11   48.70
   6   6   4 1922.01   48.80
   6   6   4 1981.00   48.40
  -7  -6  -4 2280.57   67.39
  -7  -6  -4 2653.33   62.49
  -7  -6  -4 2580.94   61.79
   7   6   4 2602.14   63.59
   7   6   4 2622.34   61.69
   7   6   4 2568.74   61.99
   7   6   4 2545.45   62.09
   7   6   4 2592.14   62.49
  -8  -6  -4   15.40    6.10
  -8  -6  -4   11.70    6.80
  -8  -6  -4   19.30    7.00
  -8  -6  -4   15.00    6.80
   8   6   4   22.00    6.70
   8   6   4   14.60    7.00
   8   6   4   20.30    8.30
   8   6   4   13.70    6.20
   8   6   4   28.20    7.00
  -9  -6  -4  536.35   20.70
  -9  -6  -4  561.04   20.80
  -9  -6  -4  588.24   20.80
  -9  -6  -4  542.55   20.20
   9   6   4  605.54   25.20
   9   6   4  546.85   20.60
   9   6   4  542.75   21.00
   9   6   4  601.94   20.40
 -10  -6  -4   26.10    9.00
 -10  -6  -4   13.50    8.40
 -10  -6  -4   29.50    9.00
  10   6   4   34.00    9.20
  10   6   4   25.00    7.80
  10   6   4   19.00    8.00
  10   6   4   28.60    8.20
 -11  -6  -4  549.15   22.00
 -11  -6  -4  535.45   21.70
 -11  -6  -4  563.24   22.70
  11   6   4  531.25   21.50
  11   6   4  497.65   21.70
  11   6   4  526.85   22.70
  11   6   4  531.95   30.70
  11   6   4  521.35   24.40
  11   6   4  508.25   21.70
   5  -7  -4   32.20   14.20
   5  -7  -4   -2.90   12.70
   5  -7  -4   17.00   11.70
   5  -7  -4    9.30   11.60
  -5   7   4   13.00   13.30
  -5   7   4    7.80   14.90
  -5   7   4    6.20   13.20
  -5   7   4   26.00   12.80
   4  -7  -4   92.79   14.00
   4  -7  -4  109.79   14.40
   4  -7  -4  110.79   13.90
  -4   7   4  105.89   15.50
  -4   7   4   83.29   16.40
  -4   7   4  109.09   16.50
  -4   7   4   97.09   13.60
  -4   7   4  100.29   13.50
   3  -7  -4   92.29   11.50
   3  -7  -4   77.89   11.20
   3  -7  -4   71.69   11.80
   3  -7  -4   83.89   12.00
  -3   7   4   71.29   11.40
  -3   7   4   88.69   11.70
  -3   7   4   77.39   12.90
   2  -7  -4 1140.29   33.90
   2  -7  -4 1108.99   34.10
   2  -7  -4 1155.98   34.90
   2  -7  -4 1034.20   37.50
  -2   7   4 1077.79   33.60
  -2   7   4 1140.69   34.40
  -2   7   4 1079.69   35.70
   1  -7  -4   87.79   10.10
   1  -7  -4   83.49   10.70
   1  -7  -4   82.59   10.00
  -1   7   4   85.39   10.00
  -1   7   4   97.29   11.80
  -1   7   4   87.69   10.00
  -1   7   4   83.99    9.80
   0  -7  -4  324.07   16.40
   0  -7  -4  306.67   16.80
   0  -7  -4  336.87   17.20
   0  -7  -4  335.17   17.00
   0   7   4  318.67   16.20
   0   7   4  332.27   15.60
   0   7   4  353.96   18.20
   0   7   4  337.57   16.30
  -1  -7  -4   45.80    8.20
  -1  -7  -4   48.10    7.50
  -1  -7  -4   60.29    9.20
  -1  -7  -4   44.60    7.80
   1   7   4   61.29    9.40
   1   7   4   49.80    7.50
   1   7   4   56.29    8.70
   1   7   4   42.20    7.70
  -2  -7  -4 1679.43   43.60
  -2  -7  -4 1640.34   44.40
  -2  -7  -4 1682.43   43.30
  -2  -7  -4 1629.34   43.70
   2   7   4 1609.34   43.50
   2   7   4 1587.44   44.30
   2   7   4 1634.34   42.80
   2   7   4 1662.63   43.80
  -3  -7  -4  681.73   22.50
  -3  -7  -4  721.83   20.60
  -3  -7  -4  687.63   23.60
  -3  -7  -4  701.93   24.40
  -3  -7  -4  710.53   23.30
   3   7   4  682.83   22.40
   3   7   4  704.73   23.20
   3   7   4  663.93   23.00
   3   7   4  701.03   24.30
  -4  -7  -4  390.96   17.20
  -4  -7  -4  424.66   17.00
  -4  -7  -4  416.26   18.30
  -4  -7  -4  416.56   16.40
  -4  -7  -4  412.46   14.80
   4   7   4  414.26   17.30
   4   7   4  438.26   17.40
   4   7   4  378.36   16.00
   4   7   4  394.76   17.40
  -5  -7  -4  695.53   22.70
  -5  -7  -4  683.33   24.10
  -5  -7  -4  690.83   23.30
  -5  -7  -4  644.24   24.60
  -5  -7  -4  709.03   21.10
   5   7   4  678.03   23.10
   5   7   4  699.13   23.40
   5   7   4  696.83   23.50
   5   7   4  686.43   22.30
  -6  -7  -4  250.57   14.90
  -6  -7  -4  257.87   14.30
  -6  -7  -4  258.17   15.50
  -6  -7  -4  267.17   13.80
   6   7   4  278.67   14.80
   6   7   4  275.17   14.90
   6   7   4  270.47   14.10
   6   7   4  259.17   15.10
  -7  -7  -4  193.18   13.80
  -7  -7  -4  187.28   13.00
  -7  -7  -4  206.58   13.30
  -7  -7  -4  191.08   14.90
   7   7   4  201.68   14.10
   7   7   4  200.28   13.60
   7   7   4  207.58   13.20
   7   7   4  193.68   14.30
  -8  -7  -4  307.47   16.50
  -8  -7  -4  343.17   16.40
   8   7   4  322.17   16.00
   8   7   4  300.07   16.60
   8   7   4  282.97   20.00
   8   7   4  309.47   16.30
   8   7   4  303.97   17.00
  -9  -7  -4  186.58   15.50
  -9  -7  -4  184.38   14.80
  -9  -7  -4  185.78   15.70
   9   7   4  191.08   14.80
   9   7   4  182.18   17.30
   9   7   4  186.48   14.90
   9   7   4  179.48   14.40
   9   7   4  216.18   16.30
 -10  -7  -4  102.59   11.80
 -10  -7  -4  118.59   11.90
 -10  -7  -4   99.49   11.40
  10   7   4  102.79   11.90
  10   7   4  117.19   12.60
  10   7   4  129.49   12.10
  10   7   4  101.69   11.60
  10   7   4  118.29   17.50
 -11  -7  -4  253.77   19.20
 -11  -7  -4  273.87   19.00
 -11  -7  -4  283.07   20.10
 -11  -7  -4  278.97   20.00
  11   7   4  261.37   21.10
  11   7   4  276.47   19.10
  11   7   4  239.18   18.20
  11   7   4  277.67   20.60
  11   7   4  267.87   19.20
   4  -8  -4   52.69   14.00
   4  -8  -4   71.49   14.60
   4  -8  -4   88.79   14.80
   4  -8  -4   73.59   15.30
  -4   8   4   60.69   14.80
  -4   8   4   76.49   15.00
  -4   8   4   49.00   14.00
  -4   8   4  101.29   18.90
   3  -8  -4  315.27   21.10
   3  -8  -4  308.37   22.20
   3  -8  -4  293.97   22.10
   3  -8  -4  312.97   21.20
  -3   8   4  343.37   27.20
  -3   8   4  327.87   24.50
  -3   8   4  296.87   22.00
  -3   8   4  362.66   22.00
   2  -8  -4  364.16   21.70
   2  -8  -4  349.96   19.40
   2  -8  -4  353.46   21.30
   2  -8  -4  325.57   19.40
  -2   8   4  336.77   20.80
  -2   8   4  349.47   22.90
  -2   8   4  348.37   20.50
   1  -8  -4  431.76   26.40
   1  -8  -4  462.95   20.80
   1  -8  -4  487.15   21.60
   1  -8  -4  547.45   22.80
  -1   8   4  485.75   21.60
  -1   8   4  510.35   22.10
  -1   8   4  471.45   23.80
  -1   8   4  453.65   22.50
   0  -8  -4 1582.34   44.70
   0  -8  -4 1546.25   43.60
   0  -8  -4 1443.36   42.70
   0  -8  -4 1578.94   43.70
   0   8   4 1557.24   43.30
   0   8   4 1556.44   42.70
   0   8   4 1551.64   44.80
   0   8   4 1540.95   43.90
  -1  -8  -4   -1.00    7.00
  -1  -8  -4    8.00    7.40
  -1  -8  -4    5.50    7.40
  -1  -8  -4    9.20    7.70
   1   8   4    5.70    7.90
   1   8   4    3.30    7.00
   1   8   4    2.80    8.50
   1   8   4    3.10    6.80
  -2  -8  -4  468.85   19.90
  -2  -8  -4  434.96   19.30
  -2  -8  -4  459.85   21.10
  -2  -8  -4  455.45   19.90
   2   8   4  474.35   20.90
   2   8   4  478.85   20.20
   2   8   4  464.65   19.90
  -3  -8  -4  351.06   17.50
  -3  -8  -4  370.06   17.10
  -3  -8  -4  333.47   13.60
  -3  -8  -4  339.27   18.90
  -3  -8  -4  355.26   17.40
   3   8   4  377.16   18.30
   3   8   4  339.57   17.80
   3   8   4  371.36   17.60
   3   8   4  353.16   16.90
  -4  -8  -4 1833.12   48.90
  -4  -8  -4 1859.21   48.90
  -4  -8  -4 1836.12   48.50
  -4  -8  -4 1879.81   45.10
  -4  -8  -4 1799.02   49.60
   4   8   4 1843.42   49.90
   4   8   4 1887.41   49.10
   4   8   4 1883.21   48.50
   4   8   4 1833.62   49.30
  -5  -8  -4  360.26   16.50
  -5  -8  -4  360.46   14.30
  -5  -8  -4  358.96   17.30
  -5  -8  -4  378.06   19.10
  -5  -8  -4  334.57   17.90
   5   8   4  342.57   18.30
   5   8   4  334.07   17.40
   5   8   4  374.96   17.10
   5   8   4  345.87   17.50
  -6  -8  -4   83.99   10.00
  -6  -8  -4   73.89   10.10
  -6  -8  -4   88.99   10.10
  -6  -8  -4   88.39   11.00
   6   8   4   70.19   11.90
   6   8   4   83.09   11.00
   6   8   4   87.79   10.10
   6   8   4   75.39    9.80
  -7  -8  -4   34.80    9.50
  -7  -8  -4   24.70    8.20
  -7  -8  -4   42.10    9.60
  -7  -8  -4   56.89    9.20
   7   8   4   27.60    7.60
   7   8   4   38.80    9.10
   7   8   4   32.80    8.60
   7   8   4   33.30    8.90
  -8  -8  -4  104.69   11.60
  -8  -8  -4  110.39   12.50
  -8  -8  -4  103.09   11.20
   8   8   4  100.69   10.90
   8   8   4   95.49   11.30
   8   8   4   97.39   11.10
   8   8   4  110.79   12.10
  -9  -8  -4    0.80    9.40
   9   8   4    7.70    8.60
   9   8   4   12.60    9.10
   9   8   4    7.90    8.20
   9   8   4   11.20   10.80
   9   8   4    5.60    9.00
 -10  -8  -4   67.79   12.10
 -10  -8  -4   78.99   12.10
 -10  -8  -4   54.99   11.40
 -10  -8  -4   60.39   11.80
  10   8   4   46.10   14.10
  10   8   4   88.09   11.90
  10   8   4   81.19   14.70
  10   8   4   55.59   11.30
  10   8   4   57.49   11.40
   3  -9  -4   29.50   13.80
   3  -9  -4   59.79   14.30
   3  -9  -4   40.00   13.70
   3  -9  -4   26.20   12.90
  -3   9   4   39.80   14.10
  -3   9   4   28.80   14.60
  -3   9   4   23.30   13.70
  -3   9   4   52.09   18.40
  -3   9   4   40.50   13.90
   2  -9  -4  219.98   17.60
   2  -9  -4  205.28   19.10
   2  -9  -4  157.18   15.70
   2  -9  -4  210.18   18.20
  -2   9   4  210.28   17.50
  -2   9   4  205.78   21.70
  -2   9   4  161.08   17.30
  -2   9   4  210.68   19.20
  -2   9   4  232.78   20.90
   1  -9  -4   85.09   12.80
   1  -9  -4   82.39   12.60
   1  -9  -4  102.89   14.20
   1  -9  -4  108.69   13.40
  -1   9   4  108.79   14.90
  -1   9   4  108.59   13.60
  -1   9   4   95.09   13.50
  -1   9   4  112.69   13.80
   0  -9  -4  343.07   20.50
   0  -9  -4  362.86   21.60
   0  -9  -4  360.16   21.40
   0  -9  -4  356.26   19.80
   0   9   4  363.36   20.80
   0   9   4  352.56   22.50
   0   9   4  319.47   22.90
   0   9   4  352.06   18.90
  -1  -9  -4    1.80    9.00
  -1  -9  -4    7.10    8.60
  -1  -9  -4   -0.30    8.50
  -1  -9  -4   -3.40    7.90
   1   9   4   11.70    9.00
   1   9   4   18.90   12.10
   1   9   4   12.80    8.60
   1   9   4    8.50    8.80
  -2  -9  -4  147.29   13.80
  -2  -9  -4  141.99   13.10
  -2  -9  -4  147.89   12.80
  -2  -9  -4  194.98   16.30
   2   9   4  172.88   16.40
   2   9   4  147.69   15.40
   2   9   4  149.29   12.80
   2   9   4  137.39   12.90
  -3  -9  -4  127.89   12.20
  -3  -9  -4  139.39   10.40
  -3  -9  -4  172.38   14.80
  -3  -9  -4  160.28   14.50
  -3  -9  -4  136.29   13.70
   3   9   4  157.88   13.60
   3   9   4  152.78   14.50
   3   9   4  194.18   15.80
   3   9   4  177.88   14.40
  -4  -9  -4  346.67   20.30
  -4  -9  -4  349.96   13.60
  -4  -9  -4  349.96   19.00
  -4  -9  -4  343.57   18.80
  -4  -9  -4  341.07   18.20
   4   9   4  289.77   22.10
   4   9   4  337.97   19.30
   4   9   4  349.47   18.50
   4   9   4  321.07   20.30
  -5  -9  -4  110.59   11.90
  -5  -9  -4  101.19   11.40
  -5  -9  -4  108.69   12.60
  -5  -9  -4  101.19   11.70
   5   9   4  117.09   11.30
   5   9   4  106.59   12.10
   5   9   4   88.09   11.20
   5   9   4   94.49   11.30
  -6  -9  -4    5.20    8.20
  -6  -9  -4   19.50    9.60
  -6  -9  -4    6.10    8.30
   6   9   4   13.90    8.50
   6   9   4   -7.40    8.10
   6   9   4   24.10    9.10
   6   9   4   19.30    9.00
  -7  -9  -4  101.09   11.00
  -7  -9  -4  120.79   13.10
  -7  -9  -4  101.59   12.50
   7   9   4   96.49   12.40
   7   9   4  112.99   12.70
   7   9   4  109.99   11.80
   7   9   4   86.09   11.80
  -8  -9  -4  575.34   24.90
  -8  -9  -4  531.65   23.90
  -8  -9  -4  590.04   26.20
   8   9   4  547.45   23.80
   8   9   4  545.05   24.30
   8   9   4  560.54   24.50
   8   9   4  579.24   25.60
  -9  -9  -4  282.77   20.60
  -9  -9  -4  295.77   19.80
  -9  -9  -4  262.57   22.10
   9   9   4  294.27   21.70
   9   9   4  285.87   19.40
   9   9   4  266.57   19.40
   9   9   4  272.67   21.20
   9   9   4  262.37   19.20
 -10  -9  -4   66.79   13.00
 -10  -9  -4   50.29   12.90
 -10  -9  -4   38.60   11.80
  10   9   4   34.50   12.90
  10   9   4   38.70   12.10
  10   9   4   48.20   11.70
  10   9   4   34.20   13.80
  10   9   4   35.50   12.30
   1 -10  -4    8.40   12.60
   1 -10  -4   18.10   13.00
   1 -10  -4   20.10   12.50
   1 -10  -4   20.40   11.70
  -1  10   4   10.40   13.60
  -1  10   4   -6.60   12.40
  -1  10   4    2.40   11.30
  -1  10   4    0.60   12.30
   0 -10  -4   69.79   13.30
   0 -10  -4   93.79   14.40
   0 -10  -4   56.69   12.50
   0 -10  -4   61.29   13.80
   0  10   4   72.49   13.00
   0  10   4   62.39   13.20
   0  10   4   41.40   12.60
   0  10   4   59.79   11.80
  -1 -10  -4   92.79   13.60
  -1 -10  -4   43.00   11.30
  -1 -10  -4   36.70   11.00
  -1 -10  -4   65.49   12.60
   1  10   4   37.60   12.00
   1  10   4   41.10   11.70
   1  10   4   57.39   11.00
   1  10   4   60.79   12.30
  -2 -10  -4    6.30    6.30
  -2 -10  -4   14.00   12.90
  -2 -10  -4   -2.80    9.60
  -2 -10  -4    5.30   10.10
  -2 -10  -4  -16.50    9.70
   2  10   4  -14.40    9.10
   2  10   4    8.90   10.20
   2  10   4   21.20   11.60
   2  10   4   -0.90   10.00
  -3 -10  -4   -0.40    9.90
  -3 -10  -4   11.90   11.10
  -3 -10  -4   18.60    5.90
  -3 -10  -4   21.40   10.10
  -3 -10  -4    7.00   10.20
   3  10   4   13.00   11.00
   3  10   4    1.10   10.30
   3  10   4    3.30    9.90
   3  10   4   -0.30    8.70
  -4 -10  -4   71.49    7.10
  -4 -10  -4   69.99   11.50
  -4 -10  -4   75.59   12.20
  -4 -10  -4   55.39   11.20
  -4 -10  -4   69.29   12.60
   4  10   4   84.49   12.20
   4  10   4   77.39   13.60
   4  10   4   67.69   11.00
   4  10   4   89.79   13.30
  -5 -10  -4   -4.00   10.90
  -5 -10  -4    3.70   10.60
  -5 -10  -4   16.60   10.00
  -5 -10  -4   -4.50    9.40
   5  10   4   -2.50    9.40
   5  10   4   13.50    9.70
   5  10   4    1.30    9.10
   5  10   4   16.50    9.70
  -6 -10  -4  477.95   25.50
  -6 -10  -4  460.05   23.60
  -6 -10  -4  458.55   22.60
   6  10   4  464.95   23.40
   6  10   4  468.55   22.80
   6  10   4  432.26   24.00
   6  10   4  470.75   24.00
  -7 -10  -4  142.89   14.60
  -7 -10  -4  135.59   15.50
  -7 -10  -4  149.19   15.40
   7  10   4  138.29   15.00
   7  10   4  137.19   15.10
   7  10   4  157.48   15.20
   7  10   4  134.09   16.80
  -8 -10  -4   39.60   11.70
  -8 -10  -4   44.70   12.80
  -8 -10  -4   44.90   13.50
  -8 -10  -4   24.40   11.80
   8  10   4   34.80   12.80
   8  10   4   45.00   11.90
   8  10   4   48.70   11.90
   8  10   4   34.70   12.00
  -9 -10  -4   31.10   13.00
  -9 -10  -4   51.09   13.70
  -9 -10  -4   24.00   12.70
  -9 -10  -4   26.10   11.60
   9  10   4   23.60   12.40
   9  10   4   16.80   12.60
   9  10   4   29.30   11.90
   9  10   4   23.40   13.10
   0 -11  -4   30.00   14.60
   0 -11  -4   10.20   12.70
   0 -11  -4   15.20   19.50
   0 -11  -4   22.30   14.70
   0  11   4   19.80   14.20
   0  11   4   13.10   13.40
   0  11   4   26.40   13.30
   0  11   4   28.10   14.20
  -1 -11  -4  687.63   30.80
  -1 -11  -4  752.82   33.20
  -1 -11  -4  727.83   33.00
  -1 -11  -4  661.53   31.90
   1  11   4  713.23   32.90
   1  11   4  702.33   30.90
   1  11   4  776.42   32.90
   1  11   4  726.43   34.00
  -2 -11  -4  454.15   25.80
  -2 -11  -4  469.35   26.30
  -2 -11  -4  487.45   28.10
  -2 -11  -4  445.66   16.10
  -2 -11  -4  508.35   27.60
   2  11   4  472.45   25.30
   2  11   4  459.45   28.40
   2  11   4  423.06   26.20
   2  11   4  446.76   26.20
  -3 -11  -4  187.18   17.10
  -3 -11  -4  195.38   23.80
  -3 -11  -4  182.28   17.50
  -3 -11  -4  171.48   10.40
  -3 -11  -4  139.99   16.10
   3  11   4  193.28   18.20
   3  11   4  188.18   17.10
   3  11   4  121.89   28.50
   3  11   4  166.68   16.30
  -4 -11  -4  210.18   17.80
  -4 -11  -4  202.38   18.00
  -4 -11  -4  225.28   19.80
  -4 -11  -4  227.28   18.50
   4  11   4  220.88   19.70
   4  11   4  211.98   18.50
   4  11   4  197.58   18.60
   4  11   4  219.58   18.10
  -5 -11  -4  397.26   24.60
  -5 -11  -4  359.96   24.10
  -5 -11  -4  366.86   23.70
  -5 -11  -4  435.46   25.60
   5  11   4  385.46   23.70
   5  11   4  396.26   25.10
   5  11   4  376.36   24.40
   5  11   4  389.06   24.80
  -6 -11  -4  848.42   32.60
  -6 -11  -4  884.81   33.80
  -6 -11  -4  859.81   33.60
  -6 -11  -4  854.81   34.90
   6  11   4  839.52   33.90
   6  11   4  811.22   34.00
   6  11   4  848.52   31.50
   6  11   4  823.82   33.00
  -7 -11  -4   -0.90   13.10
  -7 -11  -4  -23.20   11.60
  -7 -11  -4  -12.90   11.80
  -7 -11  -4   -8.80   11.50
   7  11   4  -21.50   11.60
   7  11   4    2.00   12.50
   7  11   4   -5.10   11.30
   7  11   4  -12.10   11.30
  -8 -11  -4  461.35   27.40
  -8 -11  -4  480.35   28.40
  -8 -11  -4  471.05   27.50
  -8 -11  -4  482.45   29.60
   8  11   4  516.75   27.30
   8  11   4  488.65   28.80
   8  11   4  481.25   28.10
   8  11   4  475.05   27.20
  -3 -12  -4  354.76   28.20
  -3 -12  -4  410.86   27.10
  -3 -12  -4  429.76   28.10
  -3 -12  -4  403.56   29.40
   3  12   4  434.96   27.90
   3  12   4  420.76   28.80
   3  12   4  496.45   30.90
   3  12   4  378.66   26.50
  -4 -12  -4  342.57   25.90
  -4 -12  -4  297.87   25.30
  -4 -12  -4  345.47   28.60
  -4 -12  -4  312.47   27.30
   4  12   4  318.07   27.40
   4  12   4  354.36   27.20
   4  12   4  331.87   26.20
   4  12   4  342.27   27.70
  -5 -12  -4  -10.90   13.80
  -5 -12  -4   -8.00   14.40
  -5 -12  -4    2.30   12.30
  -5 -12  -4   14.30   14.00
   5  12   4   -3.10   13.80
   5  12   4    7.80   13.40
   5  12   4   10.60   13.90
   5  12   4    1.00   13.00
  -6 -12  -4   16.60   14.90
  -6 -12  -4  -12.60   14.80
  -6 -12  -4    7.40   13.90
  -6 -12  -4    0.50   13.30
   6  12   4   48.60   15.80
   6  12   4   -0.80   13.70
   6  12   4   28.10   14.40
   6  12   4    7.80   13.70
   5  10  -5   17.60   14.00
   5  10  -5   15.50   16.30
   5  10  -5   -7.30   15.10
   5  10  -5   -3.30   15.70
   5  10  -5   10.70   14.00
  -5 -10   5  -13.00   12.80
  -5 -10   5    3.00   12.70
  -5 -10   5   20.30   15.70
  -5 -10   5   -8.70   15.40
   4  10  -5  123.09   18.00
   4  10  -5  108.19   17.50
   4  10  -5  108.79   15.70
   4  10  -5  121.89   16.40
   4  10  -5  113.39   17.80
  -4 -10   5   99.59   14.70
  -4 -10   5   99.89   17.30
  -4 -10   5  101.09   17.90
  -4 -10   5   86.39   15.30
   3  10  -5  128.19   15.00
   3  10  -5   97.59   17.60
   3  10  -5  131.19   16.30
   3  10  -5  104.59   16.20
   3  10  -5  105.89   16.50
  -3 -10   5  130.29   17.00
  -3 -10   5  117.49   14.80
  -3 -10   5  142.09   17.90
  -3 -10   5  138.29   17.00
   2  10  -5  618.84   33.30
   2  10  -5  581.54   30.00
   2  10  -5  627.04   31.10
   2  10  -5  610.54   29.10
   2  10  -5  566.64   29.00
  -2 -10   5  584.04   31.30
  -2 -10   5  603.24   29.00
  -2 -10   5  589.74   27.50
  -2 -10   5  645.34   29.70
   1  10  -5  197.28   18.20
   1  10  -5  177.78   17.10
   1  10  -5  185.78   18.10
   1  10  -5  192.58   21.70
  -1 -10   5  150.38   17.50
  -1 -10   5  155.58   16.30
  -1 -10   5  182.78   17.80
  -1 -10   5  176.18   16.90
   0  10  -5   26.50   12.40
   0  10  -5  -18.60   13.10
   0  10  -5   -7.30   15.10
   0  10  -5  -17.60   11.80
   0  10  -5    1.20   12.20
   0 -10   5   16.40   11.40
   0 -10   5   -7.50   11.30
   0 -10   5   13.50   13.60
   0 -10   5   -1.70   12.60
  -1  10  -5    4.30   11.30
  -1  10  -5   14.20   13.00
  -1  10  -5    2.20   12.50
  -1  10  -5    1.40   16.40
  -1  10  -5    2.00   11.30
   1 -10   5   11.90   14.60
   1 -10   5    6.90   13.40
   1 -10   5   -5.60   11.50
   1 -10   5   -3.30   11.40
   7   9  -5  413.26   32.90
   7   9  -5  409.36   22.40
   7   9  -5  412.36   29.40
   7   9  -5  458.75   29.20
   7   9  -5  449.26   33.70
  -7  -9   5  414.76   33.00
  -7  -9   5  502.75   32.00
  -7  -9   5  404.36   37.40
  -7  -9   5  376.26   26.40
   6   9  -5  114.49   18.90
   6   9  -5  161.38   16.30
   6   9  -5  148.29   17.50
   6   9  -5  155.88   19.10
   6   9  -5  134.19   16.10
  -6  -9   5  132.29   19.10
  -6  -9   5  163.48   24.20
  -6  -9   5  126.79   18.90
  -6  -9   5  122.29   16.50
   5   9  -5  134.99   15.80
   5   9  -5  145.09   17.50
   5   9  -5  117.89   17.00
   5   9  -5  156.68   16.20
   5   9  -5   97.99   14.40
  -5  -9   5  111.59   16.70
  -5  -9   5  121.99   16.10
  -5  -9   5  129.69   16.50
  -5  -9   5  117.19   15.40
   4   9  -5  196.18   17.20
   4   9  -5  176.48   17.70
   4   9  -5  184.68   16.80
   4   9  -5  134.89   16.00
  -4  -9   5  125.99   14.80
  -4  -9   5  124.79   16.50
  -4  -9   5  148.19   15.10
  -4  -9   5  177.88   17.60
   3   9  -5  192.08   17.20
   3   9  -5  214.58   17.40
   3   9  -5  221.88   18.20
   3   9  -5  228.78   21.80
   3   9  -5  207.38    9.60
   3   9  -5  213.28   18.80
  -3  -9   5  247.58   20.40
  -3  -9   5  221.68   20.50
  -3  -9   5  203.78   18.20
  -3  -9   5  226.28   19.00
   2   9  -5  127.39   16.20
   2   9  -5  117.59   14.50
   2   9  -5  147.39   14.40
   2   9  -5  142.69   15.60
  -2  -9   5  153.28   15.90
  -2  -9   5  114.79   14.30
  -2  -9   5  124.89   13.60
  -2  -9   5  151.18   15.60
   1   9  -5  400.06   24.20
   1   9  -5  395.36   22.50
   1   9  -5  380.16   23.40
   1   9  -5  415.76   27.30
  -1  -9   5  413.26   36.10
  -1  -9   5  452.65   22.90
  -1  -9   5  431.66   25.80
  -1  -9   5  393.96   21.20
   0   9  -5  503.95   23.80
   0   9  -5  454.85   25.20
   0   9  -5  450.05   29.10
   0   9  -5  523.75   23.80
   0   9  -5  481.45   24.00
   0  -9   5  486.85   24.70
   0  -9   5  468.75   26.30
   0  -9   5  444.96   23.60
   0  -9   5  469.45   22.40
  -1   9  -5   -6.40   13.10
  -1   9  -5   -6.60    9.90
  -1   9  -5    5.40   10.70
  -1   9  -5   17.00   11.70
  -1   9  -5   -0.10    9.50
   1  -9   5    4.80    9.70
   1  -9   5    6.60    9.70
   1  -9   5    2.40   11.30
   1  -9   5    9.20   11.20
  -2   9  -5    7.00    9.90
  -2   9  -5   -1.90   13.40
  -2   9  -5   20.00   12.30
  -2   9  -5    5.80   11.90
  -2   9  -5   13.50   11.40
   2  -9   5   12.90   10.20
   2  -9   5    4.60   11.80
   2  -9   5   -4.20   10.60
   2  -9   5   21.90   10.20
  -3   9  -5  181.88   15.90
  -3   9  -5  157.68   15.90
  -3   9  -5  171.68   15.20
  -3   9  -5  164.68   22.40
  -3   9  -5  174.08   15.60
   3  -9   5  162.58   16.40
   3  -9   5  164.28   15.00
   3  -9   5  174.68   15.20
   3  -9   5  277.07   20.50
   7   8  -5   74.49   11.00
   7   8  -5   78.49   17.70
   7   8  -5   58.29   14.20
   7   8  -5   59.79   14.90
   7   8  -5   47.50   15.50
  -7  -8   5   60.39   14.40
  -7  -8   5   69.69   17.00
  -7  -8   5   71.99   17.30
  -7  -8   5   92.19   15.20
   6   8  -5    2.00   12.60
   6   8  -5   41.90   12.50
   6   8  -5   27.50   10.70
   6   8  -5   31.10   13.70
   6   8  -5    2.30   10.80
  -6  -8   5   28.90   11.70
  -6  -8   5   35.70   15.30
  -6  -8   5   -3.50   13.90
  -6  -8   5   19.20   12.10
   5   8  -5  330.87   25.00
   5   8  -5  367.26   22.80
   5   8  -5  371.26   21.50
   5   8  -5  323.37   20.40
   5   8  -5  368.56   22.80
  -5  -8   5  354.66   23.50
  -5  -8   5  333.57   24.40
  -5  -8   5  358.36   22.80
  -5  -8   5  314.87   20.60
   4   8  -5  462.45   23.60
   4   8  -5  486.85   23.70
   4   8  -5  468.35   26.40
   4   8  -5  504.45   24.10
   4   8  -5  477.45   25.00
  -4  -8   5  475.35   23.00
  -4  -8   5  578.64   27.10
  -4  -8   5  520.15   26.10
  -4  -8   5  517.25   24.70
   3   8  -5   44.20   11.20
   3   8  -5   36.60   10.60
   3   8  -5   37.70   10.60
   3   8  -5   15.10   10.20
   3   8  -5   49.00   11.30
  -3  -8   5   49.99   10.50
  -3  -8   5   24.40    9.80
  -3  -8   5   31.50   10.60
  -3  -8   5   42.20   11.60
   2   8  -5    9.10    8.90
   2   8  -5   20.40   12.20
   2   8  -5   12.90    9.70
   2   8  -5    3.60    4.70
   2   8  -5   11.00    9.70
  -2  -8   5    5.30    9.80
  -2  -8   5    6.80    8.70
  -2  -8   5   13.40    8.50
  -2  -8   5   -1.40    9.50
   1   8  -5    6.30    9.00
   1   8  -5    7.40    8.20
   1   8  -5    7.30   10.90
   1   8  -5  -20.60    8.40
  -1  -8   5  -11.70    9.20
  -1  -8   5    6.10    9.20
  -1  -8   5   11.40    8.00
  -1  -8   5    1.70    7.60
   0   8  -5   21.20   10.40
   0   8  -5   30.30    9.50
   0   8  -5   26.10   12.20
   0   8  -5   37.40    9.30
   0   8  -5   80.89   11.90
   0  -8   5   34.70   10.60
   0  -8   5   20.10    8.60
   0  -8   5   23.80    9.20
   0  -8   5   31.90    9.10
  -1   8  -5  112.89   12.10
  -1   8  -5  114.39   13.20
  -1   8  -5   95.29   12.30
  -1   8  -5   72.49   13.60
   1  -8   5  120.69   12.00
   1  -8   5   99.19   12.50
   1  -8   5  109.29   11.50
   1  -8   5  120.89   13.20
  -2   8  -5  195.08   17.60
  -2   8  -5  143.69   17.00
   2  -8   5  190.28   14.60
   2  -8   5  166.58   15.50
   2  -8   5  159.78   15.00
   2  -8   5  184.78   17.70
  -3   8  -5  147.89   18.10
  -3   8  -5  157.68   14.50
  -3   8  -5  194.68   17.50
   3  -8   5  137.49   12.80
   3  -8   5  152.68   13.40
   3  -8   5  152.18   15.90
   3  -8   5  142.79   13.00
  -4   8  -5  509.05   22.60
  -4   8  -5  524.85   24.80
  -4   8  -5  501.25   22.50
  -4   8  -5  450.35   33.00
  -4   8  -5  533.35   24.10
   4  -8   5  539.75   22.60
   4  -8   5  512.15   22.30
   4  -8   5  568.24   24.10
   4  -8   5  498.85   23.50
   8   7  -5   12.40   13.20
   8   7  -5    2.50   12.20
   8   7  -5    2.00   15.70
   8   7  -5    2.30   14.30
  -8  -7   5   18.20   15.80
  -8  -7   5   19.80   16.50
  -8  -7   5   -8.60   11.20
  -8  -7   5    6.60   13.60
   7   7  -5  263.47   22.40
   7   7  -5  237.28   22.20
   7   7  -5  214.98   18.90
   7   7  -5  238.48   20.40
  -7  -7   5  289.87   22.00
  -7  -7   5  217.18   18.00
  -7  -7   5  246.28   20.80
  -7  -7   5  268.37   25.40
   6   7  -5   14.30   12.00
   6   7  -5  -30.00    9.80
   6   7  -5   10.70   10.60
   6   7  -5   -6.00    7.90
  -6  -7   5   13.70   10.70
  -6  -7   5   -7.70   11.40
  -6  -7   5    3.80   12.40
  -6  -7   5    5.10   10.20
   5   7  -5   -2.80    8.70
   5   7  -5   -0.90   10.10
   5   7  -5   11.70    9.60
   5   7  -5   25.10   10.20
   5   7  -5    2.10   10.50
  -5  -7   5   12.30    8.50
  -5  -7   5   33.70    9.50
  -5  -7   5   15.30   11.30
   4   7  -5  146.09   13.80
   4   7  -5  166.78   16.00
   4   7  -5  141.99   14.70
   4   7  -5  156.68   14.10
   4   7  -5  137.79   13.00
  -4  -7   5  153.08   14.10
  -4  -7   5  143.79   14.70
  -4  -7   5  164.98   15.80
  -4  -7   5  151.48   13.20
   3   7  -5  157.18   15.60
   3   7  -5  160.18   13.80
   3   7  -5  157.18   13.40
   3   7  -5  140.79   13.10
  -3  -7   5  172.68   14.50
  -3  -7   5  175.28   15.80
  -3  -7   5  175.68   14.80
   2   7  -5   71.39   10.40
   2   7  -5   49.30   10.30
   2   7  -5   65.39   11.10
   2   7  -5   71.19   10.00
   2   7  -5   43.00    9.20
  -2  -7   5   66.19   13.40
  -2  -7   5   65.39   10.80
  -2  -7   5   57.29   10.10
  -2  -7   5   78.99   11.60
   1   7  -5  362.36   12.80
   1   7  -5  343.57   19.00
   1   7  -5  349.96   18.30
   1   7  -5  361.96   17.90
   1   7  -5  344.57   19.10
   1   7  -5  367.96   21.20
  -1  -7   5  374.46   19.70
  -1  -7   5  366.56   18.30
  -1  -7   5  309.57   24.90
  -1  -7   5  351.46   18.00
   0   7  -5  923.61   29.00
   0   7  -5  950.70   24.00
   0   7  -5  939.51   30.50
   0   7  -5  934.11   34.20
   0   7  -5  967.50   30.00
   0   7  -5  928.51   29.70
   0  -7   5  920.51   29.80
   0  -7   5  873.21   31.10
   0  -7   5  948.21   30.80
  -1   7  -5  139.09   14.40
  -1   7  -5  163.08   13.90
  -1   7  -5  168.68   14.20
  -1   7  -5  185.78   14.60
  -1   7  -5  177.78   15.70
   1  -7   5  165.48   13.40
   1  -7   5  187.38   14.40
   1  -7   5  140.29   15.50
   1  -7   5  149.19   13.60
   1  -7   5  165.18   15.60
  -2   7  -5   50.79    9.80
  -2   7  -5   76.59    9.50
  -2   7  -5   58.19   13.20
   2  -7   5   64.29    9.90
   2  -7   5   74.39   10.00
   2  -7   5   53.49    8.80
   2  -7   5   58.39    9.00
  -3   7  -5   47.10   10.00
  -3   7  -5   66.09   10.00
  -3   7  -5   55.89   14.00
  -3   7  -5   47.60    9.20
   3  -7   5   48.10    9.40
   3  -7   5   61.29    9.90
   3  -7   5   54.29    8.60
   3  -7   5   52.29    8.90
  -4   7  -5  305.37   17.90
  -4   7  -5  307.37   19.00
  -4   7  -5  290.97   18.20
  -4   7  -5  295.87   26.50
  -4   7  -5  336.47   16.90
   4  -7   5  304.57   16.40
   4  -7   5  333.17   16.70
   4  -7   5  286.27   17.70
   4  -7   5  295.97   17.00
  -5   7  -5    6.70    9.20
  -5   7  -5   10.00   10.10
  -5   7  -5    6.70    9.30
  -5   7  -5   -9.70   15.70
  -5   7  -5    3.00    8.10
   5  -7   5    8.80    8.30
   5  -7   5    2.30    7.90
   5  -7   5    3.80    8.70
   5  -7   5    3.90    7.90
   8   6  -5   23.60   13.50
   8   6  -5   24.20   12.90
   8   6  -5   27.60   14.40
   8   6  -5    8.70   13.90
  -8  -6   5   10.00   14.50
  -8  -6   5   22.20   15.00
  -8  -6   5   11.40   13.30
  -8  -6   5   -7.60   13.30
   7   6  -5   89.19   15.50
   7   6  -5   76.09   13.00
   7   6  -5   78.69   14.30
   7   6  -5   73.29   13.00
  -7  -6   5   88.39   13.10
  -7  -6   5   76.69   15.00
  -7  -6   5   50.39   14.00
  -7  -6   5   66.89   14.40
   6   6  -5  372.56   21.90
   6   6  -5  377.86   23.50
   6   6  -5  375.06   22.70
   6   6  -5  352.06   20.50
  -6  -6   5  409.96   24.00
  -6  -6   5  300.57   30.20
  -6  -6   5  374.16   24.00
  -6  -6   5  407.66   22.10
   5   6  -5  330.87   19.30
   5   6  -5  298.67   18.50
   5   6  -5  327.27   15.70
   5   6  -5  314.97   20.10
   5   6  -5  342.87   21.50
  -5  -6   5  329.27   18.30
  -5  -6   5  280.57   19.10
  -5  -6   5  335.67   21.40
  -5  -6   5  320.17   20.40
   4   6  -5   58.29    9.10
   4   6  -5   38.00    9.60
   4   6  -5   36.00    9.30
   4   6  -5   47.70   10.00
   4   6  -5   28.30    9.80
  -4  -6   5   27.50    9.80
  -4  -6   5   30.60    9.60
  -4  -6   5   39.00    8.60
  -4  -6   5   19.60    7.80
   3   6  -5 1038.40   31.90
   3   6  -5 1030.10   32.60
   3   6  -5  994.40   31.40
   3   6  -5 1069.79   32.80
   3   6  -5 1021.00   32.20
  -3  -6   5 1008.90   33.20
  -3  -6   5 1048.30   32.60
  -3  -6   5 1017.20   31.80
  -3  -6   5 1042.00   31.60
   2   6  -5  309.87   16.10
   2   6  -5  316.07   17.60
   2   6  -5  309.87   17.70
   2   6  -5  328.87   17.50
   2   6  -5  326.07   16.10
  -2  -6   5  318.87   17.70
  -2  -6   5  312.47   17.30
  -2  -6   5  315.07   16.30
  -2  -6   5  289.77   16.10
  -2  -6   5  306.47   18.80
   1   6  -5  471.75   19.70
   1   6  -5  441.56   20.60
   1   6  -5  447.06   18.80
   1   6  -5  431.26   18.70
   1   6  -5  446.66   19.50
  -1  -6   5  457.25   18.60
  -1  -6   5  464.85   18.80
  -1  -6   5  466.85   22.00
  -1  -6   5  446.06   19.90
  -1  -6   5  431.46   19.20
   0   6  -5   45.60   10.30
   0   6  -5   20.10    7.50
   0   6  -5   26.50    7.10
   0   6  -5   20.60    4.90
   0   6  -5   21.50    6.80
   0   6  -5   20.70    8.50
   0  -6   5   22.80    7.90
   0  -6   5   26.80    6.80
   0  -6   5   18.50    7.30
   0  -6   5   11.50    8.50
   0  -6   5   25.60    7.30
  -1   6  -5 2665.53   64.89
  -1   6  -5 2654.63   65.29
  -1   6  -5 2636.44   65.09
  -1   6  -5 2682.13   61.79
  -1   6  -5 2676.63   69.79
  -1   6  -5 2673.53   65.39
   1  -6   5 2709.63   65.99
   1  -6   5 2618.94   69.89
   1  -6   5 2722.23   64.89
   1  -6   5 2747.33   65.49
   1  -6   5 2582.54   65.09
  -2   6  -5 2161.98   67.39
  -2   6  -5 2175.78   52.79
  -2   6  -5 2131.69   52.79
  -2   6  -5 2095.49   52.89
   2  -6   5 2081.19   52.39
   2  -6   5 2161.98   52.79
   2  -6   5 2124.99   53.49
   2  -6   5 1946.61   59.49
   2  -6   5 2111.79   59.09
  -3   6  -5  112.99    9.70
  -3   6  -5  116.69   10.40
  -3   6  -5  125.19   15.10
  -3   6  -5  109.09    9.90
  -3   6  -5  110.49    9.50
   3  -6   5  109.29   10.20
   3  -6   5  115.19    9.70
   3  -6   5   98.99   14.50
   3  -6   5  118.49    9.60
   3  -6   5  122.69   11.70
  -4   6  -5  182.58   13.80
  -4   6  -5  177.38   11.90
  -4   6  -5  180.88   13.60
  -4   6  -5  177.08   18.40
  -4   6  -5  182.58   12.50
   4  -6   5  168.28   12.40
   4  -6   5  117.99   15.60
   4  -6   5  168.38   12.30
   4  -6   5  151.38   12.60
   4  -6   5  193.88   13.50
   4  -6   5  171.98   14.20
  -5   6  -5  320.87   16.70
  -5   6  -5  329.37   15.50
  -5   6  -5  337.57   16.50
  -5   6  -5  309.67   25.60
   5  -6   5  353.46   18.60
   5  -6   5  337.67   27.80
   5  -6   5  297.87   16.00
   5  -6   5  317.77   14.40
   5  -6   5  330.47   16.00
  -6   6  -5  227.58   14.80
  -6   6  -5  215.88   14.30
  -6   6  -5  201.28   12.90
  -6   6  -5  204.18   19.50
   6  -6   5  193.28   22.10
   6  -6   5  212.68   14.50
   6  -6   5  235.98   14.60
   6  -6   5  265.57   19.70
   6  -6   5  224.48   16.80
   6  -6   5  232.48   13.60
   9   5  -5   12.70   14.80
   9   5  -5    8.00   16.50
   9   5  -5  -14.70   14.30
  -9  -5   5   -1.60   15.50
  -9  -5   5   -3.50   15.90
  -9  -5   5  -40.20   17.00
   8   5  -5  158.78   17.70
   8   5  -5  138.69   17.80
   8   5  -5  114.89   15.40
   8   5  -5  160.48   16.20
  -8  -5   5  141.99   16.40
  -8  -5   5  151.98   17.20
  -8  -5   5  149.09   17.30
   7   5  -5  558.94   28.50
   7   5  -5  527.85   25.20
   7   5  -5  562.34   26.00
   7   5  -5  556.44   27.30
  -7  -5   5  532.55   26.60
  -7  -5   5  593.94   28.40
  -7  -5   5  587.64   25.80
   6   5  -5   80.09   12.60
   6   5  -5   95.89   12.30
   6   5  -5   96.99   13.20
   6   5  -5   86.69   12.00
  -6  -5   5   87.69   11.50
  -6  -5   5   56.09   11.20
  -6  -5   5  103.19   13.80
  -6  -5   5   76.39   12.70
   5   5  -5   29.50    9.50
   5   5  -5   36.50    9.30
   5   5  -5   50.09   10.60
  -5  -5   5   43.30   10.70
  -5  -5   5   41.10    9.70
  -5  -5   5   50.39   10.10
  -5  -5   5   52.49   10.70
   4   5  -5   95.49   11.00
   4   5  -5  103.89   11.20
   4   5  -5   94.19    8.80
   4   5  -5   91.59   10.70
   4   5  -5   75.49   10.10
  -4  -5   5   88.99   10.30
  -4  -5   5   84.49   10.50
  -4  -5   5   95.59   11.40
  -4  -5   5   98.39   11.80
   3   5  -5 1075.19   33.00
   3   5  -5 1042.70   30.40
   3   5  -5 1122.39   32.80
   3   5  -5 1072.29   32.00
   3   5  -5 1062.49   31.60
  -3  -5   5 1035.30   31.00
  -3  -5   5 1058.79   32.00
  -3  -5   5 1072.39   33.00
  -3  -5   5 1036.80   32.50
  -3  -5   5 1097.29   31.60
   2   5  -5  209.98   14.10
   2   5  -5  208.98   14.20
   2   5  -5  215.18   14.30
   2   5  -5  207.58   13.10
   2   5  -5  202.78   13.10
  -2  -5   5  200.98   12.30
  -2  -5   5  199.68   14.70
  -2  -5   5  192.18   13.70
  -2  -5   5  213.88   14.10
  -2  -5   5  207.58   14.70
   1   5  -5  409.36   16.30
   1   5  -5  416.56   17.20
   1   5  -5  420.96   17.10
   1   5  -5  418.66   17.40
   1   5  -5  387.26   18.40
  -1  -5   5  383.36   16.90
  -1  -5   5  365.56   15.70
  -1  -5   5  366.86   16.20
  -1  -5   5  410.76   17.80
  -1  -5   5  409.56   19.40
   0   5  -5  232.78   12.80
   0   5  -5  210.88   14.90
   0   5  -5  219.88   13.20
   0   5  -5  236.58   13.10
   0   5  -5  198.38   11.60
   0   5  -5  236.68   10.90
   0  -5   5  231.88   12.40
   0  -5   5  207.48   15.90
   0  -5   5  236.18   13.00
   0  -5   5  232.58   12.00
   0  -5   5  223.18   13.40
  -1   5  -5   30.40    6.30
  -1   5  -5   37.00    6.90
  -1   5  -5   40.80    6.70
  -1   5  -5   33.10    6.60
  -1   5  -5   22.30    8.20
  -1   5  -5   49.30    5.80
   1  -5   5   34.90    7.10
   1  -5   5   33.60    6.10
   1  -5   5   35.40    6.40
   1  -5   5   24.60    6.80
   1  -5   5   50.59   10.40
  -2   5  -5   47.10   10.30
  -2   5  -5   37.70    6.40
  -2   5  -5   44.60    6.80
  -2   5  -5   40.60    5.90
  -2   5  -5   50.39    7.20
   2  -5   5   39.70    6.20
   2  -5   5   36.00    6.70
   2  -5   5   44.70    6.60
   2  -5   5   48.00    7.30
  -3   5  -5   27.80    9.80
  -3   5  -5   47.20    6.50
  -3   5  -5   39.20    6.90
  -3   5  -5   54.49    6.90
  -3   5  -5   42.40    7.00
   3  -5   5   40.90    6.60
   3  -5   5   40.60    6.10
   3  -5   5   47.10    6.80
   3  -5   5   39.10    7.10
   3  -5   5   35.40   11.10
  -4   5  -5  247.58   12.40
  -4   5  -5  255.47   12.10
  -4   5  -5  217.48   12.50
  -4   5  -5  225.88   11.30
  -4   5  -5  231.18   19.20
   4  -5   5  217.28   13.80
   4  -5   5  229.28   11.10
   4  -5   5  218.98   12.60
   4  -5   5  219.98   18.40
   4  -5   5  226.98   11.50
  -5   5  -5  257.07   21.00
  -5   5  -5  231.38   11.20
  -5   5  -5  220.48   19.20
  -5   5  -5  238.78   12.40
   5  -5   5  213.58   12.10
   5  -5   5  221.38   12.40
   5  -5   5  229.48   15.40
   5  -5   5  219.58   19.30
   5  -5   5  215.48   11.20
   5  -5   5  215.78   11.20
  -6   5  -5  201.48   12.50
  -6   5  -5  244.78   22.90
  -6   5  -5  226.58   12.10
  -6   5  -5  253.77   12.20
  -6   5  -5  244.18   11.50
   6  -5   5  229.88   11.40
   6  -5   5  227.78   21.00
   6  -5   5  235.88   11.60
   6  -5   5  245.28   17.90
   6  -5   5  240.18   12.50
   6  -5   5  231.88   12.70
  -7   5  -5    8.70    5.40
  -7   5  -5   -3.50    6.40
  -7   5  -5    3.80    6.30
  -7   5  -5    9.00   13.50
   7  -5   5   12.20   16.20
   7  -5   5  -10.40   10.00
   7  -5   5    5.10    5.70
   7  -5   5    2.50    6.90
   7  -5   5   -0.80    5.40
   7  -5   5  -12.50    6.10
   9   4  -5   68.19   17.90
   9   4  -5   80.89   17.70
   9   4  -5   56.89   16.00
  -9  -4   5   96.79   17.40
  -9  -4   5   54.89   17.00
  -9  -4   5   92.49   16.30
  -9  -4   5   61.79   16.80
   8   4  -5  277.57   23.50
   8   4  -5  263.47   25.00
   8   4  -5  267.77   22.80
   8   4  -5  295.07   24.50
  -8  -4   5  272.47   24.70
  -8  -4   5  258.47   22.40
  -8  -4   5  216.28   20.00
   7   4  -5  200.38   17.80
   7   4  -5  219.28   17.30
   7   4  -5  202.88   16.70
   7   4  -5  204.98   19.50
  -7  -4   5  192.58   16.90
  -7  -4   5  188.78   16.50
  -7  -4   5  226.58   21.20
   6   4  -5  987.10   33.20
   6   4  -5  987.20   32.40
   6   4  -5  949.11   33.40
   6   4  -5  966.00   32.60
  -6  -4   5  924.21   32.70
  -6  -4   5  941.71   32.40
  -6  -4   5  922.61   31.10
  -6  -4   5 1003.70   33.50
   5   4  -5 1085.39   34.60
   5   4  -5 1060.99   33.10
   5   4  -5 1041.00   32.90
   5   4  -5 1133.79   33.90
  -5  -4   5 1060.79   33.90
  -5  -4   5 1058.09   33.90
  -5  -4   5 1041.20   33.30
  -5  -4   5 1036.70   32.10
   4   4  -5  153.88   12.50
   4   4  -5  163.08   13.60
   4   4  -5  166.48   15.10
   4   4  -5  171.68   14.00
  -4  -4   5  161.08   14.50
  -4  -4   5  162.48   12.30
  -4  -4   5  150.98   14.10
  -4  -4   5  168.48   13.80
   3   4  -5  205.58   11.00
   3   4  -5  180.08   13.20
   3   4  -5  166.98   12.20
   3   4  -5  184.98   14.10
   3   4  -5  183.98   13.40
  -3  -4   5  168.98   12.80
  -3  -4   5  181.98   12.20
  -3  -4   5  164.28   13.00
  -3  -4   5  196.18   13.70
  -3  -4   5  174.38   11.30
   2   4  -5  831.72   25.70
   2   4  -5  814.92   25.50
   2   4  -5  869.81   25.70
   2   4  -5  867.91   26.40
   2   4  -5  846.02   25.20
  -2  -4   5  838.62   26.00
  -2  -4   5  853.61   26.00
  -2  -4   5  829.72   25.80
  -2  -4   5  815.82   25.20
  -2  -4   5  840.92   26.50
   1   4  -5 2374.66   56.19
   1   4  -5 2283.67   56.59
   1   4  -5 2238.38   55.69
   1   4  -5 2285.07   56.49
   1   4  -5 2239.68   55.99
  -1  -4   5 2312.37   57.69
  -1  -4   5 2331.27   56.79
  -1  -4   5 2272.57   55.99
  -1  -4   5 2248.97   55.49
  -1  -4   5 2255.27   56.19
   0   4  -5  466.35   16.80
   0   4  -5  458.85   19.10
   0   4  -5  457.75   17.00
   0   4  -5  470.15   17.00
   0   4  -5  516.75   17.00
   0  -4   5  479.85   17.20
   0  -4   5  482.25   19.50
   0  -4   5  468.75   16.40
   0  -4   5  492.85   17.50
   0  -4   5  459.75   16.70
  -1   4  -5    2.90    4.50
  -1   4  -5   18.30    6.60
  -1   4  -5    0.60    4.80
  -1   4  -5    0.20    4.00
  -1   4  -5    5.70    4.60
   1  -4   5    3.40    4.60
   1  -4   5   14.20    7.00
   1  -4   5    4.00    4.40
   1  -4   5    7.60    4.40
   1  -4   5    8.20    4.90
  -2   4  -5   77.19    6.80
  -2   4  -5   80.59    7.00
  -2   4  -5   89.99   10.70
  -2   4  -5   86.29    8.10
  -2   4  -5   77.09    7.10
  -2   4  -5  101.09    8.10
   2  -4   5   90.19    8.10
   2  -4   5   92.59    7.80
   2  -4   5   88.79    8.20
   2  -4   5   72.09   11.00
   2  -4   5   93.29   11.30
  -3   4  -5  194.08   10.00
  -3   4  -5  185.28   10.10
  -3   4  -5  166.48   14.50
  -3   4  -5  186.18    9.70
  -3   4  -5  183.48    9.60
   3  -4   5  172.18   16.10
   3  -4   5  169.48    9.60
   3  -4   5  184.48   10.30
   3  -4   5  186.78    9.90
   3  -4   5  162.68    9.50
  -4   4  -5    8.60    5.10
  -4   4  -5   12.00    4.60
  -4   4  -5    6.20    4.70
  -4   4  -5    6.30    8.30
   4  -4   5    9.30    4.50
   4  -4   5    0.90    4.40
   4  -4   5    7.30    4.60
   4  -4   5    3.50    4.50
   4  -4   5   21.50    9.60
   4  -4   5    5.10    5.80
  -5   4  -5    6.80    4.60
  -5   4  -5    2.50    3.90
  -5   4  -5   -2.50    8.80
  -5   4  -5    1.50    3.90
   5  -4   5    3.10    6.90
   5  -4   5    8.20    4.40
   5  -4   5   -3.30    4.50
   5  -4   5    5.20    4.00
   5  -4   5    7.50   11.00
   5  -4   5    5.50    4.80
  -6   4  -5    3.90    4.60
  -6   4  -5    2.20    4.10
  -6   4  -5    5.30    5.10
  -6   4  -5   -5.80    9.70
  -6   4  -5    2.30    3.90
   6  -4   5   -3.10   12.50
   6  -4   5   21.90    4.60
   6  -4   5    0.80    4.30
   6  -4   5    4.80    8.10
   6  -4   5    1.50    4.80
   6  -4   5    1.50    4.10
  -7   4  -5  194.28   10.00
  -7   4  -5  217.88   18.40
  -7   4  -5  210.38   10.00
   7  -4   5  213.28   10.20
   7  -4   5  178.28   19.00
   7  -4   5  225.98   19.00
   7  -4   5  210.78   10.30
  -8   4  -5  490.55   29.00
   8  -4   5  479.05   32.90
   8  -4   5  444.86   26.50
   8  -4   5  442.86   13.60
   8  -4   5  474.25   14.50
   9   3  -5  188.38   19.20
   9   3  -5  167.18   20.30
   9   3  -5  201.38   20.20
   9   3  -5  198.88   18.50
  -9  -3   5  212.98   22.60
  -9  -3   5  186.18   19.40
  -9  -3   5  172.98   19.90
  -9  -3   5  170.58   20.00
   8   3  -5   33.90   14.10
   8   3  -5   25.80   13.80
   8   3  -5   23.90   12.20
  -8  -3   5   19.20   13.40
  -8  -3   5   16.50   12.50
  -8  -3   5   10.00   12.80
   7   3  -5   12.20   11.40
   7   3  -5   -4.80    9.80
   7   3  -5    5.70   11.40
   7   3  -5    4.00   10.00
  -7  -3   5   27.30   10.40
  -7  -3   5   12.40   11.60
  -7  -3   5   17.10   11.00
   6   3  -5  243.68   19.20
   6   3  -5  248.58   17.60
   6   3  -5  229.78   17.40
   6   3  -5  232.88   18.40
  -6  -3   5  243.28   18.00
  -6  -3   5  228.98   19.10
  -6  -3   5  214.78   16.40
  -6  -3   5  239.58   18.80
   5   3  -5  255.57   16.40
   5   3  -5  268.67   16.80
   5   3  -5  257.07   16.30
   5   3  -5  249.18   18.00
  -5  -3   5  241.28   17.40
  -5  -3   5  221.38   15.40
  -5  -3   5  272.47   17.50
  -5  -3   5  255.27   16.00
   4   3  -5   27.10    8.10
   4   3  -5   21.60    8.10
   4   3  -5    3.50    6.30
   4   3  -5   12.20    7.40
  -4  -3   5    0.90    6.90
  -4  -3   5   10.30    7.20
  -4  -3   5    8.60    7.10
  -4  -3   5    8.30    4.70
  -4  -3   5   11.00    6.90
   3   3  -5   51.69    7.30
   3   3  -5   52.39    8.20
   3   3  -5   54.19    7.80
   3   3  -5   46.20    7.40
  -3  -3   5   60.39    6.70
  -3  -3   5   47.20    7.40
  -3  -3   5   53.79    8.00
  -3  -3   5   43.50    7.10
  -3  -3   5   52.09    7.90
   2   3  -5  688.03   22.20
   2   3  -5  708.63   22.20
   2   3  -5  692.43   22.60
   2   3  -5  695.33   20.70
   2   3  -5  731.63   22.50
  -2  -3   5  668.73   21.50
  -2  -3   5  645.64   21.80
  -2  -3   5  702.33   21.80
  -2  -3   5  697.43   22.40
  -2  -3   5  702.33   22.80
   1   3  -5 1600.74   40.70
   1   3  -5 1559.94   40.30
   1   3  -5 1582.34   40.30
   1   3  -5 1583.84   40.30
   1   3  -5 1571.24   40.20
  -1  -3   5 1574.84   41.10
  -1  -3   5 1610.14   40.90
  -1  -3   5 1583.74   40.50
  -1  -3   5 1550.24   40.30
  -1  -3   5 1571.84   39.80
   0   3  -5  307.87   14.20
   0   3  -5  303.57   12.20
   0   3  -5  307.27   12.60
   0   3  -5  314.27   12.70
   0   3  -5  308.77   12.60
   0  -3   5  320.07   13.20
   0  -3   5  309.47   14.70
   0  -3   5  336.77   13.10
   0  -3   5  315.47   12.30
   0  -3   5  326.97   12.80
  -1   3  -5   92.19    7.70
  -1   3  -5  103.39    8.00
  -1   3  -5   99.89    7.70
  -1   3  -5   95.19    8.40
  -1   3  -5   92.79    9.40
   1  -3   5   99.69    7.80
   1  -3   5  109.19    7.90
   1  -3   5   99.59    9.90
   1  -3   5   93.59    7.20
   1  -3   5   91.79    8.20
  -2   3  -5  561.04   17.60
  -2   3  -5  558.34   16.40
  -2   3  -5  543.85   20.50
  -2   3  -5  562.24   16.60
  -2   3  -5  547.85   16.30
  -2   3  -5  549.85   16.50
   2  -3   5  555.64   21.10
   2  -3   5  552.94   16.60
   2  -3   5  552.24   16.30
   2  -3   5  546.85   16.60
   2  -3   5  528.95   16.90
  -3   3  -5 4154.48   96.19
  -3   3  -5 4152.98   94.19
  -3   3  -5 4203.98   94.09
  -3   3  -5 4083.89   99.39
  -3   3  -5 4216.88   94.29
  -3   3  -5 4155.38   94.29
   3  -3   5 4234.38   94.29
   3  -3   5 4283.87   94.09
   3  -3   5 4251.07   94.39
   3  -3   5 4253.57  100.89
   3  -3   5 4166.68   94.59
  -4   3  -5  476.45   13.80
  -4   3  -5  470.05   14.00
  -4   3  -5  446.16   20.10
  -4   3  -5  469.05   13.70
   4  -3   5  494.75   21.90
   4  -3   5  485.45   13.90
   4  -3   5  475.95   14.10
   4  -3   5  477.55   14.60
   4  -3   5  506.05   18.00
  -5   3  -5 1188.68   27.90
  -5   3  -5 1183.78   28.10
  -5   3  -5 1171.28   36.90
  -5   3  -5 1214.38   28.50
  -5   3  -5 1183.48   28.70
   5  -3   5 1173.98   28.00
   5  -3   5 1194.68   34.00
   5  -3   5 1189.28   28.90
   5  -3   5 1216.18   28.20
   5  -3   5 1209.68   28.90
  -6   3  -5  173.38    7.10
  -6   3  -5  176.58    7.40
  -6   3  -5  154.68   14.60
   6  -3   5  174.68    7.70
   6  -3   5  176.18   14.70
   6  -3   5  188.38    7.60
   6  -3   5  208.48   17.50
  -7   3  -5  417.36   23.90
   7  -3   5  478.65   22.20
   7  -3   5  473.15   27.00
   7  -3   5  425.06   11.90
  -8   3  -5  144.29   16.20
   8  -3   5  120.39   17.90
   8  -3   5  140.59   14.80
   9  -3   5  310.57   29.30
   9  -3   5  300.17   27.20
   9   2  -5  137.89   19.60
   9   2  -5  137.59   19.20
   9   2  -5  153.78   16.80
   9   2  -5  133.89   16.70
  -9  -2   5  101.89   17.60
  -9  -2   5  133.49   16.70
  -9  -2   5  105.79   18.60
  -9  -2   5  100.59   17.90
   8   2  -5  575.44   27.20
   8   2  -5  522.25   46.00
   8   2  -5  571.94   30.50
  -8  -2   5  526.65   26.30
  -8  -2   5  603.04   29.80
  -8  -2   5  578.34   29.40
  -8  -2   5  559.14   34.20
   7   2  -5  153.28   16.40
   7   2  -5  159.68   15.10
   7   2  -5  131.49   14.70
   7   2  -5  182.08   15.60
  -7  -2   5  157.38   15.80
  -7  -2   5  142.99   13.80
  -7  -2   5  152.58   15.70
   6   2  -5   -6.00    9.20
   6   2  -5   12.20    9.30
   6   2  -5   -0.10    8.50
  -6  -2   5    5.50    8.50
  -6  -2   5    9.30    9.30
  -6  -2   5   11.00    9.20
  -6  -2   5   12.90    9.40
   5   2  -5  236.78   17.40
   5   2  -5  256.17   16.30
   5   2  -5  238.38   16.00
   5   2  -5  293.47   16.50
  -5  -2   5  255.97   17.60
  -5  -2   5  248.38   16.90
  -5  -2   5  262.67   16.50
  -5  -2   5  259.67   16.10
   4   2  -5  259.47   15.30
   4   2  -5  236.78   15.40
   4   2  -5  243.28   15.90
   4   2  -5  256.77   14.90
  -4  -2   5  262.27   10.10
  -4  -2   5  243.48   15.60
  -4  -2   5  229.78   14.80
  -4  -2   5  265.17   15.70
  -4  -2   5  260.57   15.20
   3   2  -5   33.40    7.30
   3   2  -5   59.69    8.30
   3   2  -5   46.30    7.20
   3   2  -5   56.89    8.30
  -3  -2   5   53.89    7.50
  -3  -2   5   49.20    7.50
  -3  -2   5   52.49    6.20
  -3  -2   5   50.09    7.60
  -3  -2   5   52.99    8.10
   2   2  -5   64.79    7.50
   2   2  -5   61.29    7.30
   2   2  -5   65.19    7.30
   2   2  -5   57.79    7.60
  -2  -2   5   68.59    7.70
  -2  -2   5   69.69    7.60
  -2  -2   5   63.59    7.70
  -2  -2   5   73.49    6.90
  -2  -2   5   60.79    7.00
   1   2  -5  453.45   16.10
   1   2  -5  482.35   16.20
   1   2  -5  459.65   16.60
   1   2  -5  453.95   16.10
  -1  -2   5  472.15   16.70
  -1  -2   5  482.45   16.60
  -1  -2   5  457.15   16.00
  -1  -2   5  472.25   16.80
  -1  -2   5  453.55   15.50
   0   2  -5  460.05   15.20
   0   2  -5  469.65   15.60
   0   2  -5  475.45   15.30
   0   2  -5  459.15   15.20
   0   2  -5  465.25   16.20
   0  -2   5  457.85   14.90
   0  -2   5  471.35   15.90
   0  -2   5  449.66   15.20
   0  -2   5  498.35   15.80
   0  -2   5  479.05   17.30
  -1   2  -5 1672.33   41.10
  -1   2  -5 1635.94   43.10
  -1   2  -5 1758.02   41.40
  -1   2  -5 1771.22   41.40
   1  -2   5 1707.63   41.60
   1  -2   5 1690.53   41.30
   1  -2   5 1649.93   41.00
   1  -2   5 1717.83   41.00
   1  -2   5 1766.12   44.60
  -2   2  -5  129.09    7.20
  -2   2  -5  133.19    8.90
  -2   2  -5  131.89   10.30
  -2   2  -5  125.09    7.00
  -2   2  -5  120.19    6.90
  -2   2  -5  118.79    7.00
   2  -2   5  125.19    6.90
   2  -2   5  130.29    7.40
   2  -2   5  113.49    7.60
   2  -2   5  138.89   11.10
   2  -2   5  121.49    7.10
  -3   2  -5  146.69    9.50
  -3   2  -5  124.99   11.10
  -3   2  -5  152.68    7.00
  -3   2  -5  149.09    7.00
  -3   2  -5  142.49    6.90
  -3   2  -5  158.88    7.70
   3  -2   5  139.89    6.90
   3  -2   5  159.98   12.60
   3  -2   5  141.19    6.90
   3  -2   5  140.49    7.00
   3  -2   5  146.79    7.50
  -4   2  -5   79.99    5.20
  -4   2  -5   77.29    5.00
  -4   2  -5   80.89    5.40
  -4   2  -5   85.39    9.40
  -4   2  -5   79.49    7.80
  -4   2  -5   76.09    4.80
   4  -2   5   73.49    5.10
   4  -2   5   77.89   10.10
   4  -2   5   80.49    7.90
   4  -2   5   83.99    5.70
   4  -2   5   71.19    4.90
   4  -2   5   76.99    5.40
  -5   2  -5 1038.70   24.20
  -5   2  -5 1050.09   24.10
  -5   2  -5 1040.80   32.20
   5  -2   5 1110.29   33.90
   5  -2   5 1015.50   30.40
   5  -2   5 1053.89   24.40
   5  -2   5 1057.09   24.40
  -6   2  -5  242.58   16.90
   6  -2   5  207.28   17.20
   6  -2   5  218.78   19.80
  -7   2  -5   31.20   10.20
   7  -2   5   37.70   11.50
   7  -2   5   30.80    9.20
   8  -2   5   12.60   10.20
   8  -2   5   15.40   12.60
   9  -2   5   32.20   15.10
   9  -2   5   56.59   14.20
   8   1  -5   37.20   12.40
   8   1  -5   13.50   13.50
   8   1  -5   18.40   14.00
   8   1  -5   49.80   12.30
  -8  -1   5   32.30   12.00
  -8  -1   5   30.00   13.30
  -8  -1   5   33.80   13.90
  -8  -1   5   21.90   13.00
   7   1  -5   26.60   11.60
   7   1  -5   26.20   10.50
   7   1  -5   23.10    9.80
   7   1  -5   11.50   10.70
  -7  -1   5    0.40   11.10
  -7  -1   5    1.10   10.70
  -7  -1   5   41.80   10.40
   6   1  -5  199.28   15.70
   6   1  -5  200.28   17.10
   6   1  -5  178.48   15.10
  -6  -1   5  193.78   15.80
  -6  -1   5  175.78   20.50
  -6  -1   5  200.88   18.30
  -6  -1   5  207.38   15.80
   5   1  -5   35.40    8.60
   5   1  -5   34.70    8.40
   5   1  -5   30.70    9.60
   5   1  -5   23.80    8.30
  -5  -1   5   30.10    9.20
  -5  -1   5   20.20    8.80
  -5  -1   5   22.90    8.30
  -5  -1   5   17.80    9.00
   4   1  -5 2814.92   68.89
   4   1  -5 2679.53   68.19
   4   1  -5 2861.81   69.49
  -4  -1   5 2806.52   68.79
  -4  -1   5 2751.22   68.89
  -4  -1   5 2653.73   63.09
  -4  -1   5 2841.42   68.49
  -4  -1   5 2902.51   68.99
   3   1  -5 1458.55   38.70
   3   1  -5 1412.36   38.30
   3   1  -5 1346.17   37.70
   3   1  -5 1407.16   38.20
  -3  -1   5 1378.16   38.10
  -3  -1   5 1420.56   38.10
  -3  -1   5 1375.86   34.50
  -3  -1   5 1438.66   38.40
  -3  -1   5 1435.66   38.10
   2   1  -5 1451.95   37.60
   2   1  -5 1388.16   37.30
   2   1  -5 1435.16   37.60
   2   1  -5 1356.16   36.90
  -2  -1   5 1391.06   37.10
  -2  -1   5 1428.16   37.60
  -2  -1   5 1452.85   37.60
  -2  -1   5 1377.26   35.20
  -2  -1   5 1433.76   37.30
   1   1  -5  821.22   23.90
   1   1  -5  823.22   23.80
   1   1  -5  792.42   23.60
   1   1  -5  792.42   23.30
  -1  -1   5  835.02   23.90
  -1  -1   5  823.32   23.70
  -1  -1   5  843.92   23.70
  -1  -1   5  801.52   23.70
  -1  -1   5  805.82   23.10
   0   1  -5 3969.00   90.49
   0   1  -5 3885.81   90.39
   0   1  -5 3810.02   89.89
   0   1  -5 4000.50   90.49
   0  -1   5 4007.90   91.39
   0  -1   5 3924.01   90.49
   0  -1   5 3976.70   90.19
   0  -1   5 4035.50   90.59
   0  -1   5 3948.00   90.39
  -1   1  -5 5106.49  113.49
  -1   1  -5 5069.59  113.59
  -1   1  -5 5039.50  113.69
   1  -1   5 5021.80  113.69
   1  -1   5 5081.49  115.99
   1  -1   5 5103.59  113.59
   1  -1   5 5092.69  113.69
   1  -1   5 5033.70  113.69
  -2   1  -5  219.88    8.30
  -2   1  -5  214.18    8.60
  -2   1  -5  201.48   10.30
  -2   1  -5  214.68    8.90
  -2   1  -5  214.18    8.30
   2  -1   5  197.38   11.60
   2  -1   5  198.08    8.60
   2  -1   5  214.48    8.50
   2  -1   5  209.28    8.60
   2  -1   5  191.48    8.10
  -3   1  -5 2471.85   56.49
  -3   1  -5 2499.85   59.79
  -3   1  -5 2478.65   56.39
  -3   1  -5 2534.35   56.39
   3  -1   5 2476.95   56.39
   3  -1   5 2571.84   62.29
   3  -1   5 2483.55   56.49
   3  -1   5 2468.25   56.59
   3  -1   5 2536.95   56.79
  -4   1  -5   17.60    2.00
  -4   1  -5    4.50    4.80
  -4   1  -5   18.60    2.50
  -4   1  -5   21.70    2.10
   4  -1   5   19.80    2.30
   4  -1   5   16.50    2.70
   4  -1   5   20.10    2.90
   4  -1   5   14.30    2.20
   4  -1   5   14.80    4.90
   4  -1   5   11.00    6.00
   5  -1   5  771.62   24.30
   5  -1   5  768.32   26.60
   6  -1   5   50.39    9.80
   6  -1   5   53.19    8.20
   7  -1   5  833.92   29.90
   7  -1   5  820.32   28.10
   8  -1   5  214.98   16.00
   8  -1   5  186.88   16.30
   9  -1   5  128.89   16.20
   9  -1   5  121.29   15.20
  10  -1   5  109.89   17.30
  10  -1   5  131.99   18.50
   8   0  -5  221.58   19.20
   8   0  -5  235.38   21.10
   8   0  -5  277.27   22.10
   8   0  -5  279.27   21.70
  -8   0   5  272.37   20.80
  -8   0   5  203.08   19.50
  -8   0   5  255.87   21.60
  -8   0   5  255.97   24.00
   7   0  -5   45.20   11.90
   7   0  -5   40.00   11.70
   7   0  -5   37.10   13.10
   7   0  -5   16.90   10.70
  -7   0   5   35.10   10.70
  -7   0   5   40.70   11.50
  -7   0   5   21.60   11.70
   6   0  -5  208.38   19.00
   6   0  -5  221.58   17.00
   6   0  -5  221.78   16.30
   6   0  -5  242.18   18.10
  -6   0   5  200.28   15.60
  -6   0   5  201.78   15.40
  -6   0   5  205.18   18.00
   5   0  -5   30.00    8.10
   5   0  -5   19.20    8.00
   5   0  -5   25.50    9.00
   5   0  -5   19.00    8.40
  -5   0   5   13.70   11.10
  -5   0   5   18.00    8.90
  -5   0   5   38.10    8.60
  -5   0   5   21.50    8.20
   4   0  -5  525.65   20.50
   4   0  -5  522.65   19.80
   4   0  -5  541.85   20.20
   4   0  -5  539.65   21.40
  -4   0   5  539.15   20.50
  -4   0   5  492.75   20.90
  -4   0   5  558.74   21.10
  -4   0   5  513.45   20.30
   3   0  -5   65.49    8.00
   3   0  -5   70.79    8.00
   3   0  -5   55.39    7.30
  -3   0   5   46.00    7.60
  -3   0   5   74.79    8.50
  -3   0   5   71.59    8.10
  -3   0   5   63.39    8.00
   2   0  -5 1826.52   47.10
   2   0  -5 1926.21   47.30
   2   0  -5 1910.21   47.60
  -2   0   5 1868.11   47.10
  -2   0   5 1941.21   47.60
  -2   0   5 1846.42   47.20
  -2   0   5 1828.62   47.20
   1   0  -5 2586.64   62.09
   1   0  -5 2650.93   61.89
   1   0  -5 2735.63   62.39
   1   0  -5 2516.85   61.79
  -1   0   5 2616.04   62.19
  -1   0   5 2580.64   61.99
  -1   0   5 2540.65   61.59
  -1   0   5 2568.14   62.09
   0   0  -5   12.70    4.00
   0   0  -5   12.80    4.20
   0   0  -5   11.10    4.00
   0   0  -5   14.80    4.50
   0   0   5    3.90    3.80
   0   0   5   10.30    4.00
   0   0   5    8.50    3.90
   0   0   5   11.20    4.10
  -1   0  -5   79.89    6.50
  -1   0  -5   73.49    6.30
  -1   0  -5   88.99    6.80
   1   0   5   76.29    6.50
   1   0   5   77.89    6.60
   1   0   5   66.89    6.20
   1   0   5   81.89    6.60
  -2   0  -5 1370.96   32.60
  -2   0  -5 1357.26   32.70
  -2   0  -5 1344.87   32.70
  -2   0  -5 1396.76   35.40
  -2   0  -5 1339.87   32.60
   2   0   5 1324.47   33.10
   2   0   5 1355.76   32.50
   2   0   5 1328.67   35.80
   2   0   5 1413.96   32.90
   2   0   5 1338.37   32.80
  -3   0  -5  241.78   11.40
  -3   0  -5  230.18    7.70
  -3   0  -5  236.78    8.00
  -3   0  -5  245.18    8.00
   3   0   5  236.38    7.70
   3   0   5  241.68    8.10
   3   0   5  226.98    8.30
   3   0   5  219.68   12.20
   3   0   5  222.08    7.90
  -4   0  -5  344.77   14.20
  -4   0  -5  367.26    9.30
  -4   0  -5  364.56    9.40
  -4   0  -5  365.96    8.90
  -4   0  -5  356.86    9.00
   4   0   5  378.96   14.70
   4   0   5  355.06    8.90
   4   0   5  372.86    9.80
   4   0   5  387.26   16.70
   4   0   5  364.36    9.20
   4   0   5  366.36    9.50
  -5   0  -5  518.55   18.50
   5   0   5  523.45   18.60
   5   0   5  515.75   20.60
   6   0   5  260.07   14.60
   6   0   5  272.97   16.40
   7   0   5  979.60   32.00
   7   0   5  948.61   30.60
   8   0   5   74.39   11.70
   8   0   5   66.29   12.20
   9   0   5   68.49   12.70
   9   0   5   74.99   13.70
  10   0   5   22.70   13.90
  10   0   5   -9.30   12.60
   8  -1  -5   33.40   15.50
   8  -1  -5   68.19   16.80
   8  -1  -5   25.80   13.00
   8  -1  -5   27.70   12.90
  -8   1   5   23.50   13.60
  -8   1   5   31.60   15.60
  -8   1   5   24.50   13.50
  -8   1   5   43.80   15.40
   7  -1  -5  542.75   24.60
   7  -1  -5  545.95   27.80
   7  -1  -5  566.24   26.50
   7  -1  -5  537.45   25.00
  -7   1   5  510.25   26.80
  -7   1   5  551.74   27.10
  -7   1   5  496.85   16.30
  -7   1   5  527.75   26.70
  -7   1   5  549.35   24.30
   6  -1  -5 1221.58   38.20
   6  -1  -5 1388.96   41.40
   6  -1  -5 1370.86   39.80
   6  -1  -5 1308.97   39.50
  -6   1   5 1277.77   38.40
  -6   1   5 1300.37   33.30
  -6   1   5 1273.47   39.60
  -6   1   5 1363.36   40.60
   5  -1  -5    7.20    8.60
   5  -1  -5   21.60    8.90
   5  -1  -5   17.60    7.90
  -5   1   5    0.90    8.40
  -5   1   5   -3.40    7.40
  -5   1   5    7.20    8.00
  -5   1   5    5.60    8.10
   4  -1  -5  951.70   29.90
   4  -1  -5  878.01   27.90
   4  -1  -5  978.10   29.10
   4  -1  -5  877.11   28.50
  -4   1   5  866.51   30.60
  -4   1   5  885.31   28.40
  -4   1   5  890.41   29.00
  -4   1   5  993.50   29.60
   3  -1  -5   36.00    6.80
   3  -1  -5   41.70    7.80
   3  -1  -5   44.50    6.70
   3  -1  -5   63.59    8.50
  -3   1   5   43.90    7.90
  -3   1   5   47.30    7.60
  -3   1   5   24.20    6.50
  -3   1   5   57.59    8.30
   2  -1  -5 1382.96   36.20
   2  -1  -5 1282.77   35.40
   2  -1  -5 1380.96   35.70
   2  -1  -5 1246.78   34.90
  -2   1   5 1338.57   35.80
  -2   1   5 1288.67   35.30
  -2   1   5 1383.06   36.10
  -2   1   5 1258.97   34.70
   1  -1  -5   12.00    5.10
   1  -1  -5    8.20    5.00
   1  -1  -5    2.80    4.30
   1  -1  -5    7.50    4.40
  -1   1   5    4.00    4.60
  -1   1   5    8.30    5.00
  -1   1   5   -3.10    3.90
  -1   1   5   10.90    4.80
   0  -1  -5 1943.91   46.80
   0  -1  -5 1846.22   46.60
   0  -1  -5 1963.00   46.60
   0  -1  -5 1947.81   46.70
   0   1   5 1942.11   46.90
   0   1   5 1882.01   46.60
   0   1   5 1923.91   46.40
   0   1   5 1942.31   46.70
  -1  -1  -5 1518.15   36.60
  -1  -1  -5 1517.25   36.60
  -1  -1  -5 1483.45   36.40
  -1  -1  -5 1475.55   36.60
   1   1   5 1494.55   36.70
   1   1   5 1481.55   36.60
   1   1   5 1503.95   36.70
   1   1   5 1493.35   36.40
  -2  -1  -5  208.68    8.30
  -2  -1  -5  198.48    8.00
  -2  -1  -5  201.78    8.20
   2   1   5  203.98    8.00
   2   1   5  197.38    8.30
   2   1   5  208.58    8.40
   2   1   5  200.38    8.30
  -3  -1  -5  212.88    7.60
  -3  -1  -5  220.38    7.50
  -3  -1  -5  219.68    7.70
  -3  -1  -5  213.58    7.90
  -3  -1  -5  216.68   10.70
   3   1   5  225.68    7.50
   3   1   5  210.48    7.90
   3   1   5  203.88    7.60
   3   1   5  205.08    7.80
  -4  -1  -5   68.39    4.40
  -4  -1  -5   76.69    4.00
  -4  -1  -5   66.09    6.70
  -4  -1  -5   69.79    4.10
  -4  -1  -5   74.09    4.60
   4   1   5   71.29    7.10
   4   1   5   76.89    4.10
   4   1   5   79.19    4.80
   4   1   5   56.59    7.10
   4   1   5   74.89    4.30
   4   1   5   79.29    4.80
  -5  -1  -5   12.50    5.20
   5   1   5   13.10    1.90
   5   1   5    8.20    4.70
   5   1   5   12.70    6.20
   5   1   5   15.10    2.10
   6   1   5  810.52   27.00
   6   1   5  827.32   26.30
   7   1   5  572.14   23.10
   7   1   5  597.64   22.30
   8   1   5  163.48   16.40
   8   1   5  166.08   14.10
   9   1   5  320.17   25.50
  10   1   5   -5.90   13.00
  10   1   5   23.60   11.80
   7  -2  -5  -10.10   12.90
   7  -2  -5    3.00   12.10
   7  -2  -5    6.80   10.40
   7  -2  -5   25.20   11.30
  -7   2   5    3.70   10.20
  -7   2   5   -2.20   11.50
  -7   2   5   -8.50    8.10
  -7   2   5    6.00   11.80
  -7   2   5    5.70   12.10
   6  -2  -5    0.60   10.20
   6  -2  -5   19.30   10.00
   6  -2  -5   -2.60    8.40
   6  -2  -5   10.80    9.20
  -6   2   5    7.70   10.10
  -6   2   5    5.90    7.90
  -6   2   5   12.60   10.90
  -6   2   5    4.50    9.10
   5  -2  -5  119.79   13.00
   5  -2  -5  111.49   11.50
   5  -2  -5  116.69   13.30
  -5   2   5  114.59   12.90
  -5   2   5   95.59   12.40
  -5   2   5  116.79   11.90
  -5   2   5  100.19   12.20
   4  -2  -5  103.69   10.40
   4  -2  -5   95.79   11.50
   4  -2  -5   84.09    9.80
   4  -2  -5   94.59   10.50
  -4   2   5   93.89   10.40
  -4   2   5   82.29   10.60
  -4   2   5   85.89   10.70
  -4   2   5  100.79   10.60
   3  -2  -5  308.07   15.20
   3  -2  -5  306.57   14.70
   3  -2  -5  308.97   16.20
   3  -2  -5  287.87   15.20
  -3   2   5  328.47   15.30
  -3   2   5  316.87   15.90
  -3   2   5  318.97   15.50
  -3   2   5  309.27   15.90
   2  -2  -5  818.72   25.10
   2  -2  -5  856.51   25.90
   2  -2  -5  844.42   25.70
   2  -2  -5  881.91   25.50
  -2   2   5  859.11   25.70
  -2   2   5  841.62   25.60
  -2   2   5  849.32   25.30
   1  -2  -5   37.90    5.90
   1  -2  -5   31.00    5.50
   1  -2  -5   36.10    6.20
   1  -2  -5   37.80    5.70
  -1   2   5   29.50    5.50
  -1   2   5   29.10    6.00
  -1   2   5   33.70    6.20
  -1   2   5   30.10    5.50
   0  -2  -5 1031.00   28.00
   0  -2  -5 1026.60   27.70
   0  -2  -5 1057.19   27.80
   0  -2  -5 1033.00   27.30
   0   2   5 1042.50   27.60
   0   2   5 1044.50   27.80
   0   2   5 1063.89   27.90
   0   2   5 1051.89   28.00
  -1  -2  -5   25.80    4.20
  -1  -2  -5   31.80    4.60
  -1  -2  -5   29.00    4.60
  -1  -2  -5   28.00    4.30
   1   2   5   31.20    4.40
   1   2   5   28.30    4.30
   1   2   5   28.90    4.10
   1   2   5   31.70    4.40
  -2  -2  -5 1420.96   34.00
  -2  -2  -5 1425.06   33.90
  -2  -2  -5 1390.96   34.10
  -2  -2  -5 1309.87   35.70
   2   2   5 1393.86   33.90
   2   2   5 1454.05   34.20
   2   2   5 1427.06   34.30
   2   2   5 1404.16   34.10
  -3  -2  -5  362.96   10.90
  -3  -2  -5  365.46   11.10
  -3  -2  -5  351.86   10.70
  -3  -2  -5  331.87   13.50
  -3  -2  -5  354.06   11.10
   3   2   5  338.07   11.20
   3   2   5  348.87   11.00
   3   2   5  357.06   11.20
   3   2   5  356.16   10.90
  -4  -2  -5 2523.35   57.09
  -4  -2  -5 2537.15   57.39
  -4  -2  -5 2478.65   56.99
  -4  -2  -5 2515.65   60.99
   4   2   5 2541.05   57.09
   4   2   5 2520.15   57.49
   4   2   5 2619.14   57.39
   4   2   5 2542.75   57.39
  -5  -2  -5 3231.98   72.39
  -5  -2  -5 3263.07   72.89
  -5  -2  -5 3297.87   72.59
  -5  -2  -5 3304.77   72.69
  -5  -2  -5 3227.18   77.49
   5   2   5 3281.47   72.39
   5   2   5 3279.97   77.79
   5   2   5 3239.58   73.09
   5   2   5 3347.67   72.79
   5   2   5 3270.07   72.69
  -6  -2  -5  251.37    6.80
  -6  -2  -5  260.67    7.40
  -6  -2  -5  268.17    7.80
   6   2   5  254.67    7.00
   6   2   5  264.67    7.20
   6   2   5  260.17   14.80
   6   2   5  247.48   13.60
   6   2   5  258.87    7.70
   6   2   5  259.47    8.20
   7   2   5  526.45   24.20
   7   2   5  540.15   12.70
   7   2   5  521.65   13.00
   7   2   5  559.54   21.70
   8   2   5 1283.57   38.60
   8   2   5 1315.17   38.70
   9   2   5 1230.58   38.10
  10   2   5    0.60   19.60
  11   2   5  -18.20   14.20
  11   2   5   -5.70   12.90
   7  -3  -5   54.09   14.70
   7  -3  -5   18.10   13.60
   7  -3  -5   22.20   12.00
   7  -3  -5   25.40   12.20
  -7   3   5   36.10   10.80
  -7   3   5   34.00   15.20
  -7   3   5   37.40   14.20
  -7   3   5   25.00   12.20
  -7   3   5   11.90   13.00
   6  -3  -5    2.60    9.30
   6  -3  -5   -7.30    9.10
   6  -3  -5  -10.20   11.40
   6  -3  -5   13.10   12.50
  -6   3   5    1.00    9.90
  -6   3   5    0.00   11.20
  -6   3   5    4.20   10.90
  -6   3   5   -2.30    8.80
   5  -3  -5   22.60    9.30
   5  -3  -5    3.30    9.80
   5  -3  -5   39.00    9.60
   5  -3  -5   27.40   10.80
  -5   3   5   19.70    8.60
  -5   3   5   18.60    9.70
  -5   3   5   19.90    8.60
  -5   3   5   13.10    9.50
   4  -3  -5  170.58   17.90
   4  -3  -5  179.48   15.10
   4  -3  -5  164.18   14.70
   4  -3  -5  183.28   15.80
  -4   3   5  160.08   15.30
  -4   3   5  166.68   14.30
  -4   3   5  181.78   15.60
  -4   3   5  175.38   15.00
   3  -3  -5   17.80    7.40
   3  -3  -5   29.90    7.10
   3  -3  -5   36.00    8.10
   3  -3  -5   32.00    7.40
  -3   3   5   20.90    7.20
  -3   3   5   29.30    8.40
  -3   3   5   26.10    7.40
  -3   3   5   29.70    7.70
   2  -3  -5    4.60    5.70
   2  -3  -5    8.30    4.80
   2  -3  -5    4.30    5.70
   2  -3  -5    5.90    5.70
  -2   3   5    9.60    6.00
  -2   3   5    7.20    5.50
  -2   3   5    6.10    6.20
   1  -3  -5  453.95   16.70
   1  -3  -5  483.55   16.30
   1  -3  -5  480.15   17.40
   1  -3  -5  453.05   16.80
  -1   3   5  463.55   16.30
  -1   3   5  474.25   16.90
  -1   3   5  441.76   17.10
   0  -3  -5 2837.32   65.79
   0  -3  -5 2772.92   65.79
   0  -3  -5 2805.72   66.19
   0  -3  -5 2786.62   65.39
   0   3   5 2808.02   65.79
   0   3   5 2818.12   65.69
   0   3   5 2776.12   66.09
   0   3   5 2691.23   65.59
  -1  -3  -5  473.25   15.40
  -1  -3  -5  505.45   15.20
  -1  -3  -5  475.65   15.80
  -1  -3  -5  490.75   15.70
   1   3   5  485.05   15.30
   1   3   5  451.45   15.40
   1   3   5  479.95   15.80
   1   3   5  495.65   15.70
  -2  -3  -5  638.64   18.20
  -2  -3  -5  605.54   18.20
  -2  -3  -5  624.44   17.70
  -2  -3  -5  638.14   18.20
   2   3   5  619.04   18.10
   2   3   5  657.83   18.30
   2   3   5  612.14   18.40
   2   3   5  638.54   18.00
  -3  -3  -5  111.39    7.20
  -3  -3  -5  122.39    6.70
  -3  -3  -5   94.29    9.00
  -3  -3  -5  121.19    6.80
   3   3   5  122.09    7.50
   3   3   5  155.58    7.40
   3   3   5  128.39    6.80
   3   3   5  120.39    7.20
  -4  -3  -5 1325.67   32.70
  -4  -3  -5 1361.26   32.80
  -4  -3  -5 1335.97   32.20
  -4  -3  -5 1359.56   32.30
  -4  -3  -5 1294.67   35.10
   4   3   5 1345.17   32.70
   4   3   5 1335.07   32.90
   4   3   5 1335.57   32.50
   4   3   5 1348.47   32.30
  -5  -3  -5    5.70    3.20
  -5  -3  -5    6.10    4.90
  -5  -3  -5    9.90    3.70
  -5  -3  -5   16.10    3.40
  -5  -3  -5   20.40    3.60
   5   3   5   13.30    3.80
   5   3   5   11.90    3.00
   5   3   5   10.60    5.10
   5   3   5   18.20    3.50
   5   3   5   20.50    3.90
  -6  -3  -5  667.53   17.30
  -6  -3  -5  663.03   22.00
  -6  -3  -5  694.63   18.00
  -6  -3  -5  699.93   17.70
   6   3   5  672.13   17.90
   6   3   5  670.43   18.20
   6   3   5  694.53   22.70
   6   3   5  645.34   18.20
   6   3   5  666.23   17.90
  -7  -3  -5  337.27    9.90
  -7  -3  -5  341.27   10.40
  -7  -3  -5  345.07   10.50
  -7  -3  -5  329.67   10.60
   7   3   5  316.87   10.70
   7   3   5  317.07   10.80
   7   3   5  333.57   10.10
   7   3   5  332.77   10.50
   7   3   5  293.17   20.70
  -8  -3  -5    9.60    3.50
  -8  -3  -5   13.00    2.80
  -8  -3  -5    6.70    3.80
  -8  -3  -5   14.80    3.50
   8   3   5    3.00    3.00
   8   3   5    8.90    4.00
   8   3   5    5.50    7.00
   8   3   5   10.40    3.80
   8   3   5    6.60    3.80
   8   3   5    5.60    8.20
  -9  -3  -5  188.48    7.50
  -9  -3  -5  178.58    8.40
   9   3   5  168.28    8.00
   9   3   5  194.98   16.90
   9   3   5  160.88    8.70
   9   3   5  155.38   15.90
 -10  -3  -5  435.26   11.70
  10   3   5  440.26   12.60
  10   3   5  454.85   23.60
  11   3   5   15.70   14.60
  11   3   5   19.30   12.80
   6  -4  -5   15.30   10.90
   6  -4  -5    2.60   12.80
   6  -4  -5   13.70   10.60
   6  -4  -5   29.80   13.50
  -6   4   5    7.10   12.90
  -6   4   5    2.30   11.80
  -6   4   5    3.60    9.70
  -6   4   5    0.50   12.60
  -6   4   5    5.40   10.40
   5  -4  -5  799.72   28.50
   5  -4  -5  761.72   29.60
   5  -4  -5  838.22   29.60
   5  -4  -5  810.72   30.70
  -5   4   5  784.32   30.50
  -5   4   5  772.92   27.60
  -5   4   5  841.72   30.40
  -5   4   5  806.52   29.20
   4  -4  -5  692.93   25.80
   4  -4  -5  644.14   24.20
   4  -4  -5  679.03   24.80
  -4   4   5  667.63   26.00
  -4   4   5  700.43   25.90
  -4   4   5  667.13   24.60
   3  -4  -5 1031.10   31.70
   3  -4  -5 1049.59   31.30
   3  -4  -5 1070.09   31.90
   3  -4  -5 1019.80   31.10
  -3   4   5 1019.90   30.80
  -3   4   5 1048.70   32.10
  -3   4   5  990.20   30.70
   2  -4  -5 2219.48   54.49
   2  -4  -5 2186.28   54.59
   2  -4  -5 2123.89   54.99
   2  -4  -5 2135.29   54.39
  -2   4   5 2147.59   54.99
  -2   4   5 2191.48   54.59
  -2   4   5 2163.48   54.29
  -2   4   5 2162.18   54.59
   1  -4  -5  239.98   12.40
   1  -4  -5  226.68   13.10
   1  -4  -5  212.28   12.70
   1  -4  -5  222.98   12.20
  -1   4   5  208.88   12.00
  -1   4   5  227.68   12.40
  -1   4   5  228.18   13.20
  -1   4   5  226.88   12.70
   0  -4  -5 1505.05   38.30
   0  -4  -5 1464.35   38.70
   0  -4  -5 1443.96   38.10
   0  -4  -5 1470.75   37.70
   0   4   5 1453.05   38.60
   0   4   5 1480.95   37.90
   0   4   5 1487.75   38.40
   0   4   5 1497.35   38.20
  -1  -4  -5  794.72   23.90
  -1  -4  -5  822.42   23.70
  -1  -4  -5  831.12   23.80
  -1  -4  -5  862.51   23.60
   1   4   5  792.02   23.90
   1   4   5  840.42   23.50
   1   4   5  850.31   23.80
   1   4   5  790.22   23.70
  -2  -4  -5 6360.36  138.99
  -2  -4  -5 6136.99  138.59
  -2  -4  -5 6149.58  139.29
  -2  -4  -5 6091.29  138.99
   2   4   5 6146.49  139.09
   2   4   5 6203.98  139.39
   2   4   5 6209.08  138.99
   2   4   5 6269.97  138.79
  -3  -4  -5 1067.59   29.20
  -3  -4  -5 1138.09   28.60
  -3  -4  -5 1114.49   30.40
  -3  -4  -5 1114.19   29.00
  -3  -4  -5 1117.29   28.80
   3   4   5 1095.69   28.90
   3   4   5 1152.98   28.80
   3   4   5 1094.59   28.80
   3   4   5 1065.39   29.00
  -4  -4  -5  260.77   11.10
  -4  -4  -5  283.37   10.80
  -4  -4  -5  279.27   10.70
  -4  -4  -5  281.87   12.80
   4   4   5  271.87   11.20
   4   4   5  289.77   10.80
   4   4   5  266.67   11.30
   4   4   5  274.87   10.90
  -5  -4  -5    4.00    3.50
  -5  -4  -5    4.50    4.20
  -5  -4  -5    0.60    5.30
  -5  -4  -5    7.40    3.90
  -5  -4  -5    3.70    3.50
   5   4   5    3.80    3.70
   5   4   5    5.20    4.10
   5   4   5    0.10    4.00
   5   4   5   -0.60    3.40
  -6  -4  -5  425.36   13.80
  -6  -4  -5  436.96   14.60
  -6  -4  -5  441.06   13.80
  -6  -4  -5  445.56   17.00
  -6  -4  -5  437.06   14.40
   6   4   5  436.26   14.20
   6   4   5  443.96   14.70
   6   4   5  456.25   17.90
   6   4   5  432.56   13.80
   6   4   5  437.46   14.50
  -7  -4  -5  208.38    9.40
  -7  -4  -5  203.58    9.80
  -7  -4  -5  176.18   12.30
  -7  -4  -5  213.88    9.20
   7   4   5  206.88    9.20
   7   4   5  206.88    9.80
   7   4   5  198.58    9.80
   7   4   5  206.28   10.00
  -8  -4  -5    8.20    4.80
  -8  -4  -5    2.00    4.20
  -8  -4  -5   -0.70    3.90
   8   4   5   10.70    4.60
   8   4   5   14.60    8.10
   8   4   5    6.50    4.80
   8   4   5    0.80    4.90
  -9  -4  -5   17.20    5.40
  -9  -4  -5   13.30    5.30
  -9  -4  -5    7.70    4.30
  -9  -4  -5    6.90    4.90
   9   4   5   10.30    4.60
   9   4   5    7.50    9.60
   9   4   5   19.80    9.30
   9   4   5   13.90    4.80
   9   4   5    8.30    5.50
   9   4   5    7.80    5.40
 -10  -4  -5  101.99    8.30
 -10  -4  -5  100.89    7.70
 -10  -4  -5  110.59    8.30
 -10  -4  -5  113.19    9.10
  10   4   5  105.69    8.10
  10   4   5  128.49   13.80
  10   4   5  106.19   10.10
  10   4   5  116.39   10.30
 -11  -4  -5  253.47   11.80
 -11  -4  -5  240.98   12.00
  11   4   5  252.97   12.20
  11   4   5  270.47   12.80
  11   4   5  244.18    8.90
  11   4   5  270.47   21.80
   6  -5  -5  162.38   18.60
   6  -5  -5  193.78   18.50
   6  -5  -5  185.38   16.70
   6  -5  -5  188.48   18.10
  -6   5   5  190.08   17.20
  -6   5   5  133.29   17.50
  -6   5   5  139.79   17.60
  -6   5   5  164.18   17.80
  -6   5   5  166.48   17.50
   5  -5  -5  204.58   16.90
   5  -5  -5  161.08   18.30
   5  -5  -5  208.78   17.70
   5  -5  -5  149.69   14.60
  -5   5   5  164.68   16.00
  -5   5   5  162.18   16.20
  -5   5   5  184.28   16.80
  -5   5   5  188.48   17.40
   4  -5  -5    7.30    9.40
   4  -5  -5    6.30    8.30
   4  -5  -5   -3.00    8.00
   4  -5  -5    8.80    9.20
  -4   5   5   -1.20    9.70
  -4   5   5   11.60    8.30
   3  -5  -5 1147.69   33.20
   3  -5  -5 1107.49   34.10
   3  -5  -5 1083.19   33.40
   3  -5  -5 1088.29   34.20
  -3   5   5 1115.79   33.50
  -3   5   5 1113.09   33.70
  -3   5   5 1082.69   34.50
  -3   5   5 1115.59   33.70
   2  -5  -5  430.06   19.00
   2  -5  -5  451.55   18.10
   2  -5  -5  428.86   19.20
   2  -5  -5  445.66   19.10
  -2   5   5  426.76   18.40
  -2   5   5  426.86   19.70
  -2   5   5  448.76   18.90
  -2   5   5  465.35   18.20
   1  -5  -5  181.38   13.20
   1  -5  -5  154.28   13.00
   1  -5  -5  162.88   12.30
   1  -5  -5  177.48   12.10
  -1   5   5  175.58   12.70
  -1   5   5  162.28   13.70
  -1   5   5  168.28   11.50
  -1   5   5  156.18   12.50
   0  -5  -5  215.88   11.70
   0  -5  -5  214.28   12.80
   0  -5  -5  204.38   12.80
   0  -5  -5  196.58   11.90
   0   5   5  211.68   12.40
   0   5   5  179.28   11.90
   0   5   5  197.38   12.80
   0   5   5  188.68   11.50
  -1  -5  -5   12.10    5.90
  -1  -5  -5    6.00    4.80
  -1  -5  -5    2.90    5.40
  -1  -5  -5    8.60    5.10
   1   5   5   14.90    5.20
   1   5   5    2.10    5.90
   1   5   5   15.80    5.50
   1   5   5    1.10    4.90
  -2  -5  -5   -0.80    4.70
  -2  -5  -5   -0.40    4.20
  -2  -5  -5   10.00    4.70
  -2  -5  -5    8.00    5.30
   2   5   5    4.60    4.80
   2   5   5    8.30    4.60
   2   5   5    1.00    4.70
   2   5   5    1.60    4.40
  -3  -5  -5  167.38    9.90
  -3  -5  -5  175.08   11.20
  -3  -5  -5  161.58   10.80
  -3  -5  -5  143.09   10.30
  -3  -5  -5  160.58    9.10
   3   5   5  158.38    9.80
   3   5   5  174.28    9.80
   3   5   5  154.98    9.80
   3   5   5  148.39   10.40
  -4  -5  -5  311.47   13.60
  -4  -5  -5  325.47   12.70
  -4  -5  -5  314.77   12.40
  -4  -5  -5  327.97   14.00
  -4  -5  -5  331.77   13.60
   4   5   5  305.27   13.30
   4   5   5  300.87   12.90
   4   5   5  307.27   13.40
   4   5   5  327.57   12.70
  -5  -5  -5  240.98   10.60
  -5  -5  -5  192.48   11.90
  -5  -5  -5  224.98   11.40
  -5  -5  -5  237.08   10.60
   5   5   5  224.08   11.00
   5   5   5  211.38   11.40
   5   5   5  226.88   10.70
   5   5   5  202.78   10.70
  -6  -5  -5 1275.87   32.50
  -6  -5  -5 1236.38   33.10
  -6  -5  -5 1258.17   34.80
  -6  -5  -5 1269.67   33.20
  -6  -5  -5 1271.47   32.50
   6   5   5 1313.67   33.20
   6   5   5 1254.17   33.40
   6   5   5 1214.88   32.90
   6   5   5 1254.67   32.40
   6   5   5 1347.07   36.00
  -7  -5  -5  805.92   23.60
  -7  -5  -5  818.72   23.00
  -7  -5  -5  823.92   23.80
  -7  -5  -5  806.92   22.90
   7   5   5  809.02   23.40
   7   5   5  872.91   27.40
   7   5   5  830.92   24.10
   7   5   5  847.52   23.20
   7   5   5  790.62   23.40
  -8  -5  -5  153.98   10.00
  -8  -5  -5  133.89   10.90
  -8  -5  -5  134.19    9.90
  -8  -5  -5  143.29   10.70
   8   5   5  155.08    9.80
   8   5   5  152.08   13.00
   8   5   5  160.08   10.90
   8   5   5  144.29    9.90
  -9  -5  -5   49.10    7.20
  -9  -5  -5   53.29    6.50
  -9  -5  -5   48.40    6.90
  -9  -5  -5   32.50    7.20
   9   5   5   35.00    6.40
   9   5   5   45.80    7.30
   9   5   5   45.90    7.20
   9   5   5   40.70   11.10
   9   5   5   51.19    7.00
 -10  -5  -5  630.54   20.50
 -10  -5  -5  678.43   21.70
 -10  -5  -5  658.63   20.70
  10   5   5  595.04   23.60
  10   5   5  634.44   26.50
  10   5   5  643.54   21.00
  10   5   5  650.43   20.60
  10   5   5  617.44   21.10
 -11  -5  -5  350.26   16.90
 -11  -5  -5  390.36   16.50
 -11  -5  -5  391.86   15.20
 -11  -5  -5  383.96   16.40
  11   5   5  322.17   19.60
  11   5   5  398.96   17.40
  11   5   5  393.06   17.40
  11   5   5  410.46   29.40
  11   5   5  406.26   15.00
   5  -6  -5  829.02   32.10
   5  -6  -5  904.71   33.50
   5  -6  -5  869.31   33.50
   5  -6  -5  786.22   34.00
  -5   6   5  862.91   34.80
  -5   6   5  786.12   34.00
  -5   6   5  845.32   35.10
  -5   6   5  844.52   32.50
  -5   6   5  825.22   32.80
   4  -6  -5  230.28   19.60
   4  -6  -5  217.38   17.70
   4  -6  -5  203.08   16.60
   4  -6  -5  232.18   21.10
  -4   6   5  220.78   19.20
  -4   6   5  200.18   16.80
  -4   6   5  213.68   19.60
   3  -6  -5  213.28   16.10
   3  -6  -5  184.08   14.90
   3  -6  -5  197.08   17.20
   3  -6  -5  179.38   14.70
  -3   6   5  201.68   17.20
  -3   6   5  174.78   14.60
  -3   6   5  160.88   14.30
   2  -6  -5   -7.10    7.10
   2  -6  -5    5.00    7.60
   2  -6  -5   -8.00    7.20
   2  -6  -5    5.70    7.50
  -2   6   5    2.70    7.90
  -2   6   5    4.30    7.30
  -2   6   5    5.60    7.50
  -2   6   5   -9.00    6.50
   1  -6  -5  910.91   28.80
   1  -6  -5  853.71   28.50
   1  -6  -5  842.42   28.00
   1  -6  -5  901.01   27.60
  -1   6   5  909.51   27.90
  -1   6   5  858.91   29.20
  -1   6   5  915.21   28.30
  -1   6   5  850.61   27.80
   0  -6  -5  545.85   20.30
   0  -6  -5  510.05   20.30
   0  -6  -5  470.95   19.30
   0  -6  -5  507.35   18.90
   0   6   5  530.75   19.20
   0   6   5  472.85   20.20
   0   6   5  528.55   19.70
   0   6   5  508.45   19.60
  -1  -6  -5  135.69   11.70
  -1  -6  -5  152.78   11.00
  -1  -6  -5  143.79   12.60
  -1  -6  -5  129.49   10.70
   1   6   5  121.99   10.60
   1   6   5  131.19   10.40
   1   6   5  114.79   10.70
   1   6   5  153.78   11.70
  -2  -6  -5   43.60    7.30
  -2  -6  -5   39.60    6.80
  -2  -6  -5   32.40    7.50
  -2  -6  -5   36.90    6.50
   2   6   5   48.80    8.10
   2   6   5   31.70    6.30
   2   6   5   27.10    6.10
   2   6   5   44.00    7.00
  -3  -6  -5  256.67   12.50
  -3  -6  -5  247.68   12.90
  -3  -6  -5  251.77   14.00
  -3  -6  -5  238.28   13.00
  -3  -6  -5  232.48   12.90
   3   6   5  249.88   12.70
   3   6   5  264.67   13.20
   3   6   5  270.47   12.80
   3   6   5  258.57   14.00
  -4  -6  -5   95.19    8.40
  -4  -6  -5  111.59   10.10
  -4  -6  -5   88.89    8.00
  -4  -6  -5  104.09    9.50
  -4  -6  -5  105.19    9.20
   4   6   5  107.19    9.60
   4   6   5  100.59    8.40
   4   6   5  112.29    9.70
   4   6   5   98.39    8.60
  -5  -6  -5  267.17   12.40
  -5  -6  -5  234.98   13.00
  -5  -6  -5  248.38   12.30
  -5  -6  -5  248.48   13.90
  -5  -6  -5  244.48   13.40
   5   6   5  239.48   12.60
   5   6   5  261.47   13.30
   5   6   5  264.27   13.00
   5   6   5  260.87   12.40
  -6  -6  -5   75.59    8.40
  -6  -6  -5  101.19   10.80
  -6  -6  -5   77.29    7.70
  -6  -6  -5   71.79    8.30
  -6  -6  -5   62.99    8.80
   6   6   5   76.39    7.90
   6   6   5   78.99    8.40
   6   6   5   86.69    7.90
   6   6   5   90.19    8.50
  -7  -6  -5  457.95   17.10
  -7  -6  -5  490.85   18.20
  -7  -6  -5  493.85   18.00
   7   6   5  475.85   17.20
   7   6   5  479.85   17.80
   7   6   5  481.35   18.20
   7   6   5  499.75   20.70
  -8  -6  -5 1375.06   36.80
  -8  -6  -5 1392.96   36.30
  -8  -6  -5 1386.76   37.10
  -8  -6  -5 1382.36   36.30
   8   6   5 1362.56   36.70
   8   6   5 1362.76   37.00
   8   6   5 1366.66   36.90
   8   6   5 1355.86   35.90
   8   6   5 1433.46   40.40
  -9  -6  -5  208.38   13.70
  -9  -6  -5  216.18   12.70
  -9  -6  -5  191.48   13.60
  -9  -6  -5  168.18   12.80
   9   6   5  171.78   13.20
   9   6   5  199.58   15.90
   9   6   5  191.08   12.20
   9   6   5  211.58   13.40
   9   6   5  168.98   13.90
 -10  -6  -5  110.79   10.60
 -10  -6  -5  125.39   11.00
 -10  -6  -5  144.29   11.10
  10   6   5  107.79   10.90
  10   6   5  110.29    9.80
  10   6   5  133.69   11.10
  10   6   5  108.89   10.40
 -11  -6  -5   11.90    9.00
 -11  -6  -5   26.50    8.70
 -11  -6  -5   38.30    9.70
 -11  -6  -5   10.00    9.10
  11   6   5   18.70    9.00
  11   6   5   13.90    8.40
  11   6   5   35.00   12.40
  11   6   5   21.40   15.20
  11   6   5   13.10    8.80
  11   6   5   25.80    9.20
   4  -7  -5   -0.80   11.90
   4  -7  -5    8.30   11.20
   4  -7  -5    5.70   12.20
   4  -7  -5    4.80   12.30
  -4   7   5    1.60   11.30
  -4   7   5    3.60   12.60
  -4   7   5    4.60   14.30
  -4   7   5   -4.90   11.30
   3  -7  -5   -9.10    9.00
   3  -7  -5  -11.90   10.50
   3  -7  -5    3.70   10.00
   3  -7  -5   18.90    9.80
  -3   7   5    0.90   10.60
  -3   7   5    1.60   10.80
  -3   7   5  -10.60   10.00
   2  -7  -5    4.20    8.40
   2  -7  -5   24.70    9.80
   2  -7  -5   24.40    9.40
   2  -7  -5   10.30    8.60
  -2   7   5    0.10    9.20
  -2   7   5  -10.40    9.10
  -2   7   5   -0.40   11.10
  -2   7   5  -13.70    8.00
   1  -7  -5  472.85   21.00
   1  -7  -5  473.65   20.60
   1  -7  -5  511.55   22.60
   1  -7  -5  458.25   21.80
  -1   7   5  476.05   22.60
  -1   7   5  476.15   21.10
  -1   7   5  485.95   20.50
  -1   7   5  478.35   21.80
   0  -7  -5  664.03   24.60
   0  -7  -5  671.93   24.70
   0  -7  -5  710.93   24.70
   0   7   5  638.04   23.80
   0   7   5  654.43   25.80
   0   7   5  644.34   23.90
   0   7   5  661.03   23.50
  -1  -7  -5   54.19    9.90
  -1  -7  -5   58.39    9.00
  -1  -7  -5   41.90    9.20
  -1  -7  -5   59.29    8.80
   1   7   5   50.49    8.00
   1   7   5   63.99    9.20
   1   7   5   45.20    7.80
   1   7   5   56.29    9.80
  -2  -7  -5   84.39    9.50
  -2  -7  -5   93.79    9.10
  -2  -7  -5   98.79    9.70
  -2  -7  -5   94.69   10.30
   2   7   5   93.79   10.20
   2   7   5  102.19   10.70
   2   7   5   87.19    9.50
   2   7   5  102.99    9.50
  -3  -7  -5 1710.53   46.10
  -3  -7  -5 1773.72   45.90
  -3  -7  -5 1761.12   46.80
  -3  -7  -5 1660.43   48.00
  -3  -7  -5 1772.12   44.50
   3   7   5 1800.22   45.70
   3   7   5 1696.03   46.00
   3   7   5 1776.62   46.80
   3   7   5 1772.42   46.00
  -4  -7  -5 1941.31   51.69
  -4  -7  -5 1998.50   52.39
  -4  -7  -5 2059.59   50.19
  -4  -7  -5 2047.70   51.49
   4   7   5 2049.29   51.29
   4   7   5 1972.50   51.79
   4   7   5 2039.40   52.59
   4   7   5 2064.59   51.89
  -5  -7  -5   27.50    6.60
  -5  -7  -5   36.40    8.00
  -5  -7  -5   31.10    7.00
  -5  -7  -5   30.20   10.60
  -5  -7  -5   27.20    7.90
   5   7   5   33.30    7.70
   5   7   5   45.20    8.50
   5   7   5   34.20    7.20
   5   7   5   22.80    6.70
  -6  -7  -5  381.86   16.70
  -6  -7  -5  371.16   18.10
  -6  -7  -5  384.46   17.70
  -6  -7  -5  405.26   16.80
  -6  -7  -5  396.36   16.60
   6   7   5  416.06   17.80
   6   7   5  405.46   17.00
   6   7   5  404.76   17.50
   6   7   5  380.16   16.60
  -7  -7  -5   23.30    6.70
  -7  -7  -5   10.80    7.70
  -7  -7  -5   23.60    7.00
   7   7   5   20.30    6.90
   7   7   5   19.80    6.80
   7   7   5   23.50    7.50
   7   7   5   21.90    7.30
  -8  -7  -5  428.96   18.80
  -8  -7  -5  421.66   17.80
  -8  -7  -5  399.16   18.70
   8   7   5  412.66   19.00
   8   7   5  422.36   18.40
   8   7   5  415.46   18.70
   8   7   5  418.16   17.60
   8   7   5  437.96   21.30
  -9  -7  -5   16.00    8.40
  -9  -7  -5   -4.20    8.00
  -9  -7  -5   29.20    8.20
   9   7   5   11.40    8.00
   9   7   5    8.00   10.00
   9   7   5   11.10    8.20
   9   7   5    2.30    7.70
   9   7   5   13.60    7.60
 -10  -7  -5  358.26   19.90
 -10  -7  -5  366.96   19.40
 -10  -7  -5  414.16   18.90
 -10  -7  -5  396.86   19.90
  10   7   5  411.66   18.50
  10   7   5  381.36   19.30
  10   7   5  341.07   19.40
  10   7   5  406.86   18.90
 -11  -7  -5  165.98   13.20
 -11  -7  -5  143.59   13.30
 -11  -7  -5  141.49   13.20
  11   7   5  151.08   12.70
  11   7   5  154.58   13.10
  11   7   5  145.29   18.90
  11   7   5  180.58   16.70
  11   7   5  155.98   13.90
   3  -8  -5   41.70   13.10
   3  -8  -5   33.80   11.60
   3  -8  -5   21.60   13.00
   3  -8  -5   28.30   11.60
  -3   8   5    1.50   11.70
  -3   8   5   22.20   12.00
  -3   8   5   16.50   11.80
  -3   8   5   -2.60   13.20
   2  -8  -5   75.59   13.50
   2  -8  -5   57.79   11.90
   2  -8  -5   71.09   12.60
   2  -8  -5   83.59   12.80
  -2   8   5   92.29   14.60
  -2   8   5   71.09   12.30
  -2   8   5   83.79   13.30
   1  -8  -5  387.46   21.70
   1  -8  -5  351.46   20.20
   1  -8  -5  368.26   20.70
   1  -8  -5  374.96   21.40
  -1   8   5  323.27   19.80
  -1   8   5  372.56   23.10
  -1   8   5  377.16   20.80
   0  -8  -5   10.60    9.00
   0  -8  -5   28.00    9.30
   0  -8  -5   10.40    8.70
   0  -8  -5    9.40    9.40
   0   8   5   20.70    9.00
   0   8   5    8.80    8.70
   0   8   5   17.50    9.70
   0   8   5   32.90    9.60
  -1  -8  -5  786.42   27.70
  -1  -8  -5  673.43   32.20
  -1  -8  -5  785.22   26.60
  -1  -8  -5  783.92   28.10
   1   8   5  765.12   27.50
   1   8   5  779.22   28.30
   1   8   5  799.52   27.10
   1   8   5  773.62   26.20
  -2  -8  -5  326.57   19.10
  -2  -8  -5  337.47   17.60
  -2  -8  -5  348.37   18.20
  -2  -8  -5  338.47   19.00
   2   8   5  368.26   18.30
   2   8   5  335.47   18.80
   2   8   5  334.57   18.20
   2   8   5  348.87   17.00
  -3  -8  -5  107.89   10.70
  -3  -8  -5   88.89    9.70
  -3  -8  -5  100.69   12.00
  -3  -8  -5   99.59    9.10
  -3  -8  -5   80.79    9.40
   3   8   5  103.99   10.90
   3   8   5   82.39    9.90
   3   8   5   87.09    9.70
   3   8   5   79.39   10.30
  -4  -8  -5   27.50    8.80
  -4  -8  -5   28.20    8.00
  -4  -8  -5   21.30    6.30
  -4  -8  -5   16.10    7.50
  -4  -8  -5   18.80    7.10
   4   8   5   34.00    7.80
   4   8   5   23.10    8.30
   4   8   5   22.40    7.80
   4   8   5   20.80    7.80
  -5  -8  -5 1614.14   45.10
  -5  -8  -5 1601.24   43.70
  -5  -8  -5 1593.44   41.50
  -5  -8  -5 1653.13   43.40
  -5  -8  -5 1608.94   44.40
   5   8   5 1621.64   45.30
   5   8   5 1617.44   43.40
   5   8   5 1646.84   44.10
  -6  -8  -5  505.05   20.70
  -6  -8  -5  518.95   20.30
  -6  -8  -5  538.05   20.80
  -6  -8  -5  506.05   19.20
  -6  -8  -5  558.04   23.00
   6   8   5  496.75   21.20
   6   8   5  530.75   20.40
   6   8   5  515.95   21.10
   6   8   5  497.65   22.70
  -7  -8  -5    5.50    7.20
  -7  -8  -5    0.90    8.90
  -7  -8  -5   14.00    7.40
  -7  -8  -5   -2.10    8.30
   7   8   5    6.90    7.60
   7   8   5    1.60    7.80
   7   8   5   12.50    7.90
   7   8   5    4.80    7.20
  -8  -8  -5  142.29   12.70
  -8  -8  -5  145.09   12.10
  -8  -8  -5  114.79   13.10
   8   8   5  131.29   12.40
   8   8   5  122.19   12.90
   8   8   5  125.29   11.50
   8   8   5  123.59   12.30
   8   8   5  129.59   12.20
  -9  -8  -5  161.28   13.80
  -9  -8  -5  149.79   13.20
   9   8   5  131.79   12.40
   9   8   5  164.58   13.30
   9   8   5  149.59   15.70
   9   8   5  139.89   13.50
   9   8   5  164.68   13.60
 -10  -8  -5   -9.70    9.70
 -10  -8  -5   -6.00    9.60
 -10  -8  -5    2.80    9.40
 -10  -8  -5    9.90   10.30
  10   8   5   -9.50   10.00
  10   8   5   -1.10    9.00
  10   8   5   -3.70    9.00
  10   8   5    3.10    9.90
   2  -9  -5   24.40   14.30
   2  -9  -5   39.30   12.40
   2  -9  -5   31.60   13.70
   2  -9  -5   42.80   13.60
  -2   9   5   39.00   12.90
  -2   9   5   16.10   13.70
  -2   9   5   36.90   14.90
  -2   9   5   21.30   12.70
   1  -9  -5  348.47   24.00
   1  -9  -5  455.85   25.60
   1  -9  -5  369.16   22.30
   1  -9  -5  418.26   23.70
  -1   9   5  394.76   23.50
  -1   9   5  401.96   22.80
  -1   9   5  437.66   24.20
  -1   9   5  411.76   25.40
   0  -9  -5    6.10    9.50
   0  -9  -5    5.20   10.40
   0  -9  -5    9.40   10.20
   0  -9  -5   23.30   10.40
   0   9   5   13.60   10.00
   0   9   5   10.20   10.20
   0   9   5    6.20   10.40
   0   9   5   19.30   10.40
  -1  -9  -5  979.90   32.30
  -1  -9  -5 1029.00   33.70
  -1  -9  -5 1011.00   34.60
  -1  -9  -5  976.90   33.70
   1   9   5  988.00   33.10
   1   9   5  931.91   33.00
   1   9   5  958.50   34.00
   1   9   5  969.50   31.90
  -2  -9  -5  157.48   13.80
  -2  -9  -5  168.58   21.10
  -2  -9  -5  156.68   13.80
  -2  -9  -5  159.78   14.40
   2   9   5  159.38   13.70
   2   9   5  178.38   15.20
   2   9   5  188.28   17.30
   2   9   5  130.39   13.50
  -3  -9  -5  251.57   18.20
  -3  -9  -5  265.97   19.50
  -3  -9  -5  282.17   14.70
  -3  -9  -5  303.47   18.60
  -3  -9  -5  267.57   17.70
   3   9   5  296.37   18.10
   3   9   5  281.57   18.40
   3   9   5  259.87   17.50
   3   9   5  288.37   19.70
  -4  -9  -5  392.76   20.40
  -4  -9  -5  399.36   19.90
  -4  -9  -5  391.46   20.00
  -4  -9  -5  393.26   21.80
  -4  -9  -5  365.06   15.80
   4   9   5  366.06   21.00
   4   9   5  385.76   20.20
   4   9   5  373.56   19.80
   4   9   5  385.16   19.10
  -5  -9  -5   41.70    7.80
  -5  -9  -5   59.99   10.20
  -5  -9  -5   45.40    9.40
  -5  -9  -5   62.49   12.20
   5   9   5   61.19   10.00
   5   9   5   48.10   10.00
   5   9   5   46.30   10.70
   5   9   5   68.69   10.80
  -6  -9  -5    7.10    9.90
  -6  -9  -5    8.30    8.20
  -6  -9  -5    2.90    8.20
   6   9   5   -4.80    8.00
   6   9   5   -2.80    7.80
   6   9   5    7.90    8.80
   6   9   5    2.50    8.90
  -7  -9  -5   -0.70   10.70
  -7  -9  -5   -6.90    8.20
  -7  -9  -5    8.80    9.10
   7   9   5    2.00    9.30
   7   9   5    8.40    8.90
   7   9   5   -1.20    8.30
   7   9   5   -9.20    7.60
  -8  -9  -5   15.70   10.90
  -8  -9  -5   15.40    9.50
  -8  -9  -5   52.59   11.50
   8   9   5   20.90   10.70
   8   9   5   26.40    9.80
   8   9   5   24.60    9.50
   8   9   5   34.10   10.30
  -9  -9  -5  382.36   22.40
  -9  -9  -5  439.06   25.10
  -9  -9  -5  451.45   23.10
   9   9   5  414.86   22.30
   9   9   5  426.46   25.50
   9   9   5  435.96   21.80
   9   9   5  433.46   24.00
   9   9   5  421.96   22.60
 -10  -9  -5  410.96   23.50
 -10  -9  -5  374.96   22.90
 -10  -9  -5  408.26   23.60
  10   9   5  420.46   23.60
  10   9   5  399.16   28.10
  10   9   5  352.26   22.20
  10   9   5  422.26   25.00
  10   9   5  450.15   22.90
   1 -10  -5  305.77   24.80
   1 -10  -5  379.46   27.00
   1 -10  -5  427.06   28.50
   1 -10  -5  390.06   24.60
  -1  10   5  318.17   25.40
  -1  10   5  319.57   25.10
  -1  10   5  351.96   26.10
  -1  10   5  392.56   27.30
   0 -10  -5    5.80   12.20
   0 -10  -5   -2.70   11.80
   0 -10  -5   29.30   12.80
   0  10   5    2.30   12.20
   0  10   5   14.70   12.50
   0  10   5    3.80   12.10
   0  10   5  -11.60   11.70
  -1 -10  -5   12.60   11.30
  -1 -10  -5   -2.30   11.30
  -1 -10  -5    6.70   11.10
  -1 -10  -5   10.50   11.40
   1  10   5   25.00   10.90
   1  10   5   -2.40   10.70
   1  10   5    7.60   10.60
   1  10   5    7.30   11.50
  -2 -10  -5  194.68   17.00
  -2 -10  -5  169.48   15.90
  -2 -10  -5  230.08   18.90
  -2 -10  -5  150.58   15.60
   2  10   5  150.38   15.80
   2  10   5  151.38   16.30
   2  10   5  216.08   17.00
   2  10   5  181.58   16.30
  -3 -10  -5   55.69   11.80
  -3 -10  -5   64.49   11.60
  -3 -10  -5   44.10   11.50
  -3 -10  -5   54.39    8.20
  -3 -10  -5   45.20   11.30
   3  10   5   48.00   12.00
   3  10   5   49.99   12.40
   3  10   5   52.79   12.10
   3  10   5   53.99   11.50
  -4 -10  -5   29.40    7.10
  -4 -10  -5   29.10   10.50
  -4 -10  -5   26.90   10.10
  -4 -10  -5    9.70   10.80
  -4 -10  -5   18.10   10.50
   4  10   5   37.40   11.20
   4  10   5   19.40    9.90
   4  10   5   16.10   10.80
   4  10   5   27.20    9.90
  -5 -10  -5  251.77   14.20
  -5 -10  -5  239.88   19.70
  -5 -10  -5  222.28   18.00
  -5 -10  -5  263.57   27.60
  -5 -10  -5  222.98   20.60
   5  10   5  247.38   18.70
   5  10   5  235.48   21.00
   5  10   5  231.08   18.10
   5  10   5  266.47   20.10
  -6 -10  -5  124.29   14.20
  -6 -10  -5  105.69   13.20
  -6 -10  -5  120.99   14.90
   6  10   5  134.29   15.00
   6  10   5  110.49   12.70
   6  10   5  100.79   13.70
   6  10   5  106.69   13.20
  -7 -10  -5   64.59   12.20
  -7 -10  -5   85.49   13.40
  -7 -10  -5   61.19   13.60
   7  10   5   81.09   13.10
   7  10   5   66.99   12.00
   7  10   5   79.99   12.80
  -8 -10  -5  236.88   20.50
  -8 -10  -5  223.38   19.00
  -8 -10  -5  267.57   20.40
  -8 -10  -5  211.18   16.90
   8  10   5  233.38   18.00
   8  10   5  220.38   17.90
   8  10   5  225.58   19.60
   8  10   5  218.58   17.90
  -9 -10  -5   36.90   13.20
  -9 -10  -5    1.60   12.30
  -9 -10  -5   41.00   13.30
  -9 -10  -5   37.80   12.00
   9  10   5   32.20   12.70
   9  10   5   18.00   11.00
   9  10   5   18.80   11.50
   9  10   5    4.50   12.80
  -1 -11  -5   90.49   16.40
  -1 -11  -5  106.89   17.00
  -1 -11  -5   90.39   16.70
  -1 -11  -5  110.59   16.90
   1  11   5   91.39   16.20
   1  11   5   85.29   16.10
   1  11   5  107.19   15.60
   1  11   5  105.59   16.60
  -2 -11  -5  255.37   16.30
  -2 -11  -5  274.77   23.30
  -2 -11  -5  243.48   20.50
  -2 -11  -5  225.98   19.80
  -2 -11  -5  261.57   24.30
   2  11   5  269.77   24.90
   2  11   5  260.37   23.00
   2  11   5  258.27   20.00
   2  11   5  249.68   21.70
  -3 -11  -5  256.87   19.80
  -3 -11  -5  267.07   23.90
  -3 -11  -5  219.18   18.60
  -3 -11  -5  233.38   14.40
  -3 -11  -5  292.47   23.60
   3  11   5  216.38   18.70
   3  11   5  207.28   18.40
   3  11   5  270.27   23.40
   3  11   5  216.08   19.50
  -4 -11  -5   27.20   12.50
  -4 -11  -5   20.60   13.20
  -4 -11  -5   29.70    7.70
  -4 -11  -5   33.40   12.30
  -4 -11  -5   18.20   12.60
   4  11   5   15.60   12.10
   4  11   5    5.80   12.60
   4  11   5   19.30   12.10
   4  11   5    7.70   11.90
  -5 -11  -5   69.59   13.70
  -5 -11  -5   57.09   14.20
  -5 -11  -5   61.79   13.30
  -5 -11  -5   58.79   13.60
   5  11   5   60.39   13.30
   5  11   5   48.50   12.80
   5  11   5   56.49   14.00
   5  11   5   40.50   13.30
  -6 -11  -5  208.78   20.40
  -6 -11  -5  199.08   17.30
  -6 -11  -5  228.58   20.60
  -6 -11  -5  211.38   17.80
   6  11   5  193.78   17.70
   6  11   5  194.48   17.30
   6  11   5  220.98   18.20
   6  11   5  236.48   20.80
  -7 -11  -5 1125.89   39.20
  -7 -11  -5 1110.29   39.40
  -7 -11  -5 1106.09   40.70
  -7 -11  -5 1156.48   38.20
   7  11   5 1104.99   39.90
   7  11   5 1174.98   38.80
   7  11   5 1108.29   39.70
   7  11   5 1113.79   39.20
  -8 -11  -5   52.59   16.50
  -8 -11  -5   65.39   15.40
  -8 -11  -5   37.70   14.60
  -8 -11  -5   32.80   14.30
   8  11   5   24.40   13.60
   8  11   5   34.90   14.10
   8  11   5   46.30   13.90
   8  11   5   61.19   14.40
  -5 -12  -5  402.66   27.90
  -5 -12  -5  408.16   28.90
  -5 -12  -5  413.66   30.10
  -5 -12  -5  386.26   29.00
   5  12   5  369.96   28.40
   5  12   5  415.96   27.70
   5  12   5  454.05   30.10
   5  12   5  387.26   28.70
   4  10  -6   -9.30    7.20
   4  10  -6   18.30   16.70
   4  10  -6  -20.60   16.50
   4  10  -6   15.50   14.10
   4  10  -6   -9.30   14.10
   4  10  -6    7.60   16.00
  -4 -10   6    2.50   17.20
  -4 -10   6   -2.80   16.20
  -4 -10   6   14.80   13.80
  -4 -10   6    8.30   14.50
   3  10  -6  212.28   19.00
   3  10  -6  208.08   22.80
   3  10  -6  168.18   19.20
   3  10  -6  202.98   19.10
   3  10  -6  176.18   20.00
  -3 -10   6  224.88   19.90
  -3 -10   6  213.48   21.60
  -3 -10   6  150.08   17.10
  -3 -10   6  208.78   20.50
   2  10  -6   -2.50   14.10
   2  10  -6   -5.70   14.90
   2  10  -6   -6.10   12.20
   2  10  -6  -11.00   13.40
   2  10  -6  -17.00   16.10
  -2 -10   6   17.30   15.90
  -2 -10   6   16.30   12.70
  -2 -10   6  -11.80   11.80
  -2 -10   6   -4.60   15.30
   1  10  -6  560.04   36.00
   1  10  -6  591.04   31.40
   1  10  -6  548.85   29.30
   1  10  -6  587.94   31.20
   1  10  -6  592.24   29.60
  -1 -10   6  587.84   28.50
  -1 -10   6  586.74   29.50
  -1 -10   6  620.64   30.80
  -1 -10   6  657.83   33.10
   0  10  -6  294.77   26.60
   0  10  -6  234.38   20.00
   0  10  -6  215.58   19.80
   0  10  -6  252.87   25.90
   0  10  -6  240.88   22.50
   0 -10   6  265.87   24.20
   0 -10   6  269.87   23.10
   0 -10   6  274.37   22.60
   0 -10   6  254.17   20.90
   6   9  -6   97.49   19.50
   6   9  -6   73.89   16.80
   6   9  -6   98.09   17.30
   6   9  -6   97.89   15.80
   6   9  -6   79.99   20.20
  -6  -9   6   83.79   19.30
  -6  -9   6   88.89   19.70
  -6  -9   6   87.49   17.80
  -6  -9   6   72.49   16.20
   5   9  -6  227.88   27.90
   5   9  -6  242.48   21.70
   5   9  -6  250.47   23.00
   5   9  -6  241.68   24.10
   5   9  -6  225.08   22.00
  -5  -9   6  209.18   19.80
  -5  -9   6  215.18   21.70
  -5  -9   6  228.18   22.10
  -5  -9   6  197.68   18.90
   4   9  -6   24.70   14.10
   4   9  -6   23.70   14.60
   4   9  -6   23.80   12.80
   4   9  -6   26.10   15.60
   4   9  -6   17.30   12.60
  -4  -9   6   19.40   12.80
  -4  -9   6   49.70   16.00
  -4  -9   6   65.99   13.30
   3   9  -6   25.60    7.50
   3   9  -6   38.50   14.90
   3   9  -6   34.90   12.90
   3   9  -6   14.80   13.70
   3   9  -6   24.10   11.90
   3   9  -6   16.00   13.30
  -3  -9   6   34.80   14.50
  -3  -9   6   43.30   12.20
  -3  -9   6   11.20   11.20
  -3  -9   6    2.70   13.70
   2   9  -6   13.80   13.00
   2   9  -6   10.90    5.10
   2   9  -6   25.60   12.70
   2   9  -6    3.90   14.40
   2   9  -6   19.20   13.80
  -2  -9   6   19.60   11.70
  -2  -9   6   23.50   11.60
  -2  -9   6    8.30   13.00
  -2  -9   6   11.30   13.30
   1   9  -6  220.08   21.20
   1   9  -6  248.48   23.40
   1   9  -6  280.67   23.40
   1   9  -6  232.78   21.00
  -1  -9   6  281.57   24.90
  -1  -9   6  293.07   20.20
  -1  -9   6  293.47   22.70
  -1  -9   6  251.17   21.20
   0   9  -6   17.40   11.60
   0   9  -6   42.90   15.90
   0   9  -6   43.90   12.60
   0   9  -6   32.90   13.20
   0   9  -6   44.80   12.20
   0  -9   6   35.10   12.50
   0  -9   6   26.40   11.30
   0  -9   6   47.60   13.90
   0  -9   6   38.90   11.10
  -1   9  -6   95.29   12.80
  -1   9  -6  128.89   14.60
  -1   9  -6  107.89   20.30
  -1   9  -6  134.39   15.00
  -1   9  -6  104.99   14.60
   1  -9   6  111.49   15.30
   1  -9   6  154.58   15.80
   1  -9   6  136.79   14.50
   1  -9   6   94.99   13.20
  -2   9  -6   30.70   12.40
  -2   9  -6   39.80   19.60
  -2   9  -6   14.00   11.30
  -2   9  -6   25.50   12.70
   2  -9   6   27.70   12.00
   2  -9   6   44.50   12.40
   2  -9   6   17.70   11.10
   2  -9   6   25.50   13.40
   7   8  -6  164.08   21.20
   7   8  -6  137.09   18.60
   7   8  -6  148.79   19.60
   7   8  -6  143.29   20.60
  -7  -8   6  144.09   20.10
  -7  -8   6  163.08   19.40
  -7  -8   6  151.38   21.40
  -7  -8   6  169.58   24.50
   6   8  -6  166.48   19.90
   6   8  -6  191.58   20.50
   6   8  -6  181.58   17.90
   6   8  -6  146.29   18.30
   6   8  -6  166.18   17.60
  -6  -8   6  142.99   18.90
  -6  -8   6  180.88   18.10
  -6  -8   6  225.78   21.40
   5   8  -6  175.28   17.90
   5   8  -6  160.58   16.40
   5   8  -6  184.18   19.00
   5   8  -6  193.08   17.30
   5   8  -6  204.98   18.60
  -5  -8   6  185.88   17.10
  -5  -8   6  169.28   19.20
  -5  -8   6  158.98   19.00
  -5  -8   6  161.28   17.30
   4   8  -6  407.26   23.20
   4   8  -6  418.16   24.50
   4   8  -6  426.96   24.50
   4   8  -6  412.36   23.80
   4   8  -6  399.66   27.50
  -4  -8   6  467.65   24.60
  -4  -8   6  396.26   22.50
  -4  -8   6  388.46   26.60
  -4  -8   6  408.16   25.90
   3   8  -6 1313.47   42.90
   3   8  -6 1282.47   42.90
   3   8  -6 1235.28   41.50
   3   8  -6 1268.57   41.10
   3   8  -6 1346.97   41.70
  -3  -8   6 1304.17   42.90
  -3  -8   6 1277.17   40.00
  -3  -8   6 1262.87   40.50
  -3  -8   6 1369.06   42.70
   2   8  -6  161.48   15.10
   2   8  -6  173.88   17.80
   2   8  -6  166.78   12.30
   2   8  -6  149.88   15.20
   2   8  -6  153.48   14.50
  -2  -8   6  165.98   14.40
  -2  -8   6  164.48   16.50
  -2  -8   6  168.48   15.90
  -2  -8   6  147.99   14.00
   1   8  -6   34.20   10.80
   1   8  -6   24.40    5.90
   1   8  -6   37.30   12.70
   1   8  -6   22.80   11.10
   1   8  -6   24.80   10.00
  -1  -8   6   27.40    9.70
  -1  -8   6   36.80   11.30
  -1  -8   6   27.30    9.80
  -1  -8   6   12.00   11.60
   0   8  -6   46.80   11.20
   0   8  -6   42.90   10.40
   0   8  -6   61.29   13.90
   0   8  -6   72.69   12.10
   0  -8   6   82.49   11.60
   0  -8   6   52.39   11.40
   0  -8   6   58.79   12.30
   0  -8   6   61.49   10.80
  -1   8  -6  229.18   20.00
  -1   8  -6  271.97   25.50
  -1   8  -6  236.28   18.40
   1  -8   6  253.87   18.70
   1  -8   6  225.58   17.50
   1  -8   6  205.28   17.00
   1  -8   6  239.08   20.00
  -2   8  -6   17.70   10.20
  -2   8  -6   11.80   14.40
   2  -8   6   15.10    9.10
   2  -8   6   28.60   10.10
   2  -8   6   37.60   10.70
   2  -8   6   25.40   10.50
  -3   8  -6   12.50   10.90
  -3   8  -6   41.70   17.10
  -3   8  -6   14.90   10.90
  -3   8  -6   20.10   10.60
  -3   8  -6   17.50    9.60
   3  -8   6   17.40   10.60
   3  -8   6   25.10    9.60
   3  -8   6    4.70    9.50
   3  -8   6    4.30   11.00
  -4   8  -6   33.00   11.50
  -4   8  -6   -3.50    9.80
  -4   8  -6    7.40   11.20
  -4   8  -6    5.10   11.00
  -4   8  -6   -3.90   16.40
   4  -8   6    1.90    9.80
   4  -8   6    3.50   10.30
   4  -8   6   -6.30    9.60
   4  -8   6   -8.50    9.30
   7   7  -6   64.49   15.50
   7   7  -6   66.39   14.40
   7   7  -6   71.49   16.70
   7   7  -6   44.60   17.10
  -7  -7   6   17.30   14.80
  -7  -7   6   60.19   17.60
  -7  -7   6   57.99   17.10
  -7  -7   6   67.39   14.90
   6   7  -6   14.70   12.00
   6   7  -6   53.89   15.50
   6   7  -6   27.80    9.30
   6   7  -6   33.30   14.30
   6   7  -6   39.80   13.30
  -6  -7   6   13.30   14.30
  -6  -7   6   21.20   12.40
  -6  -7   6   13.40   14.30
  -6  -7   6   37.70   13.10
   5   7  -6    8.70   11.00
   5   7  -6   12.30   10.00
   5   7  -6   36.70   13.10
   5   7  -6   31.20   13.40
   5   7  -6   33.70   11.30
  -5  -7   6    3.10   13.10
  -5  -7   6   -1.20   10.50
  -5  -7   6   10.70   12.40
  -5  -7   6    4.70   10.80
   4   7  -6   -1.10    8.90
   4   7  -6   17.40   10.70
   4   7  -6    0.60    9.20
   4   7  -6    9.80   11.50
   4   7  -6   13.00   10.20
  -4  -7   6   -1.00   11.10
  -4  -7   6   12.40   11.80
  -4  -7   6    8.10    9.40
  -4  -7   6   20.60   10.80
   3   7  -6  100.79   12.60
   3   7  -6  115.79   14.30
   3   7  -6  116.59   13.20
   3   7  -6  106.79   12.50
   3   7  -6  126.79   13.10
  -3  -7   6  127.09   14.50
  -3  -7   6  137.99   13.20
  -3  -7   6  124.19   12.60
  -3  -7   6  133.39   14.20
   2   7  -6   36.80    9.60
   2   7  -6   28.10   11.00
   2   7  -6   47.00   10.60
   2   7  -6   57.69   11.70
   2   7  -6   35.40   13.20
  -2  -7   6   40.90    9.50
  -2  -7   6   33.60   11.00
  -2  -7   6   45.80   10.30
   1   7  -6    6.70    6.00
   1   7  -6   -0.70    7.90
   1   7  -6  -10.70   10.10
   1   7  -6    4.50    7.00
   1   7  -6   -2.10    8.90
  -1  -7   6   -9.10    7.80
  -1  -7   6    9.20    8.70
  -1  -7   6    6.60    7.80
  -1  -7   6   -1.50    9.50
  -1  -7   6  -16.00   10.40
   0   7  -6  347.07   18.50
   0   7  -6  316.67   17.60
   0   7  -6  317.87   19.10
   0   7  -6  326.67   13.30
   0   7  -6  334.87   19.10
   0   7  -6  311.77   22.70
   0  -7   6  305.97   17.30
   0  -7   6  357.76   24.20
   0  -7   6  348.87   20.30
   0  -7   6  326.87   18.50
   0  -7   6  335.87   17.90
  -1   7  -6  707.43   26.20
  -1   7  -6  644.64   24.60
  -1   7  -6  689.53   25.00
  -1   7  -6  656.33   30.30
  -1   7  -6  676.03   20.30
   1  -7   6  661.63   24.00
   1  -7   6  674.03   25.50
   1  -7   6  685.13   24.60
   1  -7   6  688.23   26.50
   1  -7   6  637.54   31.30
  -2   7  -6   53.59   13.40
  -2   7  -6   77.09   11.00
  -2   7  -6   76.89   10.70
   2  -7   6   63.39    9.70
   2  -7   6   63.09   10.80
   2  -7   6   68.99    9.70
   2  -7   6   73.89   10.80
  -3   7  -6  119.19   11.70
  -3   7  -6  120.99   11.90
  -3   7  -6  158.08   13.10
  -3   7  -6  128.69   18.20
   3  -7   6  132.09   12.00
   3  -7   6  135.29   12.80
   3  -7   6  120.19   11.10
   3  -7   6  157.48   12.80
  -4   7  -6   42.10   10.50
  -4   7  -6   37.50    9.60
  -4   7  -6   48.30    9.10
  -4   7  -6   24.30    9.80
  -4   7  -6   45.00   14.70
   4  -7   6   31.30    8.70
   4  -7   6   51.09   16.90
   4  -7   6   45.30   10.00
   4  -7   6   52.29    9.00
   4  -7   6   31.60    8.80
  -5   7  -6  373.26   19.40
  -5   7  -6  325.57   19.30
  -5   7  -6  370.76   18.30
  -5   7  -6  333.97   30.60
   5  -7   6  320.47   17.70
   5  -7   6  337.87   18.40
   5  -7   6  342.17   17.90
   5  -7   6  329.87   18.50
   5  -7   6  294.47   26.50
   8   6  -6   85.39   16.90
   8   6  -6  101.09   20.80
   8   6  -6   86.29   18.60
   8   6  -6   78.29   17.10
  -8  -6   6  118.79   17.40
  -8  -6   6  124.69   20.20
  -8  -6   6  102.09   19.80
  -8  -6   6  100.89   17.30
   7   6  -6   62.79   13.90
   7   6  -6   64.89   15.10
   7   6  -6   51.89   16.40
   7   6  -6   51.19   16.80
  -7  -6   6   80.59   14.60
  -7  -6   6   39.60   13.80
  -7  -6   6   63.29   16.50
  -7  -6   6   75.59   16.80
   6   6  -6  292.17   25.50
   6   6  -6  287.57   21.80
   6   6  -6  260.57   22.80
   6   6  -6  261.07   21.50
  -6  -6   6  241.98   21.00
  -6  -6   6  301.77   25.30
  -6  -6   6  302.37   19.90
  -6  -6   6  322.77   23.90
   5   6  -6   65.39   12.70
   5   6  -6   79.29   12.30
   5   6  -6   69.79   12.20
   5   6  -6   57.39   13.10
   5   6  -6   55.69    8.90
  -5  -6   6   59.19   13.70
  -5  -6   6   65.29   11.70
  -5  -6   6   74.19   11.40
  -5  -6   6   80.49   13.10
   4   6  -6   70.09   11.30
   4   6  -6   64.19    9.80
   4   6  -6   73.59   11.80
   4   6  -6   80.79   13.30
   4   6  -6   80.09   13.90
  -4  -6   6   66.99   10.70
  -4  -6   6   62.79   10.40
  -4  -6   6   62.99   12.50
  -4  -6   6   88.19   12.70
   3   6  -6   16.70    8.90
   3   6  -6   34.50    8.80
   3   6  -6   38.80    9.20
   3   6  -6   36.00    9.50
  -3  -6   6   36.80   12.90
  -3  -6   6   30.20    9.50
  -3  -6   6   31.20    9.60
  -3  -6   6   45.90    9.70
   2   6  -6  100.79   11.10
   2   6  -6  104.69   11.30
   2   6  -6  112.69   11.30
   2   6  -6  105.39   11.90
   2   6  -6   81.59   11.20
  -2  -6   6   94.59   12.00
  -2  -6   6   94.49   12.60
  -2  -6   6  105.79   17.50
  -2  -6   6   81.49   10.20
  -2  -6   6   86.19   11.80
   1   6  -6   47.40    9.20
   1   6  -6   65.09   10.00
   1   6  -6   75.19   10.10
   1   6  -6   59.19    9.30
   1   6  -6   94.69   12.10
  -1  -6   6   63.29   10.40
  -1  -6   6   72.09    9.50
  -1  -6   6   58.49    8.80
  -1  -6   6   72.39   10.40
  -1  -6   6   66.79   12.30
   0   6  -6  255.27   12.70
   0   6  -6  259.87   16.00
   0   6  -6  248.28   15.50
   0   6  -6  230.18   14.80
   0   6  -6  254.17   16.20
   0   6  -6  266.27   19.80
   0  -6   6  259.87   20.50
   0  -6   6  249.28   14.90
   0  -6   6  271.57   17.00
   0  -6   6  252.47   16.00
   0  -6   6  240.08   15.20
  -1   6  -6  224.08   14.80
  -1   6  -6  219.28   20.50
  -1   6  -6  219.48   14.40
  -1   6  -6  221.18   15.40
  -1   6  -6  229.18   14.60
  -1   6  -6  218.98   11.80
   1  -6   6  219.08   20.60
   1  -6   6  206.18   14.80
   1  -6   6  247.28   20.80
   1  -6   6  214.18   14.10
   1  -6   6  227.68   15.90
  -2   6  -6  401.36   17.60
  -2   6  -6  391.76   24.00
  -2   6  -6  402.46   15.50
  -2   6  -6  409.96   18.10
  -2   6  -6  415.46   18.40
   2  -6   6  405.16   18.00
   2  -6   6  396.46   17.20
   2  -6   6  409.96   17.30
   2  -6   6  375.86   19.00
   2  -6   6  460.15   26.20
  -3   6  -6 1088.19   30.90
  -3   6  -6 1058.19   38.30
  -3   6  -6 1053.29   31.10
  -3   6  -6 1096.49   31.30
  -3   6  -6 1066.79   30.80
   3  -6   6 1063.19   31.80
   3  -6   6 1045.00   37.00
   3  -6   6 1121.69   31.30
   3  -6   6 1054.29   31.20
  -4   6  -6   51.69    8.40
  -4   6  -6   42.70   12.80
  -4   6  -6   46.10    8.90
  -4   6  -6   51.49    9.00
  -4   6  -6   44.30    8.80
   4  -6   6   62.99    8.60
   4  -6   6   31.00    9.20
   4  -6   6   61.19    9.10
   4  -6   6   54.09    8.40
  -5   6  -6  231.78   14.50
  -5   6  -6  246.68   24.40
  -5   6  -6  225.58   14.00
  -5   6  -6  204.88   15.50
   5  -6   6  219.48   13.10
   5  -6   6  189.68   21.30
   5  -6   6  223.58   13.50
   5  -6   6  220.58   15.10
   5  -6   6  221.28   14.40
  -6   6  -6   32.20    8.00
  -6   6  -6   22.60    7.50
  -6   6  -6   32.90    7.50
  -6   6  -6   20.00   15.50
   6  -6   6   25.30   17.30
   6  -6   6   31.90    8.20
   6  -6   6   21.80   11.70
   6  -6   6   29.50    7.30
   6  -6   6   30.30    7.60
   6  -6   6   40.20    8.40
   8   5  -6   74.49   18.30
   8   5  -6   34.80   17.10
   8   5  -6   68.79   16.00
   8   5  -6   62.29   16.00
  -8  -5   6   75.59   18.60
  -8  -5   6   61.69   15.50
  -8  -5   6   50.39   15.60
  -8  -5   6   70.29   17.80
   7   5  -6   -5.50   12.00
   7   5  -6    9.90   14.10
   7   5  -6  -20.90   12.50
   7   5  -6    3.70   11.70
  -7  -5   6   10.00   12.50
  -7  -5   6   17.80   13.20
  -7  -5   6    2.20   13.00
  -7  -5   6  -11.00   14.10
   6   5  -6  499.15   26.80
   6   5  -6  520.35   28.10
   6   5  -6  520.15   38.60
   6   5  -6  540.65   25.90
  -6  -5   6  538.45   26.40
  -6  -5   6  552.54   27.60
  -6  -5   6  526.45   25.80
  -6  -5   6  530.95   24.20
   5   5  -6  271.87   18.20
   5   5  -6  276.47   18.90
   5   5  -6  247.78   21.20
   5   5  -6  253.77   19.90
  -5  -5   6  279.47   18.40
  -5  -5   6  268.87   19.60
   4   5  -6  233.38   18.80
   4   5  -6  241.28   17.60
   4   5  -6  242.58   13.60
   4   5  -6  213.48   17.30
   4   5  -6  217.58   17.80
  -4  -5   6  224.88   16.10
  -4  -5   6  224.58   18.40
  -4  -5   6  271.37   19.40
  -4  -5   6  234.78   17.00
   3   5  -6   39.30    9.50
   3   5  -6   25.90    7.80
   3   5  -6   29.30    8.50
   3   5  -6   17.10    8.80
   3   5  -6   25.90    9.30
  -3  -5   6   23.10    8.20
  -3  -5   6   19.10    9.20
  -3  -5   6   31.10    9.70
  -3  -5   6   28.90    7.90
  -3  -5   6   28.90    8.60
   2   5  -6 2235.08   56.99
   2   5  -6 2190.78   55.89
   2   5  -6 2171.78   56.09
   2   5  -6 2155.58   55.79
   2   5  -6 2167.48   56.19
  -2  -5   6 2153.38   56.99
  -2  -5   6 2191.88   57.29
  -2  -5   6 2197.78   55.99
  -2  -5   6 2209.08   56.49
  -2  -5   6 2151.08   55.49
   1   5  -6 1952.50   51.59
   1   5  -6 1946.41   50.79
   1   5  -6 1994.80   51.19
   1   5  -6 1839.92   56.49
   1   5  -6 1927.21   51.59
  -1  -5   6 1933.01   50.69
  -1  -5   6 2007.60   50.49
  -1  -5   6 2077.69   51.79
  -1  -5   6 2015.60   53.69
  -1  -5   6 2021.00   52.09
   0   5  -6  293.77   14.10
   0   5  -6  251.57   14.90
   0   5  -6  286.97   15.20
   0   5  -6  306.07   17.60
   0   5  -6  266.37   17.00
   0  -5   6  285.07   14.60
   0  -5   6  301.37   19.10
   0  -5   6  315.87   15.70
   0  -5   6  292.87   14.30
   0  -5   6  287.67   16.10
  -1   5  -6  623.14   21.50
  -1   5  -6  611.94   21.20
  -1   5  -6  664.73   25.70
  -1   5  -6  601.14   25.20
  -1   5  -6  634.54   20.10
  -1   5  -6  641.94   21.80
   1  -5   6  651.53   22.10
   1  -5   6  656.73   22.50
   1  -5   6  597.54   20.90
   1  -5   6  642.74   21.50
  -2   5  -6  388.36   21.70
  -2   5  -6  399.76   16.60
  -2   5  -6  423.66   16.50
  -2   5  -6  405.86   15.80
  -2   5  -6  428.26   16.60
   2  -5   6  432.36   23.80
   2  -5   6  395.46   17.50
   2  -5   6  398.46   16.70
   2  -5   6  422.26   16.90
   2  -5   6  424.16   16.00
  -3   5  -6  351.96   14.80
  -3   5  -6  366.76   15.40
  -3   5  -6  355.96   15.10
  -3   5  -6  262.77   23.70
   3  -5   6  337.47   14.90
   3  -5   6  363.56   23.30
   3  -5   6  342.67   16.00
   3  -5   6  346.67   14.30
  -4   5  -6  174.58   11.80
  -4   5  -6  196.38   19.00
  -4   5  -6  175.08   11.10
  -4   5  -6  168.08   12.50
  -4   5  -6  194.38   12.00
   4  -5   6  197.38   18.20
   4  -5   6  170.48   11.80
   4  -5   6  190.58   11.20
   4  -5   6  169.98   11.50
   4  -5   6  173.18   12.60
  -5   5  -6  477.65   16.50
  -5   5  -6  449.76   16.30
  -5   5  -6  473.05   15.70
  -5   5  -6  474.55   26.70
   5  -5   6  478.35   16.20
   5  -5   6  447.56   16.00
   5  -5   6  460.65   16.90
   5  -5   6  531.15   30.30
   5  -5   6  425.66   25.20
   5  -5   6  488.45   17.20
  -6   5  -6  281.67   12.10
  -6   5  -6  301.67   12.60
  -6   5  -6  287.37   13.20
  -6   5  -6  317.37   25.80
  -6   5  -6  268.17   11.50
   6  -5   6  360.76   30.30
   6  -5   6  252.67   11.70
   6  -5   6  259.87   19.20
   6  -5   6  262.57   11.80
   6  -5   6  275.07   13.10
   6  -5   6  274.47   13.20
  -7   5  -6   28.00    6.70
  -7   5  -6   51.09    6.40
  -7   5  -6   28.90   16.10
   7  -5   6   33.10    4.80
   7  -5   6   32.20    6.40
   7  -5   6   37.60   17.30
   7  -5   6   16.10   12.30
   7  -5   6   37.70    5.30
   7  -5   6   30.50    6.70
   8   4  -6    4.20   13.10
   8   4  -6   -3.00   15.20
   8   4  -6   16.40   14.40
   8   4  -6   -4.10   14.30
  -8  -4   6   -8.10   15.70
  -8  -4   6  -25.20   14.80
  -8  -4   6    8.60   14.10
  -8  -4   6    3.60   13.90
   7   4  -6   42.90   13.00
   7   4  -6   51.79   14.10
   7   4  -6   32.90   14.20
   7   4  -6   58.09   13.50
  -7  -4   6   53.19   14.40
  -7  -4   6   49.80   12.70
  -7  -4   6   32.00   14.00
  -7  -4   6   51.09   14.90
   6   4  -6  287.77   20.10
   6   4  -6  290.87   21.90
   6   4  -6  277.77   22.60
  -6  -4   6  274.37   21.00
  -6  -4   6  249.78   20.80
  -6  -4   6  293.67   22.30
  -6  -4   6  268.77   22.10
   5   4  -6   21.30   10.80
   5   4  -6   19.40   10.60
   5   4  -6   22.60    9.60
   5   4  -6   21.10    8.60
  -5  -4   6   29.60   10.40
  -5  -4   6   28.70   12.30
  -5  -4   6   29.70    9.40
  -5  -4   6   38.40    9.80
   4   4  -6 1141.49   35.50
   4   4  -6 1085.39   37.60
   4   4  -6 1196.88   36.80
   4   4  -6 1139.29   35.20
  -4  -4   6 1238.28   32.40
  -4  -4   6 1099.29   35.20
  -4  -4   6 1127.59   34.60
  -4  -4   6 1188.58   36.70
  -4  -4   6 1239.08   36.30
   3   4  -6  144.79   13.00
   3   4  -6  117.29   10.80
   3   4  -6  148.29   13.00
   3   4  -6  136.19   11.80
  -3  -4   6  146.19   13.80
  -3  -4   6  148.69   12.30
  -3  -4   6  144.39   12.70
  -3  -4   6  156.18   13.00
  -3  -4   6  145.39   13.00
   2   4  -6  216.08   14.00
   2   4  -6  178.58   13.50
   2   4  -6  200.58   12.90
   2   4  -6  190.08   14.80
   2   4  -6  195.78   14.20
  -2  -4   6  184.48   13.60
  -2  -4   6  189.28   14.80
  -2  -4   6  205.08   14.50
  -2  -4   6  189.38   12.20
  -2  -4   6  188.88   13.70
   1   4  -6  258.37   14.50
   1   4  -6  241.18   14.60
   1   4  -6  249.68   13.70
   1   4  -6  244.88   14.00
   1   4  -6  248.38   13.70
  -1  -4   6  261.37   14.80
  -1  -4   6  218.38   15.20
  -1  -4   6  263.77   15.00
  -1  -4   6  234.98   13.20
  -1  -4   6  233.58   12.30
   0   4  -6 1518.25   42.90
   0   4  -6 1545.45   40.90
   0   4  -6 1609.64   41.10
   0   4  -6 1628.14   41.60
   0   4  -6 1555.64   40.90
   0  -4   6 1529.95   40.30
   0  -4   6 1620.74   41.60
   0  -4   6 1600.14   44.20
   0  -4   6 1606.44   42.00
   0  -4   6 1519.55   40.60
  -1   4  -6  437.66   16.60
  -1   4  -6  440.76   16.50
  -1   4  -6  458.05   16.70
  -1   4  -6  439.06   16.80
  -1   4  -6  440.66   19.60
  -1   4  -6  424.16   18.30
   1  -4   6  461.85   16.10
   1  -4   6  454.25   17.40
   1  -4   6  448.56   21.20
   1  -4   6  444.16   16.20
   1  -4   6  450.15   16.90
  -2   4  -6   12.00    5.10
  -2   4  -6   17.80    5.70
  -2   4  -6   14.20    5.80
  -2   4  -6    9.10    7.60
  -2   4  -6   14.40    5.10
  -2   4  -6   21.00    5.70
   2  -4   6   21.20    5.20
   2  -4   6   14.40    5.80
   2  -4   6   12.10    4.90
   2  -4   6   13.90    9.40
  -3   4  -6    0.30    5.10
  -3   4  -6    5.40    5.10
  -3   4  -6    8.20    4.60
  -3   4  -6   -3.30    8.00
  -3   4  -6    0.90    5.00
   3  -4   6    3.70    9.40
   3  -4   6    5.00    5.20
   3  -4   6    2.60    4.10
   3  -4   6   10.70    5.80
   3  -4   6   11.90    5.20
  -4   4  -6  105.99    9.40
  -4   4  -6  117.39    8.60
  -4   4  -6  119.89    9.20
  -4   4  -6   97.99   12.60
  -4   4  -6  112.79    8.90
   4  -4   6  136.79    8.10
   4  -4   6  112.69    9.70
   4  -4   6  117.09   14.00
   4  -4   6  113.49    9.20
   4  -4   6  104.09    8.70
  -5   4  -6   15.10    5.00
  -5   4  -6   17.80    4.50
  -5   4  -6   19.40    5.10
  -5   4  -6    9.20    5.10
  -5   4  -6    8.20   10.00
   5  -4   6   21.40    5.70
   5  -4   6   17.20    4.50
   5  -4   6    8.90    4.70
   5  -4   6   22.60   11.60
   5  -4   6    4.30    7.80
  -6   4  -6   84.69    7.50
  -6   4  -6   71.39    6.10
  -6   4  -6   72.29    6.10
  -6   4  -6   71.89    6.40
  -6   4  -6   60.09   13.40
   6  -4   6   75.39    5.30
   6  -4   6   70.89    6.60
   6  -4   6   76.49    6.40
   6  -4   6   78.49   16.10
   6  -4   6   68.69   11.00
   6  -4   6   78.69    6.40
  -7   4  -6  -13.20   11.60
  -7   4  -6   -3.10    4.00
  -7   4  -6   -1.60    4.10
   7  -4   6    5.40    4.20
   7  -4   6    2.90    4.10
   7  -4   6    8.30   10.60
   7  -4   6    3.00   15.30
  -8   4  -6   -5.10   13.20
   8  -4   6    9.10   18.10
   8  -4   6    2.10   12.50
   8   3  -6  736.33   32.80
   8   3  -6  701.93   35.70
   8   3  -6  680.23   34.60
   8   3  -6  736.73   32.10
  -8  -3   6  727.03   34.90
  -8  -3   6  775.32   34.40
  -8  -3   6  720.83   31.40
  -8  -3   6  671.73   32.80
   7   3  -6   46.90   13.20
   7   3  -6   23.70   11.90
   7   3  -6   14.40   13.70
   7   3  -6   32.00   12.60
  -7  -3   6   20.30   12.60
  -7  -3   6   28.80   13.20
  -7  -3   6   28.70   21.00
   6   3  -6  497.45   23.90
   6   3  -6  395.16   35.80
   6   3  -6  466.65   25.50
   6   3  -6  468.35   24.40
  -6  -3   6  465.85   22.80
  -6  -3   6  468.95   24.70
  -6  -3   6  492.75   25.50
  -6  -3   6  483.75   24.70
   5   3  -6  136.79   18.50
   5   3  -6  122.49   13.50
   5   3  -6  123.79   12.60
  -5  -3   6   91.29   12.70
  -5  -3   6  139.59   13.00
  -5  -3   6  109.79   12.60
  -5  -3   6   97.49   14.90
   4   3  -6 1272.77   38.80
   4   3  -6 1304.37   38.60
   4   3  -6 1279.77   38.00
   4   3  -6 1285.77   37.80
  -4  -3   6 1244.78   38.10
  -4  -3   6 1389.96   33.80
  -4  -3   6 1200.68   36.60
  -4  -3   6 1261.17   38.60
   3   3  -6   48.90    8.30
   3   3  -6   41.10    8.10
   3   3  -6   54.79    9.20
   3   3  -6   43.40    8.30
  -3  -3   6   44.40    7.50
  -3  -3   6   52.39    8.90
  -3  -3   6   37.70    7.40
  -3  -3   6   46.70    9.30
  -3  -3   6   32.10    8.20
   2   3  -6  668.83   23.10
   2   3  -6  672.03   23.70
   2   3  -6  702.23   23.10
   2   3  -6  677.33   23.20
  -2  -3   6  708.33   22.90
  -2  -3   6  658.43   22.10
  -2  -3   6  710.63   23.70
  -2  -3   6  671.93   23.10
  -2  -3   6  693.63   24.30
   1   3  -6  338.97   14.60
   1   3  -6  318.37   15.50
   1   3  -6  314.17   14.80
   1   3  -6  299.47   14.40
   1   3  -6  315.77   14.70
  -1  -3   6  351.86   16.10
  -1  -3   6  325.37   14.80
  -1  -3   6  328.87   13.90
  -1  -3   6  333.47   15.00
  -1  -3   6  339.67   16.40
   0   3  -6   25.10    5.80
   0   3  -6   30.20    6.50
   0   3  -6   29.30    6.40
   0   3  -6   38.60    6.20
   0   3  -6   25.80    6.00
   0  -3   6   33.10    5.70
   0  -3   6   30.40    6.30
   0  -3   6   18.40    7.20
   0  -3   6   22.60    5.80
   0  -3   6   31.80    6.10
  -1   3  -6   34.40    5.70
  -1   3  -6   35.00    5.70
  -1   3  -6   29.30    5.70
  -1   3  -6   18.60    6.10
  -1   3  -6   27.20    6.90
   1  -3   6   28.90    5.90
   1  -3   6   20.60    5.00
   1  -3   6   22.90    5.20
   1  -3   6   20.10    5.70
   1  -3   6   26.40    7.60
  -2   3  -6    3.80    5.40
  -2   3  -6    9.90    4.10
  -2   3  -6    5.50    4.70
  -2   3  -6    8.30    4.30
  -2   3  -6    1.30    5.50
  -2   3  -6   11.00    4.70
   2  -3   6    7.70    4.40
   2  -3   6   10.90    7.60
   2  -3   6    8.00    5.00
   2  -3   6    9.30    4.00
   2  -3   6    6.80    4.70
  -3   3  -6  101.69    8.90
  -3   3  -6  130.79    8.50
  -3   3  -6  151.08    8.60
  -3   3  -6  125.09   11.60
  -3   3  -6  135.29    8.40
  -3   3  -6  113.19    8.10
   3  -3   6  134.39    8.10
   3  -3   6  126.69    8.20
   3  -3   6  111.09    9.10
   3  -3   6  128.19    8.70
   3  -3   6  111.79   11.80
  -4   3  -6  855.51   29.90
  -4   3  -6  902.31   23.60
  -4   3  -6  924.31   27.20
  -4   3  -6  923.71   23.30
  -4   3  -6  912.21   23.40
   4  -3   6  901.11   23.50
   4  -3   6  906.31   23.20
   4  -3   6  922.11   23.50
   4  -3   6  914.11   24.20
  -5   3  -6  941.51   22.30
  -5   3  -6  920.91   22.60
  -5   3  -6  899.31   23.10
  -5   3  -6  951.10   32.00
  -5   3  -6  918.21   23.00
   5  -3   6  925.11   22.50
   5  -3   6  924.51   22.50
   5  -3   6  932.11   29.20
   5  -3   6  894.01   33.60
   5  -3   6  937.91   23.60
   5  -3   6  901.01   23.20
  -6   3  -6   26.70    3.60
  -6   3  -6   32.00    3.60
  -6   3  -6   37.40   10.30
   6  -3   6   34.60    3.80
   6  -3   6   42.80   12.80
   6  -3   6   35.50    8.80
   6  -3   6   30.60    3.70
  -7   3  -6  303.07   22.00
   7  -3   6  267.57   19.50
   7  -3   6  270.87   25.20
   8  -3   6  207.08   21.60
   8  -3   6  228.98   21.40
   8   2  -6   -1.70   14.50
   8   2  -6   -6.10   15.40
   8   2  -6   14.10   13.00
   8   2  -6   16.30   12.80
  -8  -2   6   12.50   13.80
  -8  -2   6   -0.80   14.80
  -8  -2   6    7.10   14.50
  -8  -2   6   12.10   14.70
   7   2  -6  181.28   15.90
   7   2  -6  166.98   16.40
   7   2  -6  190.78   18.50
   7   2  -6  168.88   17.10
  -7  -2   6  156.38   17.10
  -7  -2   6  195.78   17.10
  -7  -2   6  204.48   18.30
   6   2  -6  120.09   14.60
   6   2  -6  133.89   13.40
   6   2  -6  127.79   15.40
  -6  -2   6   98.99   13.50
  -6  -2   6  129.99   18.10
  -6  -2   6  125.99   14.50
  -6  -2   6  115.59   13.80
   5   2  -6   65.89   11.70
   5   2  -6   36.50    9.30
   5   2  -6   28.90   10.40
  -5  -2   6   47.10    9.60
  -5  -2   6   33.90    4.80
  -5  -2   6   29.20    9.80
  -5  -2   6   28.00   10.30
   4   2  -6   60.99   10.10
   4   2  -6   64.09    9.90
   4   2  -6   73.79   10.20
   4   2  -6   72.59   11.10
  -4  -2   6   92.89   11.20
  -4  -2   6   67.69    9.70
  -4  -2   6   67.89    9.80
  -4  -2   6   83.29    7.40
   3   2  -6  168.68   14.60
   3   2  -6  179.78   13.10
   3   2  -6  161.98   12.90
   3   2  -6  156.88   14.20
  -3  -2   6  154.28   13.90
  -3  -2   6  182.28   14.40
  -3  -2   6  170.88   13.20
  -3  -2   6  172.38   12.70
  -3  -2   6  180.98   11.20
   2   2  -6   30.80    7.30
   2   2  -6   29.70    6.90
   2   2  -6   31.70    7.20
   2   2  -6   34.80    7.50
  -2  -2   6   29.40    6.80
  -2  -2   6   33.00    7.10
  -2  -2   6   42.60    7.10
  -2  -2   6   24.50    7.20
  -2  -2   6   30.40    7.80
   1   2  -6    2.80    5.10
   1   2  -6    5.30    5.70
   1   2  -6   10.10    5.80
   1   2  -6    7.70    5.60
  -1  -2   6   12.00    5.70
  -1  -2   6    6.90    6.10
  -1  -2   6    7.50    5.80
  -1  -2   6   13.70    5.40
  -1  -2   6   11.90    5.60
   0   2  -6 1170.38   31.50
   0   2  -6 1172.88   31.30
   0   2  -6 1147.19   31.50
   0   2  -6 1195.08   31.90
   0  -2   6 1149.69   31.40
   0  -2   6 1176.48   31.60
   0  -2   6 1180.08   32.10
   0  -2   6 1160.98   33.30
   0  -2   6 1151.88   30.90
  -1   2  -6  290.57   11.80
  -1   2  -6  280.87   12.00
  -1   2  -6  279.57   12.00
   1  -2   6  278.67   12.40
   1  -2   6  283.27   12.20
   1  -2   6  273.37   11.70
   1  -2   6  255.27   11.30
   1  -2   6  297.27   15.40
  -2   2  -6 2159.88   52.19
  -2   2  -6 2101.89   49.90
  -2   2  -6 2042.80   49.60
  -2   2  -6 2043.20   53.09
  -2   2  -6 2118.79   49.90
  -2   2  -6 2092.09   49.90
   2  -2   6 2110.39   49.90
   2  -2   6 2066.59   49.60
   2  -2   6 2125.39   54.99
   2  -2   6 2107.39   49.99
   2  -2   6 2152.48   50.49
  -3   2  -6  821.82   24.90
  -3   2  -6  841.72   22.10
  -3   2  -6  842.32   22.00
  -3   2  -6  804.22   21.90
  -3   2  -6  842.62   21.80
   3  -2   6  847.72   28.10
   3  -2   6  839.22   22.00
   3  -2   6  790.22   21.80
   3  -2   6  838.22   21.80
   3  -2   6  833.72   22.40
  -4   2  -6  403.96   12.10
  -4   2  -6  400.46   18.60
  -4   2  -6  404.66   11.80
  -4   2  -6  374.16   11.90
  -4   2  -6  388.16   12.00
  -4   2  -6  407.56   16.30
   4  -2   6  378.76   12.50
   4  -2   6  375.16   12.00
   4  -2   6  392.96   11.90
   4  -2   6  402.06   20.50
   4  -2   6  409.86   12.20
  -5   2  -6    3.70    3.30
  -5   2  -6    3.00    2.70
  -5   2  -6    5.20    7.30
   5  -2   6   18.30   14.10
   5  -2   6    4.80    2.10
   5  -2   6    8.70    2.50
   5  -2   6    4.10    3.10
   5  -2   6    7.00    6.60
   5  -2   6    7.00    3.10
   6  -2   6 1154.98   38.20
   6  -2   6 1149.98   34.60
   7  -2   6 1185.38   40.60
   7  -2   6 1180.18   36.90
   8  -2   6   77.89   15.10
   8  -2   6   63.79   12.70
   9  -2   6   15.30   15.70
   9  -2   6   35.90   14.10
   8   1  -6   10.60   15.20
   8   1  -6   14.50   15.40
   8   1  -6    2.10   12.70
   8   1  -6   27.50   13.00
  -8  -1   6   18.10   14.80
  -8  -1   6  -20.00   14.90
  -8  -1   6    1.80   14.70
  -8  -1   6   -1.90   14.70
   7   1  -6   33.80   11.50
   7   1  -6   29.10   13.00
   7   1  -6   13.70   11.30
   7   1  -6   20.40   13.60
  -7  -1   6   28.20   12.10
  -7  -1   6   21.60   13.00
  -7  -1   6   15.50   12.90
   6   1  -6   15.80    9.40
   6   1  -6   13.50   11.40
   6   1  -6   13.50    9.90
  -6  -1   6   28.10   10.40
  -6  -1   6   -3.50   10.40
  -6  -1   6   20.50   11.20
   5   1  -6   21.00    8.70
   5   1  -6    6.60    8.90
   5   1  -6   12.90    9.60
  -5  -1   6    2.00    8.30
  -5  -1   6    9.50    4.50
  -5  -1   6    8.10    8.90
  -5  -1   6    7.80    8.10
  -5  -1   6    4.20    9.30
   4   1  -6   47.70    8.90
   4   1  -6   47.60   10.10
   4   1  -6   40.00    9.00
   4   1  -6   42.90    8.70
  -4  -1   6   39.70    5.80
  -4  -1   6   37.50    8.60
  -4  -1   6   54.79   10.00
  -4  -1   6   37.60    9.00
  -4  -1   6   31.70   16.60
   3   1  -6 1425.56   40.20
   3   1  -6 1456.75   39.90
   3   1  -6 1435.06   39.50
  -3  -1   6 1435.86   39.70
  -3  -1   6 1375.36   35.90
  -3  -1   6 1407.06   38.90
  -3  -1   6 1423.36   39.50
  -3  -1   6 1415.36   39.90
   2   1  -6 1248.18   35.40
   2   1  -6 1257.57   34.90
   2   1  -6 1305.17   35.60
   2   1  -6 1231.98   34.70
  -2  -1   6 1223.98   33.00
  -2  -1   6 1266.37   34.90
  -2  -1   6 1264.77   35.20
  -2  -1   6 1272.97   35.30
  -2  -1   6 1197.38   34.30
   1   1  -6   78.39    7.90
   1   1  -6   76.59    8.40
   1   1  -6   91.19    8.50
   1   1  -6   72.19    7.60
  -1  -1   6   83.59    8.10
  -1  -1   6   84.99    8.10
  -1  -1   6   86.29    8.20
  -1  -1   6   84.29    8.40
  -1  -1   6   69.19    7.30
   0   1  -6  274.17   12.70
   0   1  -6  295.47   12.90
   0   1  -6  266.27   12.70
   0   1  -6  241.98   11.70
   0  -1   6  243.18   13.40
   0  -1   6  272.27   12.50
   0  -1   6  268.87   12.70
   0  -1   6  258.37   11.70
   0  -1   6  258.07   12.30
  -1   1  -6 1270.77   32.70
  -1   1  -6 1261.77   32.70
  -1   1  -6 1245.58   32.40
  -1   1  -6 1220.68   32.10
   1  -1   6 1250.37   32.60
   1  -1   6 1252.27   32.80
   1  -1   6 1265.37   32.70
   1  -1   6 1247.28   34.90
   1  -1   6 1305.77   32.50
  -2   1  -6 4517.65  100.99
  -2   1  -6 4497.35  101.09
  -2   1  -6 4583.44  103.79
  -2   1  -6 4513.05  100.89
  -2   1  -6 4462.55  101.09
   2  -1   6 4408.36  101.09
   2  -1   6 4596.54  105.19
   2  -1   6 4545.55  101.09
   2  -1   6 4098.59  105.69
   2  -1   6 4531.85  100.89
  -3   1  -6   30.20    6.10
  -3   1  -6   34.00    4.30
  -3   1  -6   33.00    4.80
  -3   1  -6   40.20    4.50
  -3   1  -6   38.30    4.50
   3  -1   6   30.70    4.30
   3  -1   6   39.80    4.80
   3  -1   6   36.80    4.80
   3  -1   6   29.10    7.50
   3  -1   6   40.90    4.70
  -4   1  -6 2776.52   64.69
  -4   1  -6 2936.01   65.09
  -4   1  -6 2917.61   64.79
  -4   1  -6 2921.61   69.79
   4  -1   6 2819.92   64.69
   4  -1   6 2922.41   64.89
   4  -1   6 2940.51   65.29
   4  -1   6 2974.90   72.99
   4  -1   6 2905.71   65.29
  -5   1  -6  145.29   11.60
   5  -1   6  173.38    5.70
   5  -1   6  190.58   13.00
   5  -1   6  194.48   16.00
   5  -1   6  175.28    5.60
   6  -1   6  704.03   33.50
   6  -1   6  668.03   27.90
   7  -1   6    6.40    7.90
   7  -1   6   -1.40    9.90
   8  -1   6  786.82   32.80
   8  -1   6  797.72   30.80
   9  -1   6  354.06   25.20
   9  -1   6  417.96   28.40
  10  -1   6    5.40   15.30
  10  -1   6   11.80   16.00
   8   0  -6    5.30   14.70
   8   0  -6   11.80   13.30
   8   0  -6    5.80   13.10
   8   0  -6   11.30   16.30
  -8   0   6    3.10   16.70
  -8   0   6    4.70   15.20
  -8   0   6   22.40   16.10
  -8   0   6   -4.80   14.10
   7   0  -6  533.85   29.10
   7   0  -6  488.25   24.70
   7   0  -6  502.25   26.30
   7   0  -6  492.05   26.00
  -7   0   6  417.16   27.60
  -7   0   6  453.35   25.90
  -7   0   6  470.65   28.50
   6   0  -6  356.06   28.80
   6   0  -6  448.66   23.00
   6   0  -6  361.46   20.20
   6   0  -6  402.06   24.30
  -6   0   6  360.66   23.20
  -6   0   6  363.36   11.30
  -6   0   6  359.16   11.60
  -6   0   6  375.66   20.90
  -6   0   6  416.16   24.00
   5   0  -6  424.76   21.20
   5   0  -6  429.06   22.60
   5   0  -6  449.06   21.20
   5   0  -6  426.46   20.00
  -5   0   6  414.46   21.70
  -5   0   6  425.76   22.10
  -5   0   6  377.66   20.10
  -5   0   6  453.05   22.60
   4   0  -6  506.25   22.10
   4   0  -6  519.85   20.90
   4   0  -6  475.15   21.10
   4   0  -6  464.15   20.00
  -4   0   6  531.45   21.70
  -4   0   6  494.55   21.90
  -4   0   6  512.65   22.00
  -4   0   6  443.16   19.50
   3   0  -6  745.83   25.40
   3   0  -6  707.83   24.10
   3   0  -6  718.73   24.40
   3   0  -6  702.93   24.70
  -3   0   6  748.13   24.60
  -3   0   6  679.43   24.10
  -3   0   6  749.92   25.10
  -3   0   6  694.13   24.90
   2   0  -6  606.94   20.60
   2   0  -6  551.44   20.70
   2   0  -6  647.54   21.90
  -2   0   6  582.14   21.20
  -2   0   6  582.94   21.50
  -2   0   6  607.34   21.30
  -2   0   6  590.04   20.40
   1   0  -6 1681.63   43.00
   1   0  -6 1699.03   43.30
   1   0  -6 1724.03   42.90
  -1   0   6 1617.84   42.90
  -1   0   6 1666.73   43.10
  -1   0   6 1646.44   42.70
  -1   0   6 1672.23   43.30
   0   0  -6 3569.54   81.19
   0   0  -6 3405.96   80.99
   0   0  -6 3480.05   81.29
   0   0   6 3467.65   81.29
   0   0   6 3469.85   81.29
   0   0   6 3476.55   81.19
   0   0   6 3506.45   80.99
  -1   0  -6  243.98   10.70
  -1   0  -6  217.88   10.60
  -1   0  -6  251.57   10.60
  -1   0  -6  241.58   10.90
   1   0   6  211.68   12.00
   1   0   6  231.38   10.70
   1   0   6  217.88   10.90
   1   0   6  227.68   10.70
   1   0   6  231.08   10.30
  -2   0  -6  341.37   12.00
  -2   0  -6  323.27   12.10
  -2   0  -6  340.07   12.20
   2   0   6  328.97   11.90
   2   0   6  361.16   12.50
   2   0   6  336.97   15.20
   2   0   6  351.76   12.30
   2   0   6  344.17   12.30
  -3   0  -6  313.57   10.80
  -3   0  -6  308.67   10.80
  -3   0  -6  336.37   10.60
  -3   0  -6  304.47   10.70
  -3   0  -6  322.77   14.10
   3   0   6  319.27   10.60
   3   0   6  309.17   10.80
   3   0   6  320.57   11.30
   3   0   6  304.97   15.40
   3   0   6  316.57   10.90
  -4   0  -6 2566.34   63.39
  -4   0  -6 2637.54   58.89
  -4   0  -6 2648.33   58.59
  -4   0  -6 2650.83   58.39
  -4   0  -6 2651.53   58.69
   4   0   6 2595.04   58.99
   4   0   6 2627.94   58.39
   4   0   6 2618.04   58.69
   4   0   6 2501.85   65.29
   4   0   6 2603.94   58.79
  -5   0  -6  229.28   12.90
   5   0   6  267.97   16.40
   5   0   6  275.37    7.30
   5   0   6  258.37    7.00
   5   0   6  263.57   14.30
   6   0   6   12.70    6.70
   6   0   6   25.30    8.80
   7   0   6  111.59   11.80
   8   0   6   29.00   11.50
   8   0   6   21.50    9.80
   9   0   6   70.19   14.50
   9   0   6  101.39   14.30
  10   0   6   69.19   15.70
  10   0   6   65.99   16.50
   7  -1  -6  136.19   17.10
   7  -1  -6  120.99   15.40
   7  -1  -6  123.49   17.40
   7  -1  -6  122.99   15.30
  -7   1   6  112.19   17.00
  -7   1   6  152.18   18.10
  -7   1   6  129.99   16.30
  -7   1   6  119.99    9.30
  -7   1   6  151.78   17.60
   6  -1  -6  167.88   14.80
   6  -1  -6  162.68   15.70
   6  -1  -6  200.48   16.70
  -6   1   6  225.68   21.00
  -6   1   6  207.58   17.70
  -6   1   6  197.48   12.50
  -6   1   6  191.88   15.80
   5  -1  -6 1556.14   44.90
   5  -1  -6 1423.56   42.70
   5  -1  -6 1519.65   43.40
   5  -1  -6 1401.56   49.30
  -5   1   6 1682.73   49.99
  -5   1   6 1455.65   42.80
  -5   1   6 1435.66   44.00
  -5   1   6 1580.44   44.50
   4  -1  -6  210.48   17.10
   4  -1  -6  184.98   15.20
   4  -1  -6  176.68   14.40
   4  -1  -6  153.18   14.30
  -4   1   6  179.88   15.20
  -4   1   6  183.08   16.30
  -4   1   6  152.88   13.50
  -4   1   6  142.99   12.60
   3  -1  -6  694.53   24.20
   3  -1  -6  644.44   22.70
   3  -1  -6  660.03   24.00
   3  -1  -6  682.23   25.00
  -3   1   6  674.43   23.90
  -3   1   6  617.34   23.10
  -3   1   6  728.83   25.00
  -3   1   6  683.73   24.60
   2  -1  -6   19.40    6.70
   2  -1  -6   24.80    6.70
   2  -1  -6   24.50    7.20
   2  -1  -6   26.60    7.20
  -2   1   6   20.30    6.80
  -2   1   6   33.20    7.10
  -2   1   6   24.60    7.10
  -2   1   6   18.50    6.90
   1  -1  -6 1745.73   44.20
   1  -1  -6 1669.93   44.00
   1  -1  -6 1669.83   44.30
   1  -1  -6 1786.72   44.80
  -1   1   6 1691.63   44.20
  -1   1   6 1769.82   44.70
  -1   1   6 1786.12   44.90
  -1   1   6 1669.33   43.60
   0  -1  -6   69.09    7.20
   0  -1  -6   67.59    7.00
   0  -1  -6   82.49    7.40
   0  -1  -6   73.49    7.10
   0   1   6   72.79    7.40
   0   1   6   78.19    7.80
   0   1   6   91.79    8.10
   0   1   6   88.29    8.10
  -1  -1  -6 1632.84   40.80
  -1  -1  -6 1713.43   41.30
  -1  -1  -6 1700.73   40.90
  -1  -1  -6 1594.44   40.70
   1   1   6 1688.93   41.10
   1   1   6 1606.54   40.90
   1   1   6 1610.74   40.60
   1   1   6 1617.74   41.00
  -2  -1  -6  295.47   11.10
  -2  -1  -6  283.07   11.00
  -2  -1  -6  287.67   11.30
   2   1   6  295.27   11.40
   2   1   6  298.87   11.40
   2   1   6  282.17   10.90
   2   1   6  286.37   11.40
  -3  -1  -6    7.60    3.60
  -3  -1  -6    7.00    3.60
  -3  -1  -6    8.70    5.00
  -3  -1  -6   10.00    3.50
  -3  -1  -6   10.30    3.60
   3   1   6   10.60    3.80
   3   1   6    8.60    3.30
   3   1   6   13.10    4.00
   3   1   6   13.90    3.60
  -4  -1  -6  347.37   10.70
  -4  -1  -6  343.37   10.30
  -4  -1  -6  344.27   15.00
  -4  -1  -6  355.36   11.00
   4   1   6  335.17   10.20
   4   1   6  334.57   10.50
   4   1   6  308.87   15.90
   4   1   6  349.96   11.00
   4   1   6  325.97   11.00
  -5  -1  -6  714.83   23.30
  -5  -1  -6  763.52   17.40
  -5  -1  -6  742.73   18.00
  -5  -1  -6  745.03   17.80
  -5  -1  -6  754.62   17.40
   5   1   6  750.62   18.30
   5   1   6  690.53   25.20
   5   1   6  734.93   17.50
   5   1   6  734.83   18.00
   5   1   6  728.73   17.60
   5   1   6  744.13   24.50
  -6  -1  -6  356.26   16.50
   6   1   6  405.76   17.80
   6   1   6  411.06   19.80
   7   1   6   55.29    9.10
   7   1   6   83.79   11.80
   8   1   6  373.66   22.80
   8   1   6  386.86   21.00
  10   1   6    9.70   13.10
  10   1   6  -10.50   12.70
   7  -2  -6  694.53   30.90
   7  -2  -6  745.73   32.70
   7  -2  -6  778.32   35.30
   7  -2  -6  773.92   32.30
  -7   2   6  740.33   33.60
  -7   2   6  710.13   24.50
  -7   2   6  730.53   32.80
  -7   2   6  703.73   32.00
  -7   2   6  771.62   34.40
   6  -2  -6   60.79   12.00
   6  -2  -6   41.70   13.10
   6  -2  -6   30.20   13.20
   6  -2  -6   43.50   11.30
  -6   2   6   51.49   12.30
  -6   2   6   46.20   13.40
  -6   2   6   56.49   13.40
   5  -2  -6  317.17   20.20
   5  -2  -6  357.46   22.60
   5  -2  -6  339.17   20.40
   5  -2  -6  381.86   20.10
  -5   2   6  338.47   21.40
  -5   2   6  329.57   19.60
  -5   2   6  347.97   21.80
   4  -2  -6    6.90    8.20
   4  -2  -6    3.90    9.60
   4  -2  -6    3.10    8.90
  -4   2   6   10.10    8.20
  -4   2   6    0.30    9.00
  -4   2   6   -1.40    8.20
  -4   2   6    5.90    8.90
   3  -2  -6  830.92   27.50
   3  -2  -6  865.41   28.70
   3  -2  -6  863.71   28.00
   3  -2  -6  836.52   27.10
  -3   2   6  829.52   28.60
  -3   2   6  860.61   28.30
  -3   2   6  838.32   27.20
   2  -2  -6  839.92   25.90
   2  -2  -6  759.12   24.70
   2  -2  -6  825.72   26.20
   2  -2  -6  793.92   26.00
  -2   2   6  818.32   25.70
  -2   2   6  772.42   25.90
  -2   2   6  797.62   26.10
  -2   2   6  775.32   25.10
   1  -2  -6  344.07   14.70
   1  -2  -6  339.27   15.20
   1  -2  -6  343.17   15.40
   1  -2  -6  347.17   15.10
  -1   2   6  314.17   14.80
  -1   2   6  351.56   15.20
  -1   2   6  317.67   14.60
  -1   2   6  351.26   15.70
   0  -2  -6  123.29    8.80
   0  -2  -6  118.59    9.20
   0  -2  -6  112.29   10.00
   0  -2  -6  110.99    9.50
   0   2   6  122.59   10.20
   0   2   6  125.59    9.30
   0   2   6  131.09    9.80
  -1  -2  -6    9.20    4.60
  -1  -2  -6   14.20    4.50
  -1  -2  -6    5.10    4.10
  -1  -2  -6    6.10    4.30
   1   2   6    4.70    4.30
   1   2   6    9.40    4.50
   1   2   6   12.00    4.40
  -2  -2  -6    6.90    3.80
  -2  -2  -6    9.50    4.10
  -2  -2  -6   12.60    4.40
  -2  -2  -6   12.40    4.00
   2   2   6    8.30    3.80
   2   2   6   11.60    4.10
   2   2   6   11.00    3.90
   2   2   6   10.60    3.70
  -3  -2  -6  845.02   25.70
  -3  -2  -6  842.52   22.40
  -3  -2  -6  868.21   22.50
  -3  -2  -6  851.11   22.40
  -3  -2  -6  866.91   22.20
   3   2   6  832.12   22.30
   3   2   6  841.82   22.90
   3   2   6  838.02   22.60
   3   2   6  877.31   22.50
  -4  -2  -6  836.42   21.40
  -4  -2  -6  834.72   25.80
  -4  -2  -6  846.22   21.70
  -4  -2  -6  825.62   21.60
  -4  -2  -6  865.81   21.60
   4   2   6  822.12   21.60
   4   2   6  849.32   21.50
   4   2   6  848.42   21.50
   4   2   6  836.52   21.90
  -5  -2  -6  676.23   17.10
  -5  -2  -6  655.83   16.80
  -5  -2  -6  638.64   16.80
  -5  -2  -6  640.84   21.60
   5   2   6  638.14   17.20
   5   2   6  664.63   17.10
   5   2   6  646.04   17.00
  -6  -2  -6 2264.77   49.10
  -6  -2  -6 2186.58   49.20
  -6  -2  -6 2127.49   55.39
  -6  -2  -6 2232.58   48.60
  -6  -2  -6 2275.17   48.70
   6   2   6 2180.98   48.90
   6   2   6 2125.19   56.89
   6   2   6 2192.78   48.80
   6   2   6 2150.48   55.99
   6   2   6 2160.98   49.50
   7   2   6  106.69   12.10
   7   2   6  112.09   10.70
   8   2   6  327.37   20.40
   8   2   6  333.67   20.70
   9   2   6   30.80   10.90
  10   2   6 1183.28   40.20
  11   2   6  253.37   22.60
  11   2   6  249.08   20.80
   6  -3  -6   32.10   14.70
   6  -3  -6   32.60   12.30
   6  -3  -6   45.40   12.60
   6  -3  -6   59.89   14.00
  -6   3   6   58.29   11.50
  -6   3   6   73.99   14.80
  -6   3   6   40.60   14.10
  -6   3   6   80.89   13.70
   5  -3  -6    1.40    9.30
   5  -3  -6    5.70    9.50
   5  -3  -6   -9.20   11.70
  -5   3   6   11.30    9.90
  -5   3   6   29.90   11.90
  -5   3   6   -5.10   11.10
   4  -3  -6   67.89   11.10
   4  -3  -6   80.89   11.00
   4  -3  -6   93.49   11.90
   4  -3  -6  103.89   11.40
  -4   3   6   82.49   11.60
  -4   3   6   87.69   12.70
  -4   3   6   67.19   10.60
  -4   3   6   87.49   11.70
   3  -3  -6  114.09   11.40
   3  -3  -6  110.89   11.10
   3  -3  -6  134.79   11.70
   3  -3  -6  114.89   12.10
  -3   3   6  128.09   12.50
  -3   3   6  115.69   10.80
  -3   3   6  132.89   12.00
  -3   3   6  109.59   11.00
   2  -3  -6  321.47   16.60
   2  -3  -6  326.97   15.30
   2  -3  -6  324.97   16.40
   2  -3  -6  335.77   15.80
  -2   3   6  320.07   17.00
  -2   3   6  302.77   15.30
  -2   3   6  326.57   16.60
  -2   3   6  322.27   15.50
   1  -3  -6   16.40    6.20
   1  -3  -6   15.70    6.50
   1  -3  -6    4.40    5.90
   1  -3  -6    9.60    6.10
  -1   3   6    8.00    5.70
  -1   3   6   18.30    6.30
  -1   3   6    5.20    6.20
   0  -3  -6  108.79   10.40
   0  -3  -6   88.79    8.10
   0  -3  -6   87.49    7.70
   0  -3  -6  101.69    9.00
   0   3   6   89.99    8.20
   0   3   6  104.99    9.70
   0   3   6  109.09    9.60
   0   3   6   95.79    8.80
  -1  -3  -6 2343.27   56.99
  -1  -3  -6 2460.95   57.89
  -1  -3  -6 2373.86   57.89
  -1  -3  -6 2415.76   57.59
   1   3   6 2411.26   58.09
   1   3   6 2412.66   57.69
   1   3   6 2430.96   57.49
   1   3   6 2358.26   57.69
  -2  -3  -6 2888.91   65.99
  -2  -3  -6 2754.82   66.09
  -2  -3  -6 2838.32   65.99
  -2  -3  -6 2820.82   66.39
   2   3   6 2803.72   66.49
   2   3   6 2812.72   66.09
   2   3   6 2825.82   66.19
   2   3   6 2849.01   65.99
  -3  -3  -6   31.60    6.10
  -3  -3  -6   27.70    6.20
  -3  -3  -6   36.30    4.90
   3   3   6   36.90    4.80
   3   3   6   22.10    4.30
   3   3   6   16.00    3.90
  -4  -3  -6  378.76   12.40
  -4  -3  -6  378.26   12.90
  -4  -3  -6  380.46   13.00
  -4  -3  -6  377.56   12.50
  -4  -3  -6  403.16   16.30
   4   3   6  353.16   12.80
   4   3   6  388.36   12.50
   4   3   6  387.76   13.00
   4   3   6  407.96   12.90
  -5  -3  -6  920.31   23.80
  -5  -3  -6  922.91   27.60
  -5  -3  -6  911.21   23.10
  -5  -3  -6  904.61   23.70
  -5  -3  -6  915.31   23.30
   5   3   6  954.70   23.90
   5   3   6  908.91   24.00
   5   3   6  888.71   23.00
   5   3   6  904.51   23.40
  -6  -3  -6 1646.14   38.20
  -6  -3  -6 1628.24   43.50
  -6  -3  -6 1677.23   38.60
  -6  -3  -6 1683.43   38.10
   6   3   6 1665.23   39.10
   6   3   6 1696.33   44.40
   6   3   6 1653.13   38.70
   6   3   6 1466.35   39.80
   6   3   6 1619.74   38.50
  -7  -3  -6   33.10    3.50
  -7  -3  -6   29.20    3.80
  -7  -3  -6   27.00    4.20
  -7  -3  -6   28.40    3.90
   7   3   6   30.80    4.40
   7   3   6   30.50    3.50
   7   3   6   26.20    7.80
   7   3   6   31.20    4.00
  -8  -3  -6  385.76   11.10
  -8  -3  -6  384.26   10.60
   8   3   6  367.26   20.60
   8   3   6  383.56   11.00
   8   3   6  401.16   20.30
   8   3   6  376.06   11.40
   9   3   6   45.40   12.30
  10   3   6   13.60   11.80
  11   3   6    6.80   13.30
  11   3   6   13.50   15.10
   6  -4  -6   -4.50   14.40
   6  -4  -6    6.10   14.60
   6  -4  -6    2.60   11.60
   6  -4  -6   -9.00   12.00
  -6   4   6   21.00   13.60
  -6   4   6   13.70   13.90
  -6   4   6    7.90   15.50
  -6   4   6    3.70   10.60
   5  -4  -6   66.49   12.20
   5  -4  -6   71.49   13.60
   5  -4  -6   63.59   11.60
   5  -4  -6   63.39   14.10
  -5   4   6   67.29   13.00
  -5   4   6   36.90   12.70
  -5   4   6   72.59   13.50
   4  -4  -6  576.54   24.30
   4  -4  -6  518.45   25.10
   4  -4  -6  502.95   22.90
  -4   4   6  555.04   25.00
  -4   4   6  524.55   25.50
  -4   4   6  525.85   23.80
   3  -4  -6  680.23   25.80
   3  -4  -6  692.33   25.90
   3  -4  -6  701.93   25.40
   3  -4  -6  647.34   25.10
  -3   4   6  687.83   26.20
  -3   4   6  682.43   25.00
  -3   4   6  689.83   25.50
  -3   4   6  702.23   26.10
   2  -4  -6  141.89   12.80
   2  -4  -6  155.68   13.30
   2  -4  -6  155.08   13.00
   2  -4  -6  151.18   14.30
  -2   4   6  153.68   12.90
  -2   4   6  159.08   12.80
  -2   4   6  144.69   13.30
   1  -4  -6 2194.18   55.19
   1  -4  -6 2169.38   55.79
   1  -4  -6 2188.28   55.19
   1  -4  -6 2198.98   54.89
  -1   4   6 2222.68   55.09
  -1   4   6 2161.88   55.69
  -1   4   6 2195.38   55.19
  -1   4   6 2185.98   55.19
   0  -4  -6   15.40    5.90
   0  -4  -6   11.00    6.30
   0  -4  -6   20.60    6.10
   0  -4  -6   19.00    6.10
   0   4   6   19.60    6.30
   0   4   6   24.20    6.40
   0   4   6   14.80    6.00
   0   4   6   23.40    6.50
  -1  -4  -6 2301.87   56.19
  -1  -4  -6 2314.57   55.89
  -1  -4  -6 2323.87   56.49
  -1  -4  -6 2315.27   55.59
   1   4   6 2231.88   56.29
   1   4   6 2350.86   55.79
   1   4   6 2196.18   55.89
   1   4   6 2277.07   56.09
  -2  -4  -6  388.26   15.30
  -2  -4  -6  421.86   15.10
  -2  -4  -6  398.46   14.30
  -2  -4  -6  382.76   14.80
   2   4   6  388.96   15.30
   2   4   6  397.16   14.90
   2   4   6  385.06   15.00
   2   4   6  403.46   14.80
  -3  -4  -6 5804.22  130.29
  -3  -4  -6 5734.93  129.89
  -3  -4  -6 5612.44  130.29
  -3  -4  -6 5809.52  129.69
   3   4   6 5843.12  130.09
   3   4   6 5760.92  130.49
   3   4   6 5894.51  129.99
   3   4   6 5770.22  130.29
  -4  -4  -6 1427.36   34.70
  -4  -4  -6 1390.66   34.80
  -4  -4  -6 1348.97   37.50
  -4  -4  -6 1356.26   35.10
   4   4   6 1444.96   34.80
   4   4   6 1399.86   35.30
   4   4   6 1330.87   35.30
   4   4   6 1386.76   35.00
  -5  -4  -6  232.28   10.00
  -5  -4  -6  226.08   13.10
  -5  -4  -6  239.68   10.80
  -5  -4  -6  239.28   10.00
  -5  -4  -6  240.38   11.00
   5   4   6  232.18   10.80
   5   4   6  245.88   10.90
   5   4   6  230.98   10.60
   5   4   6  238.78   10.30
  -6  -4  -6   80.49    6.90
  -6  -4  -6   66.59    6.30
  -6  -4  -6   51.49    6.20
  -6  -4  -6   51.59    5.50
  -6  -4  -6   68.49    8.50
   6   4   6   62.59    6.40
   6   4   6   49.10    5.70
   6   4   6   52.79    8.50
   6   4   6   50.29    5.40
   6   4   6   57.19    6.10
  -7  -4  -6  901.71   26.90
  -7  -4  -6  945.71   24.50
  -7  -4  -6  875.41   24.90
  -7  -4  -6  948.71   29.50
  -7  -4  -6  958.10   24.00
   7   4   6  928.51   23.70
   7   4   6  908.71   24.10
   7   4   6  866.51   24.70
   7   4   6  925.31   24.40
   7   4   6  975.50   30.30
  -8  -4  -6  843.72   21.90
  -8  -4  -6  830.32   22.20
  -8  -4  -6  834.92   21.30
  -8  -4  -6  840.52   22.00
   8   4   6  836.52   22.30
   8   4   6  846.72   29.40
   8   4   6  814.52   22.70
   8   4   6  833.02   21.90
   8   4   6  827.42   21.50
  -9  -4  -6    7.90    5.00
  -9  -4  -6    2.40    3.60
  -9  -4  -6    3.20    4.30
  -9  -4  -6   11.90    4.60
   9   4   6   12.70   10.70
   9   4   6    7.30    4.70
   9   4   6    7.00    3.90
   9   4   6    4.50    4.60
   9   4   6    3.10    9.80
   9   4   6   14.80    5.20
 -10  -4  -6   16.20    4.40
 -10  -4  -6   13.50    5.50
  10   4   6    4.80   12.20
  10   4   6   13.80    5.40
  10   4   6   20.50   11.40
  10   4   6    7.20    4.40
  11   4   6    6.20   12.60
  11   4   6   -2.90   15.20
   5  -5  -6  564.44   28.00
   5  -5  -6  502.55   28.30
   5  -5  -6  560.84   26.20
   5  -5  -6  560.04   29.70
  -5   5   6  533.45   30.20
  -5   5   6  566.84   28.90
  -5   5   6  571.64   30.50
  -5   5   6  591.94   29.10
   4  -5  -6  -10.90   10.90
   4  -5  -6    8.60    9.60
   4  -5  -6   -9.80   10.10
   4  -5  -6    6.70    9.80
  -4   5   6   -2.00   11.10
  -4   5   6    0.90   10.70
  -4   5   6   18.20   10.90
   3  -5  -6  174.38   15.90
   3  -5  -6  211.58   17.70
   3  -5  -6  185.88   17.10
  -3   5   6  183.58   16.40
  -3   5   6  194.58   17.00
  -3   5   6  195.18   18.20
   2  -5  -6  295.67   17.00
   2  -5  -6  289.37   17.90
   2  -5  -6  318.77   17.60
  -2   5   6  302.27   18.30
  -2   5   6  279.17   16.10
  -2   5   6  316.77   17.30
  -2   5   6  309.27   27.90
   1  -5  -6 2039.20   52.69
   1  -5  -6 2024.20   51.99
   1  -5  -6 2004.10   51.89
   1  -5  -6 2034.10   51.39
  -1   5   6 1751.32   60.49
  -1   5   6 1970.00   51.89
  -1   5   6 2022.00   51.89
  -1   5   6 2057.89   52.69
   0  -5  -6   76.19    8.50
   0  -5  -6   51.19    7.80
   0  -5  -6   69.59    8.50
   0  -5  -6   81.49    9.20
   0   5   6   49.00    7.70
   0   5   6   73.59    8.60
   0   5   6   80.29    8.40
   0   5   6   82.39    9.80
  -1  -5  -6  796.32   24.60
  -1  -5  -6  774.22   25.40
  -1  -5  -6  766.12   24.80
  -1  -5  -6  833.52   25.30
   1   5   6  844.72   25.00
   1   5   6  800.82   25.60
   1   5   6  816.72   25.00
   1   5   6  770.82   24.60
  -2  -5  -6   11.30    5.70
  -2  -5  -6   10.30    5.90
  -2  -5  -6    3.90    4.90
  -2  -5  -6   11.40    5.80
   2   5   6    8.30    5.40
   2   5   6    5.00    5.70
   2   5   6   16.80    5.40
   2   5   6    6.90    5.20
  -3  -5  -6  430.86   16.50
  -3  -5  -6  426.66   17.00
  -3  -5  -6  451.55   16.30
  -3  -5  -6  436.46   15.70
   3   5   6  454.95   16.40
   3   5   6  475.55   16.40
   3   5   6  426.06   16.00
   3   5   6  437.96   16.60
  -4  -5  -6    8.60    5.50
  -4  -5  -6    1.00    4.40
  -4  -5  -6   -7.50    5.10
  -4  -5  -6    0.80    5.30
  -4  -5  -6    2.40    4.40
   4   5   6   -1.70    4.60
   4   5   6    6.50    4.30
   4   5   6    3.10    4.80
   4   5   6    0.60    4.70
  -5  -5  -6   91.29    8.40
  -5  -5  -6   91.69    8.90
  -5  -5  -6   96.99    8.30
  -5  -5  -6   98.79    8.60
   5   5   6   85.79    7.60
   5   5   6   94.69    8.10
   5   5   6   87.59    7.40
   5   5   6  108.99    9.00
  -6  -5  -6  155.88   12.10
  -6  -5  -6  140.39   10.40
  -6  -5  -6  142.59   10.60
  -6  -5  -6  149.39    9.60
   6   5   6  151.18   10.20
   6   5   6  154.58    9.50
   6   5   6  154.48   10.30
   6   5   6  153.88   10.70
  -7  -5  -6  402.46   14.30
  -7  -5  -6  389.86   18.70
  -7  -5  -6  371.76   15.20
  -7  -5  -6  389.76   14.30
  -7  -5  -6  408.96   15.40
   7   5   6  381.66   14.50
   7   5   6  393.46   14.30
   7   5   6  384.16   19.30
   7   5   6  386.76   14.70
   7   5   6  431.76   15.80
  -8  -5  -6  316.17   13.00
  -8  -5  -6  314.57   14.20
  -8  -5  -6  350.66   13.30
  -8  -5  -6  354.96   14.10
   8   5   6  316.67   13.60
   8   5   6  336.37   19.50
   8   5   6  325.47   13.40
   8   5   6  332.27   13.00
   8   5   6  326.87   14.10
  -9  -5  -6   11.60    5.30
  -9  -5  -6    7.80    5.90
  -9  -5  -6   10.80    6.90
   9   5   6    4.00    6.00
   9   5   6   10.80    6.20
   9   5   6    6.70    5.60
   9   5   6    4.90    9.80
 -10  -5  -6   24.10    5.70
 -10  -5  -6   30.90    6.60
 -10  -5  -6   29.20    7.00
 -10  -5  -6   37.50    6.70
  10   5   6   11.60    6.50
  10   5   6   39.60   14.20
  10   5   6   30.50    6.20
  10   5   6   27.00    6.50
  10   5   6   40.00   12.10
  10   5   6   24.20    6.80
 -11  -5  -6  159.98   10.80
 -11  -5  -6  163.98   11.60
 -11  -5  -6  138.29   12.60
  11   5   6  176.68   11.70
  11   5   6  172.38   17.60
  11   5   6  167.88    9.60
  11   5   6  166.78   11.00
  11   5   6  234.38   21.40
  11   5   6  132.39   12.70
   5  -6  -6   12.70   13.50
   5  -6  -6    2.10   15.60
   5  -6  -6   29.00   15.50
   5  -6  -6   33.10   13.70
  -5   6   6    8.30   15.20
  -5   6   6   -6.10   13.50
  -5   6   6   15.70   13.90
  -5   6   6  -10.90   13.50
   4  -6  -6  737.93   29.90
   4  -6  -6  732.63   30.90
   4  -6  -6  746.63   31.70
   4  -6  -6  782.42   31.30
  -4   6   6  694.73   30.20
  -4   6   6  759.72   32.10
  -4   6   6  746.13   32.10
   3  -6  -6  169.48   15.00
   3  -6  -6  177.68   15.90
   3  -6  -6  194.48   16.50
   3  -6  -6  152.18   14.40
  -3   6   6  188.78   16.10
  -3   6   6  180.08   15.70
  -3   6   6  183.68   15.40
   2  -6  -6  241.18   17.10
   2  -6  -6  225.28   18.00
   2  -6  -6  268.27   17.00
   2  -6  -6  245.38   18.20
  -2   6   6  240.68   17.80
  -2   6   6  251.87   16.60
  -2   6   6  267.57   19.20
  -2   6   6  243.98   17.80
   1  -6  -6   28.90    8.90
   1  -6  -6   30.70    8.70
   1  -6  -6   23.30    9.10
  -1   6   6   24.70    8.70
  -1   6   6   25.20    9.10
  -1   6   6   20.50    9.30
  -1   6   6   32.50    9.10
   0  -6  -6 1138.19   34.50
   0  -6  -6 1126.39   33.50
   0  -6  -6 1158.88   33.70
   0   6   6 1108.59   33.10
   0   6   6 1134.19   33.70
   0   6   6  975.70   40.10
   0   6   6 1123.19   34.30
  -1  -6  -6 1522.65   42.00
  -1  -6  -6 1566.04   41.40
  -1  -6  -6 1446.86   40.80
  -1  -6  -6 1495.05   40.40
   1   6   6 1500.55   41.80
   1   6   6 1516.85   41.60
   1   6   6 1551.34   41.20
   1   6   6 1523.75   40.70
  -2  -6  -6    7.70    6.40
  -2  -6  -6   27.80    6.30
  -2  -6  -6   18.50    6.70
  -2  -6  -6    7.80    7.10
   2   6   6   19.00    6.60
   2   6   6   23.60    7.10
   2   6   6    9.10    6.20
   2   6   6   23.80    6.50
  -3  -6  -6   10.90    5.90
  -3  -6  -6   16.10    6.40
  -3  -6  -6   17.60    6.50
  -3  -6  -6   19.70    6.90
   3   6   6   34.60    7.10
   3   6   6   17.50    6.30
   3   6   6   17.30    6.40
   3   6   6   15.40    6.20
  -4  -6  -6 1073.89   29.90
  -4  -6  -6 1039.40   30.40
  -4  -6  -6 1028.00   30.40
  -4  -6  -6 1046.70   29.30
  -4  -6  -6 1005.50   30.60
   4   6   6 1033.90   30.40
   4   6   6 1104.89   29.80
   4   6   6 1066.59   30.10
   4   6   6 1042.70   30.00
  -5  -6  -6   67.99    8.30
  -5  -6  -6   44.70    7.60
  -5  -6  -6   57.59    7.10
  -5  -6  -6   60.29    8.60
   5   6   6   73.49    8.60
   5   6   6   61.59    7.90
   5   6   6   49.60    7.40
   5   6   6   74.39    7.70
  -6  -6  -6   96.79    9.50
  -6  -6  -6   91.99    9.40
  -6  -6  -6   86.99    8.00
   6   6   6   83.99    8.30
   6   6   6  109.99    9.90
   6   6   6   97.09    9.30
   6   6   6  103.99    9.30
  -7  -6  -6  165.88   12.70
  -7  -6  -6  170.38   14.20
  -7  -6  -6  148.39   11.20
  -7  -6  -6  179.98   12.90
  -7  -6  -6  154.78   10.90
   7   6   6  153.98   11.80
   7   6   6  155.28   11.80
   7   6   6  163.38   11.30
  -8  -6  -6   24.30    6.50
  -8  -6  -6   22.70    7.30
  -8  -6  -6   37.30    7.60
  -8  -6  -6   32.40    6.50
   8   6   6   27.70    6.90
   8   6   6   32.50    7.40
   8   6   6   35.70    7.60
   8   6   6   17.90    7.00
   8   6   6   26.30    9.30
  -9  -6  -6  355.06   17.10
  -9  -6  -6  394.06   17.10
  -9  -6  -6  378.06   15.80
  -9  -6  -6  368.06   15.80
   9   6   6  375.86   16.90
   9   6   6  418.26   16.00
   9   6   6  403.06   16.50
   9   6   6  381.76   16.90
   9   6   6  352.06   22.80
 -10  -6  -6  281.37   15.50
 -10  -6  -6  265.97   14.80
 -10  -6  -6  241.08   14.80
  10   6   6  256.37   15.50
  10   6   6  247.38   14.20
  10   6   6  260.97   15.80
  10   6   6  266.57   14.20
 -11  -6  -6    8.00    7.90
 -11  -6  -6   -0.40    8.20
 -11  -6  -6   12.20    7.50
  11   6   6   -5.40   12.40
  11   6   6   -1.00    8.10
  11   6   6   34.20   15.80
  11   6   6   -5.10    7.40
  11   6   6   -2.20    7.60
  11   6   6   -7.30    7.80
   4  -7  -6  221.78   20.00
   4  -7  -6  156.08   18.20
   4  -7  -6  180.28   18.60
  -4   7   6  210.38   20.20
  -4   7   6  181.08   18.60
  -4   7   6  168.28   17.80
   3  -7  -6  161.68   16.20
   3  -7  -6  191.68   17.20
   3  -7  -6  201.38   17.90
   3  -7  -6  205.18   18.10
  -3   7   6  142.39   16.00
  -3   7   6  183.58   16.70
  -3   7   6  194.58   17.60
  -3   7   6  161.28   15.60
   2  -7  -6  -16.20   10.20
   2  -7  -6    5.90    9.30
   2  -7  -6   16.50   10.70
   2  -7  -6   18.70   10.10
  -2   7   6   33.40   11.90
  -2   7   6    8.20    9.90
  -2   7   6   11.30   10.20
  -2   7   6   20.40   11.00
   1  -7  -6    8.80    9.70
   1  -7  -6    8.10    9.30
   1  -7  -6    6.10    8.70
   1  -7  -6   18.30    9.30
  -1   7   6   13.00    8.90
  -1   7   6    7.00    8.60
  -1   7   6  -11.90   13.40
   0  -7  -6  375.16   18.90
   0  -7  -6  393.56   20.60
   0  -7  -6  379.16   20.30
   0  -7  -6  372.46   28.40
   0   7   6  384.16   19.50
   0   7   6  442.36   19.20
   0   7   6  403.46   20.70
   0   7   6  402.96   19.40
  -1  -7  -6  632.44   25.40
  -1  -7  -6  669.43   25.00
  -1  -7  -6  685.13   24.80
  -1  -7  -6  645.54   23.40
   1   7   6  665.33   24.30
   1   7   6  672.03   24.00
   1   7   6  679.73   25.10
   1   7   6  655.83   24.10
  -2  -7  -6    3.50    6.80
  -2  -7  -6   -0.60    6.40
  -2  -7  -6   -4.70    8.00
  -2  -7  -6   -5.40    6.40
   2   7   6   -4.30    6.10
   2   7   6    6.20    7.30
   2   7   6    3.80    6.80
   2   7   6    2.10    6.90
  -3  -7  -6   54.49    9.10
  -3  -7  -6   52.89    8.00
  -3  -7  -6   46.00    8.50
  -3  -7  -6   55.39    8.10
   3   7   6   50.09    8.10
   3   7   6   59.39    8.60
   3   7   6   65.29    9.40
   3   7   6   56.99    9.30
  -4  -7  -6  580.04   20.80
  -4  -7  -6  589.84   22.60
  -4  -7  -6  599.84   21.20
  -4  -7  -6  508.65   24.10
  -4  -7  -6  569.04   21.40
   4   7   6  575.94   22.30
   4   7   6  594.94   20.60
   4   7   6  598.24   21.90
   4   7   6  621.24   21.60
  -5  -7  -6 2428.96   61.29
  -5  -7  -6 2445.26   62.49
  -5  -7  -6 2468.25   61.49
  -5  -7  -6 2482.55   62.29
  -5  -7  -6 2559.34   61.39
   5   7   6 2478.95   62.19
   5   7   6 2528.25   61.39
   5   7   6 2525.05   62.79
   5   7   6 2520.35   61.79
  -6  -7  -6  345.57   16.10
  -6  -7  -6  351.56   17.30
  -6  -7  -6  343.57   17.90
  -6  -7  -6  352.86   15.70
  -6  -7  -6  331.77   15.70
   6   7   6  338.47   16.60
   6   7   6  333.37   16.70
   6   7   6  340.57   15.70
  -7  -7  -6  717.13   23.80
  -7  -7  -6  730.23   24.90
  -7  -7  -6  699.23   25.10
   7   7   6  744.93   24.90
   7   7   6  710.73   24.20
   7   7   6  756.12   23.50
  -8  -7  -6   86.29   10.50
  -8  -7  -6  100.49    9.80
  -8  -7  -6   73.59   10.00
   8   7   6   90.89    9.40
   8   7   6   76.89    9.80
   8   7   6   77.39    9.90
   8   7   6   70.49   11.00
  -9  -7  -6  668.63   23.20
  -9  -7  -6  663.63   24.00
  -9  -7  -6  690.53   24.20
   9   7   6  620.54   22.50
   9   7   6  670.53   24.00
   9   7   6  678.33   24.10
   9   7   6  671.43   23.70
   9   7   6  760.82   29.40
 -10  -7  -6  170.18   12.80
 -10  -7  -6  193.78   15.80
 -10  -7  -6  174.48   16.30
 -10  -7  -6  175.28   14.70
  10   7   6  170.18   15.20
  10   7   6  186.78   14.40
  10   7   6  165.28   15.60
  10   7   6  149.49   12.60
 -11  -7  -6  179.88   12.90
 -11  -7  -6  181.78   17.00
 -11  -7  -6  182.68   16.90
  11   7   6  188.28   16.30
  11   7   6  176.08   13.70
  11   7   6  172.48   13.80
  11   7   6  161.18   14.90
  11   7   6  226.78   21.50
   3  -8  -6  130.79   16.60
   3  -8  -6  133.89   16.90
   3  -8  -6  166.48   18.20
   3  -8  -6  160.78   18.20
  -3   8   6  145.99   17.50
  -3   8   6  158.48   18.10
  -3   8   6  126.59   16.40
  -3   8   6  112.59   17.20
   2  -8  -6   53.99   13.60
   2  -8  -6   44.70   13.40
   2  -8  -6   38.50   12.90
   2  -8  -6   29.10   11.80
  -2   8   6   58.99   13.30
  -2   8   6   26.90   12.40
  -2   8   6   14.60   12.60
  -2   8   6   41.90   13.10
   1  -8  -6   19.80   10.60
   1  -8  -6   13.60   10.20
   1  -8  -6   17.50   11.70
   1  -8  -6    3.40   10.20
  -1   8   6   15.40   10.40
  -1   8   6   37.20   10.50
  -1   8   6   26.40   11.10
  -1   8   6   24.30   10.80
   0  -8  -6  153.98   14.50
   0  -8  -6  179.08   15.70
   0  -8  -6  120.59   13.20
   0  -8  -6  152.58   13.80
   0   8   6  168.38   15.20
   0   8   6  147.19   14.40
   0   8   6  199.68   17.70
   0   8   6  162.88   14.70
  -1  -8  -6  395.76   20.50
  -1  -8  -6  358.56   20.50
  -1  -8  -6  423.46   21.20
  -1  -8  -6  367.06   19.90
   1   8   6  397.16   20.30
   1   8   6  375.06   20.20
   1   8   6  366.96   20.00
   1   8   6  380.66   21.00
  -2  -8  -6  155.28   20.00
  -2  -8  -6  140.49   12.60
  -2  -8  -6  126.99   12.90
  -2  -8  -6  159.58   13.50
   2   8   6  113.99   11.70
   2   8   6  148.89   13.60
   2   8   6  126.19   12.70
   2   8   6  135.09   12.50
  -3  -8  -6  682.63   24.30
  -3  -8  -6  704.23   24.90
  -3  -8  -6  641.54   25.40
  -3  -8  -6  707.63   26.40
  -3  -8  -6  688.23   25.00
   3   8   6  663.73   26.20
   3   8   6  662.53   25.40
   3   8   6  694.43   25.40
   3   8   6  677.33   24.20
  -4  -8  -6    7.20    7.20
  -4  -8  -6    8.50    7.50
  -4  -8  -6    2.70    7.40
  -4  -8  -6   -0.50    8.60
  -4  -8  -6    4.70    7.00
   4   8   6   -0.60    6.90
   4   8   6    9.80    7.70
   4   8   6    1.50    7.00
   4   8   6    9.40    7.10
  -5  -8  -6  244.98   16.50
  -5  -8  -6  243.28   14.30
  -5  -8  -6  271.87   15.80
  -5  -8  -6  263.67   17.90
  -5  -8  -6  258.07   16.00
   5   8   6  268.07   15.80
   5   8   6  234.28   16.10
   5   8   6  252.47   16.60
  -6  -8  -6   12.10    7.30
  -6  -8  -6   14.50    6.90
  -6  -8  -6    6.80    8.40
  -6  -8  -6    9.20    8.60
  -6  -8  -6   10.50    7.00
   6   8   6    4.00    7.80
   6   8   6    3.10    7.40
   6   8   6   -3.20    7.30
   6   8   6    8.00    7.30
  -7  -8  -6  758.92   25.50
  -7  -8  -6  730.53   25.90
  -7  -8  -6  779.82   26.90
  -7  -8  -6  748.53   27.80
   7   8   6  742.83   26.60
   7   8   6  751.32   26.60
   7   8   6  747.33   26.90
   7   8   6  782.12   25.70
  -8  -8  -6  248.78   17.80
  -8  -8  -6  255.07   16.80
   8   8   6  258.87   16.80
   8   8   6  279.67   16.60
   8   8   6  288.67   17.20
   8   8   6  207.88   16.20
  -9  -8  -6    9.70    9.90
  -9  -8  -6   25.30    9.90
   9   8   6   14.90    9.20
   9   8   6    5.30    8.50
   9   8   6   14.60    9.20
 -10  -8  -6   -0.40   10.10
 -10  -8  -6  -16.90    9.90
 -10  -8  -6   14.40   10.60
 -10  -8  -6   18.90   10.00
  10   8   6   -0.50    9.70
  10   8   6    8.00    9.70
  10   8   6   20.70   10.30
  10   8   6    5.50    9.50
   2  -9  -6  684.63   34.60
   2  -9  -6  736.13   33.10
   2  -9  -6  768.92   32.80
   2  -9  -6  740.23   34.80
  -2   9   6  823.42   34.30
  -2   9   6  831.22   34.70
  -2   9   6  727.83   32.10
  -2   9   6  727.83   33.80
   1  -9  -6   37.80   13.50
   1  -9  -6    7.60   11.50
   1  -9  -6   12.20   13.80
   1  -9  -6    5.60   12.30
  -1   9   6   37.80   12.80
  -1   9   6    5.10   12.90
  -1   9   6   56.09   13.50
  -1   9   6   34.50   13.20
   0  -9  -6  396.56   23.50
   0  -9  -6  389.96   21.80
   0  -9  -6  358.66   23.70
   0   9   6  339.17   22.30
   0   9   6  327.57   24.40
   0   9   6  327.17   21.50
   0   9   6  363.56   23.10
  -1  -9  -6    4.40    9.90
  -1  -9  -6   15.20   10.60
  -1  -9  -6   23.80   11.10
  -1  -9  -6    9.20   10.00
   1   9   6   18.60   10.90
   1   9   6   19.50   10.50
   1   9   6   12.40   11.10
   1   9   6   10.70   10.80
  -2  -9  -6 1588.94   46.40
  -2  -9  -6 1594.64   45.60
  -2  -9  -6 1518.05   46.50
  -2  -9  -6 1618.94   46.60
   2   9   6 1577.74   45.60
   2   9   6 1652.23   45.40
   2   9   6 1593.24   46.40
   2   9   6 1597.44   47.60
  -3  -9  -6 1113.19   35.60
  -3  -9  -6 1132.69   37.40
  -3  -9  -6 1123.39   33.70
  -3  -9  -6 1194.08   36.70
   3   9   6 1144.79   37.70
   3   9   6 1140.09   36.20
   3   9   6 1173.98   37.10
   3   9   6 1130.19   35.50
  -4  -9  -6  200.48   17.60
  -4  -9  -6  260.97   19.60
  -4  -9  -6  218.18   15.20
  -4  -9  -6  232.58   17.10
  -4  -9  -6  224.08   18.40
   4   9   6  203.08   18.10
   4   9   6  247.48   17.10
   4   9   6  204.58   16.60
   4   9   6  243.38   17.50
  -5  -9  -6  378.36   20.30
  -5  -9  -6  368.06   16.90
  -5  -9  -6  375.76   22.20
  -5  -9  -6  341.77   19.60
   5   9   6  352.86   19.20
   5   9   6  371.46   20.50
   5   9   6  350.56   21.30
   5   9   6  340.07   20.10
  -6  -9  -6  126.19   12.60
  -6  -9  -6  112.19   11.90
  -6  -9  -6  132.69   11.10
  -6  -9  -6  120.79   14.50
   6   9   6  137.99   13.10
   6   9   6  141.29   14.10
   6   9   6  129.49   13.30
   6   9   6  121.69   12.20
  -7  -9  -6  167.38   14.50
  -7  -9  -6  183.28   17.20
  -7  -9  -6  166.48   15.30
   7   9   6  197.78   18.00
   7   9   6  185.58   15.90
   7   9   6  185.98   17.30
   7   9   6  184.88   16.30
  -8  -9  -6  -10.10   10.30
  -8  -9  -6  -10.00   11.90
  -8  -9  -6   -6.50   11.00
   8   9   6   10.90    9.10
   8   9   6    6.70   10.10
   8   9   6  -14.60    8.60
   8   9   6   22.20   10.50
  -9  -9  -6  181.58   15.30
  -9  -9  -6  187.78   16.10
   9   9   6  166.08   14.40
   9   9   6  156.68   14.50
   9   9   6  163.48   14.90
   9   9   6  157.88   14.60
 -10  -9  -6  187.98   16.30
 -10  -9  -6  174.48   15.00
 -10  -9  -6  182.48   16.20
 -10  -9  -6  184.68   16.40
  10   9   6  200.08   17.40
  10   9   6  191.68   16.40
  10   9   6  177.48   16.50
  10   9   6  194.08   15.70
   0 -10  -6  234.18   20.50
   0 -10  -6  282.77   25.60
   0 -10  -6  268.57   20.70
   0 -10  -6  269.37   23.10
   0  10   6  243.98   21.00
   0  10   6  287.37   24.80
   0  10   6  273.57   24.50
   0  10   6  253.07   24.40
  -1 -10  -6  144.89   16.10
  -1 -10  -6  139.29   16.00
  -1 -10  -6  138.09   16.10
  -1 -10  -6  106.89   15.30
   1  10   6  110.29   15.70
   1  10   6   97.29   16.20
   1  10   6  121.19   16.00
   1  10   6  110.89   15.40
  -2 -10  -6   36.20   12.70
  -2 -10  -6   47.00   13.10
  -2 -10  -6   22.40   11.50
  -2 -10  -6   32.40   12.60
   2  10   6   51.09   13.40
   2  10   6   42.70   11.50
   2  10   6   32.20   11.80
   2  10   6   12.60   19.40
  -3 -10  -6   50.19   12.60
  -3 -10  -6   41.90    9.70
  -3 -10  -6   43.20   12.20
  -3 -10  -6   46.90   12.50
  -3 -10  -6   47.20   12.30
   3  10   6   25.50   11.60
   3  10   6   37.90   15.20
   3  10   6   63.09   12.50
   3  10   6   25.00   11.90
  -4 -10  -6  108.49   13.40
  -4 -10  -6  110.89   10.50
  -4 -10  -6  102.39   13.40
  -4 -10  -6  102.99   14.10
  -4 -10  -6  116.79   14.10
   4  10   6  102.39   13.10
   4  10   6  111.49   14.20
   4  10   6   97.79   13.10
   4  10   6  113.59   14.40
  -5 -10  -6  153.78   23.40
  -5 -10  -6  153.08   16.10
  -5 -10  -6  152.78   11.50
  -5 -10  -6  161.08   15.50
   5  10   6  119.39   13.80
   5  10   6  173.68   16.00
   5  10   6  156.08   14.80
   5  10   6  169.98   16.20
  -6 -10  -6  155.38   16.70
  -6 -10  -6  167.08   14.40
  -6 -10  -6  162.38   15.60
  -6 -10  -6  154.58   15.70
   6  10   6  147.79   14.50
   6  10   6  153.38   15.20
   6  10   6  154.08   15.40
   6  10   6  164.08   15.70
  -7 -10  -6   85.19   13.30
  -7 -10  -6   55.19   12.10
  -7 -10  -6   97.39   15.20
  -7 -10  -6   65.69   20.50
   7  10   6   73.39   13.40
   7  10   6   61.69   20.90
   7  10   6   71.99   13.30
   7  10   6   70.79   13.30
  -8 -10  -6   49.40   12.10
  -8 -10  -6   57.29   12.80
  -8 -10  -6   73.19   14.40
  -8 -10  -6   58.29   11.80
   8  10   6   55.39   13.90
   8  10   6   48.40   11.60
   8  10   6   55.99   13.00
   8  10   6   54.59   12.70
  -9 -10  -6  206.38   18.20
  -9 -10  -6  252.97   22.80
  -9 -10  -6  238.48   20.60
  -9 -10  -6  198.68   17.40
   9  10   6  226.58   17.20
   9  10   6  182.58   17.50
   9  10   6  164.88   16.20
   9  10   6  205.38   17.80
  -2 -11  -6   34.10   14.70
  -2 -11  -6    8.10   14.70
  -2 -11  -6   47.90   14.80
  -2 -11  -6   50.59   11.50
  -2 -11  -6   41.30   15.90
   2  11   6   28.40   13.60
   2  11   6   34.20   14.50
   2  11   6   13.00   13.90
   2  11   6   31.70   15.60
  -3 -11  -6   27.20   14.40
  -3 -11  -6   12.50    9.60
  -3 -11  -6   11.50   12.70
  -3 -11  -6   -4.80   12.90
   3  11   6  -10.50   12.30
   3  11   6  -14.50   12.00
   3  11   6    9.90   12.80
   3  11   6   22.40   14.00
  -4 -11  -6   44.90   14.30
  -4 -11  -6   36.60   14.20
  -4 -11  -6   63.99   14.30
  -4 -11  -6   62.89   10.10
  -4 -11  -6   65.29   14.20
   4  11   6   57.09   13.50
   4  11   6   60.99   13.80
   4  11   6   71.09   14.60
   4  11   6   61.39   14.10
  -5 -11  -6   35.30   13.60
  -5 -11  -6   20.80   12.60
  -5 -11  -6   41.60   13.40
  -5 -11  -6   45.80    9.50
  -5 -11  -6   39.50   13.60
   5  11   6   40.90   13.10
   5  11   6   51.09   14.30
   5  11   6   29.30   13.20
   5  11   6   44.40   13.60
  -6 -11  -6   -9.30   13.00
  -6 -11  -6   -3.20   12.10
  -6 -11  -6    0.10   12.90
  -6 -11  -6   -4.10    7.80
  -6 -11  -6    7.60   12.90
   6  11   6   -8.10   12.20
   6  11   6  -13.70   11.60
   6  11   6  -22.20   11.30
   6  11   6   -0.80   12.20
  -7 -11  -6  -13.10   11.80
  -7 -11  -6    9.90   13.00
  -7 -11  -6    9.50   13.60
  -7 -11  -6   -5.70   12.60
   7  11   6   12.80   12.20
   7  11   6   -9.50   11.90
   7  11   6    5.40   12.40
   7  11   6   20.20   13.10
  -8 -11  -6   95.49   15.80
  -8 -11  -6   99.59   15.50
  -8 -11  -6   95.49   17.50
   8  11   6   89.39   16.60
   8  11   6   65.39   14.60
   8  11   6  103.19   16.20
   8  11   6  107.79   15.30
   4   9  -7  401.46   30.60
   4   9  -7  446.96   33.90
   4   9  -7  407.46   28.90
   4   9  -7  448.06   28.60
   4   9  -7  384.96   29.00
  -4  -9   7  450.05   32.80
  -4  -9   7  440.86   28.40
  -4  -9   7  360.96   26.40
  -4  -9   7  424.96   32.70
   3   9  -7  264.77   23.60
   3   9  -7  231.58   21.10
   3   9  -7  254.37   21.70
   3   9  -7  214.18   21.30
   3   9  -7  249.58   22.10
  -3  -9   7  216.08   21.20
  -3  -9   7  258.17   22.80
  -3  -9   7  174.78   20.70
  -3  -9   7  255.57   23.40
   2   9  -7   25.30   13.70
   2   9  -7   25.10   16.60
   2   9  -7   28.60   13.20
   2   9  -7   17.30    7.60
   2   9  -7   31.20   15.00
   2   9  -7   -3.90   12.90
  -2  -9   7   15.90   12.60
  -2  -9   7   13.10   15.10
  -2  -9   7   14.50   14.80
  -2  -9   7   21.50   11.90
   1   9  -7    1.70   13.30
   1   9  -7    5.70   13.00
   1   9  -7  -15.20   13.30
   1   9  -7   -6.20   13.40
   1   9  -7   19.30   16.30
   1   9  -7   13.90    6.40
  -1  -9   7    0.30   11.60
  -1  -9   7   22.70   12.40
  -1  -9   7   32.30   16.00
  -1  -9   7   32.50   14.20
   0   9  -7   87.19   14.30
   0   9  -7   85.59   19.50
   0   9  -7   70.59   14.50
   0   9  -7   82.29   15.30
   0   9  -7   57.49   14.70
   0  -9   7   71.79   14.90
   0  -9   7   62.99   13.80
   0  -9   7   58.49   15.70
   0  -9   7   49.90   13.20
  -1   9  -7  126.59   15.20
  -1   9  -7   99.59   15.30
  -1   9  -7  116.59   21.90
  -1   9  -7   95.89   15.60
  -1   9  -7  113.09   14.10
   1  -9   7  108.69   16.00
   1  -9   7   97.89   14.10
   1  -9   7  117.19   16.90
   1  -9   7  103.79   14.30
   6   8  -7  306.37   28.10
   6   8  -7  310.37   25.70
   6   8  -7  266.77   22.90
   6   8  -7  315.67   27.00
  -6  -8   7  308.97   26.10
  -6  -8   7  258.67   21.80
  -6  -8   7  360.16   31.60
  -6  -8   7  275.07   22.70
   5   8  -7   34.40   12.60
   5   8  -7    1.80   16.10
   5   8  -7   38.20   17.10
   5   8  -7  -10.40   15.10
   5   8  -7   17.50   14.10
  -5  -8   7   12.60   13.10
  -5  -8   7   18.80   16.10
  -5  -8   7   14.40   13.40
  -5  -8   7   30.30   17.00
   4   8  -7  365.56   25.50
   4   8  -7  422.06   30.00
   4   8  -7  391.66   25.70
   4   8  -7  398.06   26.70
   4   8  -7  365.06   25.50
  -4  -8   7  386.06   24.90
  -4  -8   7  405.26   24.90
  -4  -8   7  361.86   27.40
   3   8  -7   50.79   14.30
   3   8  -7   42.00   13.00
   3   8  -7   39.30   13.10
   3   8  -7   49.50   14.30
   3   8  -7   37.30   14.50
  -3  -8   7   25.00   13.70
  -3  -8   7   54.79   15.40
  -3  -8   7   42.50   12.00
  -3  -8   7   44.90   13.30
   2   8  -7 1182.78   42.40
   2   8  -7 1178.28   39.90
   2   8  -7 1238.68   40.70
   2   8  -7 1310.57   42.40
   2   8  -7 1159.78   34.10
  -2  -8   7 1204.68   38.70
  -2  -8   7 1259.27   43.00
  -2  -8   7 1270.57   40.90
  -2  -8   7 1231.48   39.60
   1   8  -7  205.88   17.70
   1   8  -7  211.68   13.40
   1   8  -7  210.38   18.30
   1   8  -7  230.88   20.20
   1   8  -7  221.88   19.90
  -1  -8   7  231.28   19.00
  -1  -8   7  241.18   20.50
  -1  -8   7  227.08   21.60
  -1  -8   7  204.28   18.60
   0   8  -7  195.48   19.90
   0   8  -7  172.28   15.90
   0   8  -7  218.48   19.80
   0   8  -7  175.88   12.30
   0   8  -7  167.78   16.30
   0   8  -7  202.68   18.10
   0  -8   7  179.28   15.40
   0  -8   7  175.98   15.70
   0  -8   7  178.58   16.50
   0  -8   7  181.78   17.20
  -1   8  -7   31.80   16.10
  -1   8  -7   12.80   18.00
  -1   8  -7   53.59   12.00
  -1   8  -7   25.50   11.60
  -1   8  -7   35.40   12.80
   1  -8   7   25.10   11.40
   1  -8   7   31.10   10.40
   1  -8   7   21.70   10.50
   1  -8   7   12.60   18.40
   1  -8   7   16.70   12.30
  -2   8  -7  201.98   19.50
  -2   8  -7  199.78   16.50
  -2   8  -7  198.68   16.50
  -2   8  -7  198.18   22.70
   2  -8   7  218.58   19.70
   2  -8   7  206.98   18.90
   2  -8   7  236.78   25.80
   2  -8   7  236.88   21.70
   2  -8   7  200.08   18.00
  -3   8  -7  265.47   20.30
  -3   8  -7  271.27   20.40
  -3   8  -7  257.77   25.00
  -3   8  -7  260.97   21.20
  -3   8  -7  304.57   20.50
   3  -8   7  190.28   24.10
   3  -8   7  267.57   20.50
   3  -8   7  266.67   19.70
   3  -8   7  274.07   21.80
   3  -8   7  268.27   18.90
   6   7  -7  436.56   30.80
   6   7  -7  492.35   28.70
   6   7  -7  364.36   31.60
   6   7  -7  451.05   28.80
  -6  -7   7  428.26   32.20
  -6  -7   7  406.36   26.80
  -6  -7   7  423.36   31.60
  -6  -7   7  422.86   29.30
   5   7  -7   25.40    9.40
   5   7  -7   23.30   14.80
   5   7  -7   30.00   12.70
   5   7  -7   40.10   15.80
   5   7  -7   18.30   13.20
  -5  -7   7   28.80   12.70
  -5  -7   7   19.20   12.00
  -5  -7   7    4.10   14.30
  -5  -7   7   46.60   15.40
   4   7  -7  189.78   17.90
   4   7  -7  204.38   18.50
   4   7  -7  210.48   18.20
   4   7  -7  188.08   16.80
   4   7  -7  251.27   21.50
  -4  -7   7  181.08   16.60
  -4  -7   7  235.78   19.50
  -4  -7   7  254.67   21.10
  -4  -7   7  160.38   17.70
   3   7  -7   -0.70   10.90
   3   7  -7   -2.50   11.50
   3   7  -7    7.10   11.60
   3   7  -7   15.10   15.00
   3   7  -7   14.70   11.30
  -3  -7   7    8.60   12.10
  -3  -7   7   10.00   10.30
  -3  -7   7   29.40   12.90
  -3  -7   7   -5.70    9.40
   2   7  -7  158.08   14.60
   2   7  -7  155.18   15.20
   2   7  -7  136.19   15.50
   2   7  -7  132.99   14.20
  -2  -7   7  171.28   18.10
  -2  -7   7  139.19   13.50
  -2  -7   7  136.69   15.60
  -2  -7   7  140.09   17.40
  -2  -7   7  135.09   13.30
   1   7  -7    1.00    9.50
   1   7  -7   -1.70    8.60
   1   7  -7   15.10   11.80
   1   7  -7    7.60    7.60
   1   7  -7   15.10   10.50
  -1  -7   7   -0.70    8.60
  -1  -7   7    6.80    8.90
  -1  -7   7   -5.30   12.70
  -1  -7   7    4.20   11.00
  -1  -7   7   10.30   10.60
   0   7  -7   55.39   10.90
   0   7  -7   47.90   13.30
   0   7  -7   39.70   11.60
   0   7  -7   38.50   11.00
   0   7  -7   37.70    7.70
   0   7  -7   62.79   11.80
   0  -7   7   62.49   12.10
   0  -7   7   66.79   12.00
   0  -7   7   46.40    9.90
   0  -7   7   57.49   10.10
   0  -7   7   53.59   14.40
  -1   7  -7   62.59   10.80
  -1   7  -7   69.59   12.90
  -1   7  -7   62.09    8.20
  -1   7  -7   68.39   11.80
  -1   7  -7   62.99   14.50
   1  -7   7   49.50    9.80
   1  -7   7   54.59   10.30
   1  -7   7   60.79   11.80
   1  -7   7   66.49   11.40
   1  -7   7  115.79   19.30
  -2   7  -7  567.34   29.70
  -2   7  -7  581.14   23.80
   2  -7   7  523.85   23.40
   2  -7   7  549.35   22.50
   2  -7   7  549.74   22.90
   2  -7   7  587.24   25.80
  -3   7  -7  204.08   18.00
  -3   7  -7  195.08   16.90
  -3   7  -7  207.88   17.60
  -3   7  -7  170.88   18.40
   3  -7   7  199.18   16.60
   3  -7   7  217.98   17.60
   3  -7   7  185.98   15.90
   3  -7   7  195.38   18.20
  -4   7  -7   36.70   10.50
  -4   7  -7   53.69   11.50
  -4   7  -7   29.10   16.40
  -4   7  -7   40.70   10.10
   4  -7   7   43.50   10.30
   4  -7   7   58.19   10.50
   4  -7   7    4.40   19.00
   4  -7   7   27.50    9.30
   4  -7   7   24.80   10.20
  -5   7  -7   37.30   10.80
  -5   7  -7    1.70   16.00
  -5   7  -7   25.00   10.30
  -5   7  -7    5.30    9.30
   5  -7   7   27.80    9.40
   5  -7   7   25.60   18.90
   5  -7   7   12.20    9.90
   5  -7   7   22.20   10.50
   5  -7   7   16.40    9.00
   7   6  -7   69.99   16.30
   7   6  -7   99.29   17.50
   7   6  -7   78.89   19.90
   7   6  -7   64.69   18.80
  -7  -6   7   93.99   19.20
  -7  -6   7   74.99   16.70
  -7  -6   7   65.59   16.10
  -7  -6   7   15.30   18.90
   6   6  -7    7.20   14.80
   6   6  -7   -9.20   12.20
   6   6  -7   -6.90   12.50
   6   6  -7   14.80   15.00
  -6  -6   7    1.40   12.60
  -6  -6   7   -5.80   13.10
  -6  -6   7   15.40   13.90
  -6  -6   7   -0.50   15.80
   5   6  -7  471.25   27.60
   5   6  -7  432.66   24.00
   5   6  -7  458.45   25.40
   5   6  -7  445.46   29.00
  -5  -6   7  459.25   28.20
  -5  -6   7  407.16   25.30
  -5  -6   7  437.36   27.70
  -5  -6   7  428.76   23.00
   4   6  -7  297.07   17.80
   4   6  -7  265.57   20.30
   4   6  -7  301.77   21.40
   4   6  -7  292.97   20.60
   4   6  -7  274.37   23.10
  -4  -6   7  257.27   18.90
  -4  -6   7  258.07   20.80
  -4  -6   7  295.27   23.20
  -4  -6   7  271.47   23.40
   3   6  -7    1.60    8.80
   3   6  -7   22.70   10.50
   3   6  -7   16.20   11.30
   3   6  -7   17.50   10.60
   3   6  -7   32.10   11.00
  -3  -6   7   -1.60   10.60
  -3  -6   7    7.70   10.70
  -3  -6   7   15.30    9.30
  -3  -6   7   17.20   10.10
  -3  -6   7    9.70   10.80
   2   6  -7   10.40    9.40
   2   6  -7   34.90   11.10
   2   6  -7   15.10    8.90
   2   6  -7   18.40   10.20
   2   6  -7    9.10   11.10
  -2  -6   7   10.90    8.30
  -2  -6   7    3.30   10.80
  -2  -6   7    9.80   10.20
  -2  -6   7    8.80    9.50
  -2  -6   7    4.00   13.50
   1   6  -7   32.30    8.50
   1   6  -7   29.40   10.80
   1   6  -7   18.50    9.00
   1   6  -7   23.30    9.50
  -1  -6   7   28.30   10.70
  -1  -6   7   25.30   11.90
  -1  -6   7   18.60    7.80
  -1  -6   7   14.80    8.20
  -1  -6   7   76.39   11.60
   0   6  -7    7.70    8.50
   0   6  -7  -10.40    7.60
   0   6  -7    4.60    6.70
   0   6  -7   16.80    9.40
   0   6  -7   -9.00   12.70
   0   6  -7    3.00    8.10
   0  -6   7   -0.60   11.50
   0  -6   7    2.60    7.40
   0  -6   7    3.70    7.40
   0  -6   7    5.20    9.20
   0  -6   7    9.30    8.90
  -1   6  -7   -5.30    7.80
  -1   6  -7   -0.70    6.50
  -1   6  -7   12.20   11.20
  -1   6  -7   -3.00    8.00
  -1   6  -7    4.60    8.50
   1  -6   7   14.40    8.60
   1  -6   7    6.60   12.80
   1  -6   7   -1.10    7.20
   1  -6   7   -6.00    7.00
   1  -6   7   11.10    9.20
  -2   6  -7   10.70    6.50
  -2   6  -7   24.20    8.50
  -2   6  -7    3.30    7.80
  -2   6  -7   18.00   12.00
  -2   6  -7   -2.80    7.30
   2  -6   7   -0.60   12.70
   2  -6   7   13.00    7.30
   2  -6   7   10.70    9.20
   2  -6   7    4.30    7.90
   2  -6   7   10.40    7.30
  -3   6  -7   62.09   14.00
  -3   6  -7   60.79    9.30
  -3   6  -7   56.99    9.30
  -3   6  -7   72.69   10.00
   3  -6   7   59.09   10.30
   3  -6   7   64.39    9.20
   3  -6   7   69.19    9.10
   3  -6   7   64.69    9.50
  -4   6  -7  644.44   22.40
  -4   6  -7  618.54   22.40
  -4   6  -7  599.14   31.40
  -4   6  -7  590.94   22.30
   4  -6   7  602.14   21.10
   4  -6   7  606.64   23.30
   4  -6   7  637.04   22.20
   4  -6   7  644.34   21.90
  -5   6  -7  157.58   11.50
  -5   6  -7  151.48   13.10
  -5   6  -7  149.99   12.00
  -5   6  -7  150.48   14.00
  -5   6  -7  122.59   18.50
   5  -6   7  137.99   12.90
   5  -6   7  133.19   21.80
   5  -6   7  173.58   13.20
   5  -6   7  135.69   11.60
   5  -6   7  155.88   13.90
  -6   6  -7    7.60   16.30
  -6   6  -7   19.00    7.70
  -6   6  -7    6.20    7.80
  -6   6  -7   13.80    7.70
  -6   6  -7    7.50    7.90
   6  -6   7    9.10    7.90
   6  -6   7   -1.10    7.20
   6  -6   7    7.90   18.70
   6  -6   7   11.60    7.00
   6  -6   7    6.10    7.80
   7   5  -7  -21.50   13.40
   7   5  -7   -8.00   12.90
   7   5  -7    0.60   16.20
  -7  -5   7    3.30   16.60
  -7  -5   7   -1.20   16.00
  -7  -5   7   25.30   13.80
  -7  -5   7   55.69   15.30
   6   5  -7   34.40   14.00
   6   5  -7   31.80   14.50
   6   5  -7   42.70   12.70
  -6  -5   7   47.20   13.70
  -6  -5   7   39.80   15.00
  -6  -5   7   24.00   14.40
  -6  -5   7   24.70   13.50
   5   5  -7  281.27   21.60
   5   5  -7  304.27   22.40
   5   5  -7  315.27   22.50
  -5  -5   7  341.77   24.10
  -5  -5   7  280.37   21.60
  -5  -5   7  325.17   21.20
  -5  -5   7  358.76   23.50
   4   5  -7  204.98   23.10
   4   5  -7  223.88   18.00
   4   5  -7  211.08   17.10
   4   5  -7  218.68   18.00
  -4  -5   7  223.58   18.80
  -4  -5   7  255.67   17.00
  -4  -5   7  266.37   17.90
  -4  -5   7  226.78   20.80
  -4  -5   7  242.18   19.80
   3   5  -7   20.40    9.70
   3   5  -7   53.09   11.30
   3   5  -7   29.40    9.90
   3   5  -7   32.40   10.00
  -3  -5   7   16.00    8.70
  -3  -5   7   32.10   10.70
  -3  -5   7   35.60   10.60
  -3  -5   7   41.30   10.00
  -3  -5   7   33.00   11.30
   2   5  -7   57.49    9.20
   2   5  -7   55.79   10.80
   2   5  -7   44.10    9.80
   2   5  -7   49.10    9.60
   2   5  -7   59.09   10.10
  -2  -5   7   51.99   10.30
  -2  -5   7   54.59   15.70
  -2  -5   7   61.99   10.50
  -2  -5   7   52.19   11.00
  -2  -5   7   71.19   11.60
   1   5  -7  856.71   29.30
   1   5  -7  843.72   29.00
   1   5  -7  873.31   28.30
   1   5  -7  881.51   28.50
   1   5  -7  859.81   28.50
  -1  -5   7  852.81   29.70
  -1  -5   7  804.12   27.00
  -1  -5   7  847.02   31.20
  -1  -5   7  849.91   29.30
  -1  -5   7  859.71   28.20
   0   5  -7 1909.91   49.70
   0   5  -7 1854.91   51.79
   0   5  -7 1902.91   49.60
   0   5  -7 1920.21   49.50
   0   5  -7 1870.81   49.90
   0  -5   7 1820.82   50.29
   0  -5   7 1921.71   50.19
   0  -5   7 1888.81   49.50
   0  -5   7 1897.81   48.80
  -1   5  -7   12.80    7.30
  -1   5  -7   14.80    7.40
  -1   5  -7   14.50    6.80
  -1   5  -7   23.60    7.60
  -1   5  -7   19.10    9.90
  -1   5  -7   15.10    7.60
   1  -5   7   20.10    8.00
   1  -5   7   16.00    6.90
   1  -5   7   10.80    7.90
   1  -5   7   35.60   11.80
   1  -5   7    8.60    7.50
  -2   5  -7  735.73   23.90
  -2   5  -7  740.63   23.70
  -2   5  -7  730.63   24.10
  -2   5  -7  732.23   24.30
  -2   5  -7  703.53   31.00
  -2   5  -7  756.32   24.10
   2  -5   7  744.23   23.50
   2  -5   7  735.43   31.80
   2  -5   7  801.82   25.90
   2  -5   7  736.23   24.00
   2  -5   7  763.92   24.50
  -3   5  -7   10.40    6.50
  -3   5  -7    5.40    6.80
  -3   5  -7   15.00    7.60
  -3   5  -7    2.20    6.10
  -3   5  -7   14.30    7.00
  -3   5  -7    9.80   10.20
   3  -5   7    3.10    6.00
   3  -5   7   -3.70    6.00
   3  -5   7   10.20    7.50
   3  -5   7    5.80    6.90
  -4   5  -7  881.11   26.80
  -4   5  -7  914.01   26.40
  -4   5  -7  894.51   34.60
  -4   5  -7  910.71   26.30
  -4   5  -7  916.81   26.50
   4  -5   7  923.31   26.60
   4  -5   7  926.11   27.70
   4  -5   7  919.71   25.90
   4  -5   7  918.31   26.70
  -5   5  -7   18.70    6.20
  -5   5  -7   16.70    7.10
  -5   5  -7    4.70   11.90
  -5   5  -7   24.10    6.60
   5  -5   7   24.30    7.50
   5  -5   7   32.00    6.80
   5  -5   7   41.40   16.80
   5  -5   7   31.70    6.80
  -6   5  -7  543.65   17.80
  -6   5  -7  614.74   31.30
  -6   5  -7  550.14   16.70
  -6   5  -7  541.65   18.40
   6  -5   7  599.34   37.40
   6  -5   7  544.55   18.40
   6  -5   7  563.64   18.10
   6  -5   7  543.05   17.00
   6  -5   7  532.35   16.60
  -7   5  -7   86.49    7.30
  -7   5  -7   49.00   17.00
  -7   5  -7   61.99    6.80
   7  -5   7   80.99    7.30
   7  -5   7   98.29   15.50
   7  -5   7  104.19   23.00
   7  -5   7   77.59    7.10
   7   4  -7   22.60   15.70
   7   4  -7  -14.00   13.10
   7   4  -7    2.70   16.30
   7   4  -7   17.60   13.30
  -7  -4   7  -18.20   12.00
  -7  -4   7   17.10   13.30
  -7  -4   7   27.70   16.10
  -7  -4   7   -2.20   15.30
   6   4  -7   -5.80   12.70
   6   4  -7    3.60   11.70
   6   4  -7    6.00   11.60
   6   4  -7  -10.60   12.50
  -6  -4   7   -1.60   12.60
  -6  -4   7   -3.30   13.30
  -6  -4   7    1.80   11.60
  -6  -4   7    3.60   11.30
   5   4  -7  215.78   20.10
   5   4  -7  188.88   17.90
   5   4  -7  186.08   16.10
   5   4  -7  190.68   16.80
  -5  -4   7  175.48   15.80
  -5  -4   7  187.88   17.60
  -5  -4   7  206.48   18.10
  -5  -4   7  169.48   14.90
   4   4  -7  145.89   15.20
   4   4  -7  138.29   13.30
   4   4  -7  124.49   14.80
   4   4  -7  132.19   14.40
  -4  -4   7  149.39   13.90
  -4  -4   7  150.18   14.80
  -4  -4   7  155.58   14.50
  -4  -4   7  123.09   17.80
  -4  -4   7  120.99   14.60
   3   4  -7  353.36   20.60
   3   4  -7  383.96   20.10
   3   4  -7  331.07   18.70
   3   4  -7  318.07   19.10
  -3  -4   7  348.17   20.60
  -3  -4   7  372.86   18.10
  -3  -4   7  367.26   18.90
  -3  -4   7  347.57   18.70
  -3  -4   7  338.77   20.40
   2   4  -7  987.30   31.00
   2   4  -7  964.00   31.00
   2   4  -7  904.21   29.90
   2   4  -7  939.71   31.50
  -2  -4   7  978.50   32.30
  -2  -4   7  955.10   30.50
  -2  -4   7 1054.49   31.80
  -2  -4   7  946.81   29.50
  -2  -4   7  946.81   31.10
   1   4  -7   33.90    8.40
   1   4  -7   35.00    8.00
   1   4  -7   26.90    8.00
   1   4  -7   29.00    7.90
   1   4  -7   49.90    8.40
  -1  -4   7   21.50    8.50
  -1  -4   7   23.50    7.60
  -1  -4   7   21.90    7.40
  -1  -4   7   33.60    9.60
  -1  -4   7   26.80    8.60
   0   4  -7  113.69   10.10
   0   4  -7  105.69    9.80
   0   4  -7  106.59   11.00
   0  -4   7  126.39   11.50
   0  -4   7  126.39   11.40
   0  -4   7  122.39   12.00
   0  -4   7  130.69   13.30
   0  -4   7  138.69   12.80
  -1   4  -7  823.22   25.60
  -1   4  -7  813.82   26.00
  -1   4  -7  831.32   26.00
  -1   4  -7  818.92   28.40
  -1   4  -7  832.02   25.60
  -1   4  -7  801.52   28.00
   1  -4   7  859.31   26.80
   1  -4   7  869.11   25.80
   1  -4   7  815.72   25.90
   1  -4   7  812.62   24.80
   1  -4   7  854.81   31.00
  -2   4  -7  994.80   28.40
  -2   4  -7 1005.60   29.10
  -2   4  -7 1025.70   28.60
  -2   4  -7  965.40   28.20
  -2   4  -7  996.60   27.90
  -2   4  -7  965.60   32.80
   2  -4   7 1019.60   28.70
   2  -4   7  935.41   29.90
   2  -4   7  964.10   28.00
   2  -4   7  963.30   27.50
   2  -4   7 1032.00   35.50
  -3   4  -7  142.19   14.70
  -3   4  -7  134.69   10.60
  -3   4  -7  124.49   10.20
  -3   4  -7  125.09   10.40
  -3   4  -7  119.89   10.90
  -3   4  -7  123.19   10.60
   3  -4   7  107.99   13.60
   3  -4   7  135.29   10.80
   3  -4   7  116.49    9.60
   3  -4   7  114.09    9.40
   3  -4   7  109.99   10.10
  -4   4  -7   94.79   12.90
  -4   4  -7  109.69    9.60
  -4   4  -7  104.69    9.80
  -4   4  -7   97.99    8.30
  -4   4  -7   87.09    9.00
  -4   4  -7   93.59    7.90
   4  -4   7   96.69    7.80
   4  -4   7   85.69   14.70
   4  -4   7  105.69    9.00
   4  -4   7  103.89    7.70
   4  -4   7   93.69    8.80
  -5   4  -7  117.49   14.50
  -5   4  -7  145.89    9.10
  -5   4  -7  107.79    9.40
  -5   4  -7  126.09    9.40
  -5   4  -7  114.09    9.30
   5  -4   7  132.79   10.70
   5  -4   7  119.59    9.10
   5  -4   7  113.79    8.50
   5  -4   7  124.29    9.40
   5  -4   7  130.49   16.60
  -6   4  -7   43.40    4.90
  -6   4  -7   48.90    5.70
  -6   4  -7   58.39    4.40
  -6   4  -7   39.40   12.30
  -6   4  -7   53.59    5.60
   6  -4   7   54.09    4.80
   6  -4   7   55.39    5.80
   6  -4   7   34.80   16.20
   6  -4   7   49.40   11.70
   6  -4   7   48.40    5.20
   6  -4   7   53.19    6.30
  -7   4  -7   -4.50   12.70
   7  -4   7   10.50   17.10
   7  -4   7   -9.10   11.60
   7   3  -7  969.40   36.60
   7   3  -7  892.61   39.60
   7   3  -7  888.41   37.80
  -7  -3   7  893.51   36.70
  -7  -3   7  896.31   38.90
  -7  -3   7  960.10   36.30
  -7  -3   7  924.41   34.50
   6   3  -7   -3.60   12.90
   6   3  -7    7.20   12.30
   6   3  -7   27.10   11.80
   6   3  -7   -7.30   10.90
  -6  -3   7    1.30   12.30
  -6  -3   7  -10.00   11.60
  -6  -3   7    6.90   11.50
  -6  -3   7  -28.60   10.20
   5   3  -7  693.53   30.00
   5   3  -7  720.03   30.80
   5   3  -7  830.72   30.70
   5   3  -7  776.72   29.20
  -5  -3   7  731.73   29.50
  -5  -3   7  622.14   34.40
  -5  -3   7  782.72   22.40
  -5  -3   7  840.12   30.20
  -5  -3   7  716.13   30.90
   4   3  -7   35.50   10.30
   4   3  -7   46.90   10.90
   4   3  -7   46.30    9.80
   4   3  -7   27.60   10.70
  -4  -3   7   37.50   10.70
  -4  -3   7   56.99    8.70
  -4  -3   7   55.79   10.60
  -4  -3   7   76.89   11.10
  -4  -3   7   47.00   11.30
   3   3  -7 1930.11   51.59
   3   3  -7 1913.91   51.79
   3   3  -7 1901.21   52.59
   3   3  -7 1867.41   51.49
  -3  -3   7 1973.50   49.70
  -3  -3   7 1949.10   51.99
  -3  -3   7 1855.31   51.29
  -3  -3   7 1975.00   52.89
  -3  -3   7 1930.71   51.39
   2   3  -7  521.65   21.60
   2   3  -7  495.95   21.10
   2   3  -7  485.55   20.80
  -2  -3   7  493.25   20.60
  -2  -3   7  512.45   21.90
  -2  -3   7  463.95   20.00
  -2  -3   7  488.05   19.60
  -2  -3   7  522.55   20.80
   1   3  -7  601.24   21.80
   1   3  -7  584.94   22.20
   1   3  -7  589.94   21.50
   1   3  -7  597.04   21.80
  -1  -3   7  633.24   22.10
  -1  -3   7  587.54   21.10
  -1  -3   7  608.94   23.20
  -1  -3   7  558.74   20.50
  -1  -3   7  593.24   22.80
   0   3  -7  856.21   26.80
   0   3  -7  914.71   27.80
   0   3  -7  891.21   27.10
   0   3  -7  923.01   27.40
   0  -3   7  867.61   26.60
   0  -3   7  834.22   26.10
   0  -3   7  909.11   30.30
   0  -3   7  953.20   28.40
   0  -3   7  933.11   27.80
  -1   3  -7   61.39    7.60
  -1   3  -7   66.79    8.90
  -1   3  -7   57.89    7.50
  -1   3  -7   77.59    8.20
  -1   3  -7   74.29    8.10
   1  -3   7   68.29    7.10
   1  -3   7   58.29   10.30
   1  -3   7   77.69    8.80
   1  -3   7   71.29    7.30
   1  -3   7   88.49    9.10
  -2   3  -7  171.08   10.90
  -2   3  -7  178.28   11.00
  -2   3  -7  185.48   12.90
  -2   3  -7  173.68   11.10
  -2   3  -7  143.89   14.20
  -2   3  -7  188.38   10.80
   2  -3   7  180.48   10.00
   2  -3   7  161.68   11.50
   2  -3   7  167.38   10.30
   2  -3   7  179.98   16.70
  -3   3  -7  278.37   12.20
  -3   3  -7  216.18   17.60
  -3   3  -7  283.67   12.00
  -3   3  -7  295.47   14.90
  -3   3  -7  282.97   12.20
  -3   3  -7  274.57   17.30
   3  -3   7  251.97   11.40
   3  -3   7  278.37   12.60
   3  -3   7  250.77   11.80
   3  -3   7  273.57   19.70
   3  -3   7  283.67   13.00
  -4   3  -7  536.45   16.50
  -4   3  -7  520.75   16.40
  -4   3  -7  532.95   23.70
  -4   3  -7  506.05   16.00
  -4   3  -7  528.05   19.60
   4  -3   7  509.75   16.30
   4  -3   7  521.45   15.90
   4  -3   7  501.85   17.00
   4  -3   7  524.15   25.90
   4  -3   7  520.45   16.40
  -5   3  -7  445.36   14.00
  -5   3  -7  449.76   14.10
  -5   3  -7  436.76   22.90
  -5   3  -7  462.05   13.70
  -5   3  -7  463.45   13.10
   5  -3   7  447.66   26.20
   5  -3   7  435.86   14.10
   5  -3   7  436.16   14.60
   5  -3   7  430.06   13.70
   5  -3   7  430.86   13.30
  -6   3  -7  451.75   12.40
  -6   3  -7  458.75   13.10
  -6   3  -7  452.75   24.40
   6  -3   7  465.85   13.40
   6  -3   7  481.25   23.10
   6  -3   7  479.05   28.40
   6  -3   7  454.85   12.90
   7  -3   7   45.60   11.80
   7  -3   7   65.99   17.10
   8  -3   7   -6.00   17.00
   8  -3   7    9.20   12.70
   7   2  -7  292.17   22.60
   7   2  -7  282.87   25.10
   7   2  -7  271.77   22.10
  -7  -2   7  235.18   21.00
  -7  -2   7  281.27   26.70
  -7  -2   7  298.27   24.50
  -7  -2   7  259.27   20.60
   6   2  -7   51.39   13.50
   6   2  -7   65.79   12.60
   6   2  -7   77.59   13.40
   6   2  -7   48.50   14.20
  -6  -2   7   51.09   14.10
  -6  -2   7   90.29   14.80
  -6  -2   7   46.40   12.20
  -6  -2   7  112.59   15.40
   5   2  -7  689.03   29.80
   5   2  -7  722.13   28.80
   5   2  -7  664.53   27.90
  -5  -2   7  751.52   28.90
  -5  -2   7  681.13   29.50
  -5  -2   7  678.13   26.80
  -5  -2   7  735.13   29.10
  -5  -2   7  708.03   20.60
   4   2  -7  132.69   13.10
   4   2  -7  111.29   12.90
   4   2  -7  152.58   14.30
   4   2  -7  119.89   12.60
  -4  -2   7  139.69   12.30
  -4  -2   7  112.29   12.70
  -4  -2   7  131.19   13.70
  -4  -2   7  121.89   13.20
  -4  -2   7  137.49   12.80
   3   2  -7    3.40    8.70
   3   2  -7    7.30    7.80
   3   2  -7  -14.70   12.10
   3   2  -7   27.10    9.00
  -3  -2   7    7.70    8.70
  -3  -2   7   15.90    9.00
  -3  -2   7   13.50    7.90
  -3  -2   7   11.40    7.10
  -3  -2   7    2.80    8.50
   2   2  -7  141.69   12.20
   2   2  -7  156.98   13.00
   2   2  -7  129.99   11.50
   2   2  -7  139.39   12.10
  -2  -2   7  149.29   13.70
  -2  -2   7  143.89   12.10
  -2  -2   7  137.89   12.00
  -2  -2   7  145.49   13.10
  -2  -2   7  139.89   12.00
   1   2  -7  279.87   15.30
   1   2  -7  245.48   13.90
   1   2  -7  264.07   14.80
   1   2  -7  263.97   15.20
  -1  -2   7  241.88   14.10
  -1  -2   7  259.87   15.30
  -1  -2   7  242.18   13.60
  -1  -2   7  258.07   14.60
  -1  -2   7  238.08   15.40
   0   2  -7  509.25   18.80
   0   2  -7  518.65   19.20
   0   2  -7  501.75   18.50
   0   2  -7  520.25   19.00
   0  -2   7  509.55   19.50
   0  -2   7  487.75   18.30
   0  -2   7  498.25   18.20
   0  -2   7  533.95   19.20
   0  -2   7  512.25   21.00
  -1   2  -7  548.25   19.20
  -1   2  -7  566.54   19.20
  -1   2  -7  585.74   19.20
  -1   2  -7  545.95   18.60
   1  -2   7  558.34   22.20
   1  -2   7  574.24   19.70
   1  -2   7  536.45   18.30
   1  -2   7  522.15   18.50
   1  -2   7  567.84   19.10
  -2   2  -7  143.89   10.00
  -2   2  -7  158.58   12.50
  -2   2  -7  167.38   10.20
  -2   2  -7  142.29   10.30
  -2   2  -7  165.98   10.00
   2  -2   7  150.58   10.10
   2  -2   7  174.08   10.60
   2  -2   7  146.39   12.90
   2  -2   7  165.48   14.60
   2  -2   7  149.88    9.70
  -3   2  -7   94.49    8.70
  -3   2  -7   90.89    8.20
  -3   2  -7   87.49    8.30
  -3   2  -7  100.89    9.50
  -3   2  -7  105.79    8.90
   3  -2   7   85.09    8.10
   3  -2   7  101.69    8.60
   3  -2   7  104.89   12.30
   3  -2   7   94.59    8.50
   3  -2   7  100.19    9.20
  -4   2  -7  630.74   17.20
  -4   2  -7  571.54   21.00
  -4   2  -7  598.24   16.90
  -4   2  -7  594.44   17.10
   4  -2   7  613.54   17.10
   4  -2   7  589.24   17.10
   4  -2   7  546.95   29.60
   4  -2   7  584.64   17.30
   4  -2   7  584.44   17.60
  -5   2  -7   18.20    3.90
  -5   2  -7   15.30    3.30
  -5   2  -7   18.00    3.40
  -5   2  -7    9.40    6.80
   5  -2   7   19.90    4.50
   5  -2   7   20.90    4.30
   5  -2   7   17.00    3.60
   5  -2   7   19.70    3.60
   5  -2   7   16.60   10.40
   6  -2   7  461.45   26.20
   6  -2   7  440.46   21.40
   7  -2   7  276.67   25.40
   7  -2   7  284.77   19.90
   8  -2   7 1184.58   39.80
   8  -2   7 1165.78   44.10
   9  -2   7   85.69   16.20
   9  -2   7   75.39   20.10
   7   1  -7   64.39   14.20
   7   1  -7   47.40   16.00
   7   1  -7   54.09   14.10
   7   1  -7   51.69   16.30
  -7  -1   7   40.70   15.90
  -7  -1   7   56.89   17.60
  -7  -1   7   44.60   14.70
  -7  -1   7   42.50   13.50
   6   1  -7  240.08   19.70
   6   1  -7  203.98   18.20
   6   1  -7  222.38   19.20
   6   1  -7  210.58   20.10
  -6  -1   7  209.88   18.40
  -6  -1   7  215.78   18.30
  -6  -1   7  179.08   17.00
  -6  -1   7  234.98   20.70
   5   1  -7  217.88   17.00
   5   1  -7  211.48   19.30
   5   1  -7  239.48   18.50
  -5  -1   7  183.78   15.80
  -5  -1   7  197.08   16.30
  -5  -1   7  179.58   15.50
  -5  -1   7  188.68   11.80
  -5  -1   7  197.68   17.90
   4   1  -7  134.39   12.60
   4   1  -7  163.28   14.80
   4   1  -7  125.29   13.10
   4   1  -7  138.89   13.10
  -4  -1   7  140.69   13.20
  -4  -1   7  160.28   14.20
  -4  -1   7  139.19   13.10
  -4  -1   7  149.39   12.00
  -4  -1   7  149.99   13.50
   3   1  -7  332.87   17.40
   3   1  -7  312.77   18.00
   3   1  -7  339.27   17.50
   3   1  -7  276.67   18.00
  -3  -1   7  327.07   18.30
  -3  -1   7  314.47   15.00
  -3  -1   7  301.27   17.50
  -3  -1   7  296.97   17.90
  -3  -1   7  295.77   16.10
   2   1  -7   72.59    9.90
   2   1  -7   86.69    9.80
   2   1  -7   75.59    9.40
  -2  -1   7   77.99   10.50
  -2  -1   7   74.69    9.40
  -2  -1   7   68.49    9.60
  -2  -1   7   50.89    8.20
  -2  -1   7   76.29    8.80
   1   1  -7  825.02   26.40
   1   1  -7  828.92   25.80
   1   1  -7  853.71   26.30
   1   1  -7  821.62   26.40
  -1  -1   7  782.62   25.10
  -1  -1   7  817.52   26.50
  -1  -1   7  830.72   26.10
  -1  -1   7  842.72   26.40
  -1  -1   7  871.01   26.60
   0   1  -7  558.74   19.90
   0   1  -7  532.45   19.10
   0   1  -7  572.44   19.70
   0   1  -7  540.15   19.60
   0  -1   7  565.24   20.10
   0  -1   7  548.15   20.90
   0  -1   7  545.95   19.50
   0  -1   7  539.15   19.40
   0  -1   7  551.84   18.70
  -1   1  -7    6.90    5.40
  -1   1  -7    7.80    5.40
  -1   1  -7   17.00    6.10
  -1   1  -7    7.50    5.00
   1  -1   7    7.60    5.60
   1  -1   7   15.80    5.40
   1  -1   7   20.60    7.00
   1  -1   7    3.50    5.10
   1  -1   7    5.10    5.80
  -2   1  -7  628.44   19.50
  -2   1  -7  597.34   19.00
  -2   1  -7  616.04   19.30
   2  -1   7  629.34   23.50
   2  -1   7  634.34   19.40
   2  -1   7  647.94   19.20
   2  -1   7  625.64   19.80
   2  -1   7  620.14   19.40
  -3   1  -7 2082.89   49.20
  -3   1  -7 2109.39   52.89
  -3   1  -7 2068.69   49.10
   3  -1   7 2070.59   49.20
   3  -1   7 2019.40   49.40
   3  -1   7 2076.29   49.20
   3  -1   7 2129.59   49.10
   3  -1   7 1993.20   54.89
  -4   1  -7  303.07   10.50
  -4   1  -7  293.27   14.80
  -4   1  -7  309.17   10.90
  -4   1  -7  299.97   10.70
   4  -1   7  318.97   19.20
   4  -1   7  307.37   10.90
   4  -1   7  291.87   11.30
   4  -1   7  298.37   10.90
   4  -1   7  285.77   10.50
  -5   1  -7   99.49    5.90
  -5   1  -7  102.19    9.80
  -5   1  -7  104.99    4.40
  -5   1  -7   92.49    5.80
  -5   1  -7  109.39    4.70
   5  -1   7  111.49   15.60
   5  -1   7  100.69    4.80
   5  -1   7  102.49    6.60
   5  -1   7  102.79    5.20
   5  -1   7   91.89    5.80
  -6   1  -7  103.39   10.70
   6  -1   7   70.69   10.70
   6  -1   7   87.59   13.30
   7  -1   7  249.97   22.40
   7  -1   7  244.48   18.70
   8  -1   7  181.38   15.70
   8  -1   7  193.98   19.60
   9  -1   7  198.08   19.40
   9  -1   7  220.58   21.80
   7   0  -7   57.09   16.40
   7   0  -7   32.90   13.90
   7   0  -7   65.39   16.40
   7   0  -7   83.49   15.30
  -7   0   7   47.30   15.40
  -7   0   7   70.19   15.70
  -7   0   7   64.69   16.80
  -7   0   7   49.50   15.70
   6   0  -7  283.77   23.40
   6   0  -7  320.17   20.80
   6   0  -7  312.17   22.40
   6   0  -7  310.77   25.30
  -6   0   7  255.87   21.30
  -6   0   7  263.07   11.40
  -6   0   7  304.57   25.10
  -6   0   7  317.07   24.20
   5   0  -7  430.66   23.40
   5   0  -7  395.36   24.00
   5   0  -7  418.06   21.00
  -5   0   7  408.56   22.30
  -5   0   7  446.16   23.50
  -5   0   7  404.46   24.20
  -5   0   7  385.46   15.50
  -5   0   7  412.26   21.40
   4   0  -7   45.40   12.50
   4   0  -7   64.39   11.90
   4   0  -7   82.29   11.50
  -4   0   7   88.49   11.90
  -4   0   7   61.99   11.10
  -4   0   7   57.19   10.90
  -4   0   7   59.69   10.90
   3   0  -7  554.04   22.90
   3   0  -7  547.65   22.20
   3   0  -7  506.65   21.80
   3   0  -7  541.75   21.30
  -3   0   7  487.65   30.40
  -3   0   7  487.85   20.60
  -3   0   7  521.15   22.50
  -3   0   7  519.25   22.50
   2   0  -7  154.68   12.20
   2   0  -7  158.48   13.90
   2   0  -7  151.48   13.90
   2   0  -7  129.79   11.10
  -2   0   7  147.49   13.70
  -2   0   7  142.69   12.30
  -2   0   7  145.49   12.80
  -2   0   7  142.49   12.30
   1   0  -7 1445.96   39.40
   1   0  -7 1423.36   38.60
   1   0  -7 1444.66   38.90
   1   0  -7 1457.45   39.40
  -1   0   7 1353.66   38.10
  -1   0   7 1464.25   39.50
  -1   0   7 1454.95   39.30
  -1   0   7 1494.35   39.30
   0   0  -7   53.39    6.80
   0   0  -7   62.79    7.70
   0   0  -7   56.39    7.90
   0   0  -7   59.49    7.70
   0   0   7   62.19    7.70
   0   0   7   66.99    8.00
   0   0   7   48.00    7.00
   0   0   7   58.49    8.00
  -1   0  -7 3432.26   80.59
  -1   0  -7 3509.85   81.09
  -1   0  -7 3375.16   80.69
  -1   0  -7 3527.55   80.99
   1   0   7 3384.86   80.99
   1   0   7 3464.15   80.69
   1   0   7 3495.65   80.99
   1   0   7 3507.25   82.99
   1   0   7 3492.75   81.09
  -2   0  -7  577.14   18.10
  -2   0  -7  568.94   18.10
  -2   0  -7  587.94   18.10
   2   0   7  544.05   17.90
   2   0   7  575.14   21.30
   2   0   7  568.74   18.20
   2   0   7  547.55   18.40
   2   0   7  579.84   17.90
  -3   0  -7  453.05   15.00
  -3   0  -7  478.65   15.00
  -3   0  -7  500.95   18.80
  -3   0  -7  473.15   15.10
  -3   0  -7  455.55   15.10
   3   0   7  446.66   14.70
   3   0   7  456.25   15.10
   3   0   7  466.75   15.40
   3   0   7  468.65   15.70
   3   0   7  481.15   20.50
  -4   0  -7   24.20    4.10
  -4   0  -7   30.80    4.30
  -4   0  -7   25.20    4.50
  -4   0  -7   30.40    6.40
   4   0   7   27.70    4.60
   4   0   7   26.10    4.40
   4   0   7   30.90    4.20
   4   0   7   25.70    5.10
   4   0   7   20.80    8.40
  -5   0  -7 1335.17   30.70
  -5   0  -7 1279.27   37.20
  -5   0  -7 1348.37   30.50
  -5   0  -7 1330.77   31.30
  -5   0  -7 1372.86   31.10
   5   0   7 1338.27   40.40
   5   0   7 1356.66   30.70
   5   0   7 1358.46   31.70
   5   0   7 1333.47   31.30
   5   0   7 1362.96   31.00
  -6   0  -7  888.01   28.80
   6   0   7  864.51   31.80
   6   0   7  867.81   29.60
   7   0   7   74.89   12.40
   7   0   7   61.39   10.40
   8   0   7   -5.80   10.10
   8   0   7   -9.90   11.00
   9   0   7   26.70   12.90
   9   0   7   41.30   15.20
  10   0   7    8.40   14.00
  10   0   7   -2.90   15.60
   7  -1  -7  112.79   18.10
   7  -1  -7  105.29   16.30
   7  -1  -7  120.19   19.00
   7  -1  -7   96.49   16.70
  -7   1   7  125.69   18.50
  -7   1   7  112.89   18.40
  -7   1   7  113.59   18.40
  -7   1   7  111.69   17.40
   6  -1  -7   24.50   11.80
   6  -1  -7   36.90   12.70
   6  -1  -7   34.20   13.60
   6  -1  -7   11.40   13.50
  -6   1   7   25.20   11.80
  -6   1   7   60.09   14.20
  -6   1   7   29.90    8.30
  -6   1   7   66.99   14.50
   5  -1  -7   71.99   12.90
   5  -1  -7   50.99   10.80
   5  -1  -7   68.79   12.80
   5  -1  -7   38.40   10.70
  -5   1   7   52.39   12.80
  -5   1   7   51.69   11.70
  -5   1   7   67.79   13.70
  -5   1   7   47.00   12.60
   4  -1  -7  792.32   29.90
   4  -1  -7  718.13   27.50
   4  -1  -7  778.72   28.50
   4  -1  -7  806.52   28.80
  -4   1   7  761.42   28.40
  -4   1   7  790.32   29.40
  -4   1   7  753.42   28.40
  -4   1   7  780.12   29.30
   3  -1  -7 1244.08   36.90
   3  -1  -7 1187.78   36.70
   3  -1  -7 1283.07   36.70
   3  -1  -7 1272.07   37.90
  -3   1   7 1266.17   37.70
  -3   1   7 1187.68   36.90
  -3   1   7 1276.27   37.60
  -3   1   7 1171.78   35.90
   2  -1  -7   11.40    7.40
   2  -1  -7   11.60    7.60
   2  -1  -7    0.60    7.10
   2  -1  -7    0.10    6.10
  -2   1   7    3.00    7.40
  -2   1   7   -2.20    7.00
  -2   1   7    5.00    6.40
  -2   1   7    2.90    7.20
   1  -1  -7  134.49   11.00
   1  -1  -7  135.49   11.40
   1  -1  -7  123.59   10.50
   1  -1  -7  134.59   11.20
  -1   1   7  120.89   10.30
  -1   1   7  129.19   10.80
  -1   1   7  116.79   10.60
  -1   1   7  129.89   11.90
   0  -1  -7  514.95   18.90
   0  -1  -7  551.34   19.70
   0  -1  -7  542.85   19.50
   0  -1  -7  541.25   19.00
   0   1   7  545.65   18.70
   0   1   7  565.54   20.20
   0   1   7  547.65   19.40
   0   1   7  518.35   19.30
  -1  -1  -7 1751.72   45.00
  -1  -1  -7 1791.32   45.30
  -1  -1  -7 1845.62   45.40
  -1  -1  -7 1867.91   45.70
   1   1   7 1725.13   44.80
   1   1   7 1848.62   45.70
   1   1   7 1853.01   45.70
   1   1   7 1726.33   45.20
  -2  -1  -7   27.40    5.60
  -2  -1  -7   29.80    5.80
  -2  -1  -7   33.30    5.70
   2   1   7   24.00    5.90
   2   1   7   30.90    5.50
   2   1   7   26.10    5.40
   2   1   7   19.10    5.10
  -3  -1  -7  401.86   13.70
  -3  -1  -7  379.86   13.50
  -3  -1  -7  375.66   16.80
  -3  -1  -7  383.16   13.20
  -3  -1  -7  367.36   12.90
   3   1   7  375.96   13.10
   3   1   7  388.66   13.90
   3   1   7  367.76   13.30
   3   1   7  386.36   14.10
  -4  -1  -7   12.50    5.60
  -4  -1  -7   13.20    3.80
  -4  -1  -7   20.80    4.30
  -4  -1  -7   12.60    4.20
  -4  -1  -7    9.90    4.30
   4   1   7   19.80    7.70
   4   1   7   15.80    4.40
   4   1   7   21.90    4.00
   4   1   7   18.60    4.60
   4   1   7   23.70    4.00
  -5  -1  -7   37.80    4.20
  -5  -1  -7   32.90    7.00
  -5  -1  -7   41.10    3.80
  -5  -1  -7   35.10    4.50
  -5  -1  -7   33.40    3.70
   5   1   7   35.50    3.90
   5   1   7   28.40    9.50
   5   1   7   32.50    4.30
   5   1   7   40.50    4.00
   5   1   7   34.70    4.70
  -6  -1  -7  648.34   23.90
   6   1   7  681.13   25.00
   6   1   7  653.63   16.10
   6   1   7  712.93   16.40
   6   1   7  667.13   27.70
   7   1   7   45.60    9.60
   7   1   7   58.89   11.80
   8   1   7   -9.40   10.50
   8   1   7   19.00    9.60
   9   1   7  328.27   23.60
   9   1   7  350.96   25.60
  10   1   7  471.75   30.40
  10   1   7  386.16   28.30
   6  -2  -7  562.24   28.00
   6  -2  -7  602.74   31.50
   6  -2  -7  573.44   28.20
   6  -2  -7  535.85   26.30
  -6   2   7  514.75   29.50
  -6   2   7  556.14   27.70
  -6   2   7  548.75   22.70
  -6   2   7  484.35   29.80
  -6   2   7  555.94   29.30
   5  -2  -7  114.69   16.00
   5  -2  -7  121.59   14.90
   5  -2  -7  121.49   14.70
   5  -2  -7  143.69   14.70
  -5   2   7  121.39   15.40
  -5   2   7  131.79   15.40
  -5   2   7  168.98   16.60
   4  -2  -7  809.12   30.70
   4  -2  -7  797.52   29.00
   4  -2  -7  705.03   27.20
   4  -2  -7  723.03   28.60
  -4   2   7  769.22   30.00
  -4   2   7  795.82   28.30
  -4   2   7  808.82   30.40
  -4   2   7  716.33   29.40
   3  -2  -7  231.78   16.70
   3  -2  -7  286.77   19.20
   3  -2  -7  217.28   19.60
   3  -2  -7  257.57   16.30
  -3   2   7  262.57   17.20
  -3   2   7  222.38   17.50
  -3   2   7  260.57   18.00
  -3   2   7  267.97   18.80
   2  -2  -7 2106.89   52.89
   2  -2  -7 1906.91   52.59
   2  -2  -7 1918.11   52.19
   2  -2  -7 2057.79   53.29
  -2   2   7 1982.00   52.19
  -2   2   7 2000.70   52.69
  -2   2   7 1986.40   52.99
  -2   2   7 2086.79   53.49
   1  -2  -7 2316.87   58.49
   1  -2  -7 2194.08   57.59
   1  -2  -7 2342.57   58.09
   1  -2  -7 2329.07   58.29
  -1   2   7 2262.17   57.69
  -1   2   7 2345.47   58.29
  -1   2   7 2253.67   58.29
  -1   2   7 2398.76   58.59
   0  -2  -7  101.39    9.10
   0  -2  -7   80.79    9.00
   0  -2  -7   94.99    8.70
   0  -2  -7   94.19    8.60
   0   2   7   83.39    8.00
   0   2   7   79.29    8.80
   0   2   7   87.19    9.00
   0   2   7  106.99    9.30
  -1  -2  -7   71.79    7.70
  -1  -2  -7   69.29    7.70
  -1  -2  -7   65.89    7.30
  -1  -2  -7   81.59    7.60
   1   2   7   64.19    7.10
   1   2   7   64.09    7.30
   1   2   7   70.49    7.70
   1   2   7   77.29    8.10
  -2  -2  -7  309.07   13.50
  -2  -2  -7  288.77   12.80
  -2  -2  -7  312.27   13.00
  -2  -2  -7  301.17   12.40
   2   2   7  331.37   13.40
   2   2   7  320.47   12.90
   2   2   7  302.27   13.20
  -3  -2  -7  342.87   12.90
  -3  -2  -7  356.66   12.60
  -3  -2  -7  314.87   16.20
  -3  -2  -7  341.17   13.00
   3   2   7  328.17   13.00
   3   2   7  345.27   12.90
   3   2   7  336.77   12.80
  -4  -2  -7  509.95   15.50
  -4  -2  -7  522.35   15.50
  -4  -2  -7  502.95   15.70
  -4  -2  -7  517.25   19.50
  -4  -2  -7  517.85   15.80
   4   2   7  541.25   16.00
   4   2   7  505.35   15.90
   4   2   7  505.25   15.50
   4   2   7  507.35   15.70
  -5  -2  -7  409.66   17.90
  -5  -2  -7  428.36   13.30
  -5  -2  -7  451.65   13.30
  -5  -2  -7  434.76   13.50
   5   2   7  432.96   13.10
   5   2   7  433.06   13.70
   5   2   7  430.26   13.80
   5   2   7  422.16   13.20
  -6  -2  -7   17.20    3.50
  -6  -2  -7   15.60    3.30
  -6  -2  -7   15.70    3.70
  -6  -2  -7   15.90    7.20
  -6  -2  -7   19.90    3.80
   6   2   7   12.90    4.20
   6   2   7   18.80    3.90
   6   2   7    9.40    3.40
   6   2   7   15.90    8.70
   6   2   7   18.10    3.40
  -7  -2  -7  828.32   33.90
   7   2   7  900.01   29.80
   7   2   7  842.22   31.50
   8   2   7  175.48   16.40
   9   2   7  346.47   24.70
  10   2   7   42.50   16.40
  10   2   7   26.90   14.70
   6  -3  -7  404.06   27.40
   6  -3  -7  438.46   30.10
   6  -3  -7  516.85   30.10
   6  -3  -7  458.55   27.10
  -6   3   7  463.55   24.00
  -6   3   7  482.85   31.30
  -6   3   7  455.55   30.60
  -6   3   7  476.65   29.90
  -6   3   7  408.06   26.50
   5  -3  -7   57.99   14.10
   5  -3  -7   58.99   12.60
   5  -3  -7   68.29   13.10
   5  -3  -7   82.99   15.60
  -5   3   7   56.29   13.60
  -5   3   7   72.79   12.70
  -5   3   7   54.69   14.40
   4  -3  -7   46.30   12.90
   4  -3  -7   39.00   10.60
   4  -3  -7   33.30   10.70
   4  -3  -7   41.40   12.60
  -4   3   7   40.00   11.30
  -4   3   7   52.79   12.90
  -4   3   7   37.70   11.90
  -4   3   7   38.80   11.30
   3  -3  -7   13.20    8.80
   3  -3  -7   25.10   10.10
   3  -3  -7   26.50   10.60
   3  -3  -7   33.00    9.30
  -3   3   7   21.20   11.50
  -3   3   7   16.70    9.70
  -3   3   7   24.40   10.30
  -3   3   7   17.90    9.20
   2  -3  -7   15.80    8.00
   2  -3  -7   21.50    8.10
   2  -3  -7   21.20    8.00
   2  -3  -7   28.90    8.50
  -2   3   7   10.70    8.00
  -2   3   7   23.20    8.50
  -2   3   7   29.40    8.60
  -2   3   7   18.10    9.20
   1  -3  -7   32.20    7.60
   1  -3  -7   47.60    8.70
   1  -3  -7   48.00    8.50
   1  -3  -7   37.50    7.80
  -1   3   7   46.50    8.30
  -1   3   7   37.70    8.00
  -1   3   7   29.90    8.10
   0  -3  -7  127.59   11.80
   0  -3  -7  126.09   10.70
   0  -3  -7  123.79   11.80
   0  -3  -7  117.29   10.40
   0   3   7  128.19   10.90
   0   3   7  124.89   11.50
   0   3   7  135.19   12.00
  -1  -3  -7    6.60    5.90
  -1  -3  -7   -0.60    5.40
  -1  -3  -7    1.80    5.30
  -1  -3  -7    8.30    5.30
   1   3   7    4.80    5.50
   1   3   7   -4.70    5.20
   1   3   7    9.40    5.50
   1   3   7    2.40    4.50
  -2  -3  -7  598.74   18.80
  -2  -3  -7  603.44   19.90
  -2  -3  -7  588.74   19.20
  -2  -3  -7  604.64   19.60
   2   3   7  590.44   19.30
   2   3   7  591.74   19.20
   2   3   7  604.44   19.10
   2   3   7  608.04   19.80
  -3  -3  -7 1891.51   46.70
  -3  -3  -7 1886.11   46.10
  -3  -3  -7 1836.12   47.30
  -3  -3  -7 1883.61   46.30
   3   3   7 1976.60   46.50
   3   3   7 1909.01   47.00
   3   3   7 1912.71   46.50
   3   3   7 1947.91   46.70
  -4  -3  -7   69.09    6.60
  -4  -3  -7   78.39    7.40
  -4  -3  -7   82.29    8.60
  -4  -3  -7   97.79    7.60
  -4  -3  -7   70.39    6.50
   4   3   7   78.59    7.40
   4   3   7   91.99    7.10
   4   3   7   77.19    6.60
  -5  -3  -7  429.76   14.40
  -5  -3  -7  431.96   13.90
  -5  -3  -7  463.15   14.70
  -5  -3  -7  438.66   18.30
  -5  -3  -7  448.36   14.00
   5   3   7  438.26   14.10
   5   3   7  433.56   14.30
   5   3   7  428.46   14.40
   5   3   7  459.45   14.50
  -6  -3  -7   70.09    6.10
  -6  -3  -7   78.89    6.60
  -6  -3  -7   68.39    6.60
  -6  -3  -7   67.29    9.20
   6   3   7   75.99    7.00
   6   3   7   75.19    5.80
   6   3   7   82.69    6.20
   6   3   7   74.69    5.90
  -7  -3  -7 1642.84   38.80
  -7  -3  -7 1623.84   46.00
  -7  -3  -7 1646.44   38.00
  -7  -3  -7 1641.04   38.30
  -7  -3  -7 1668.73   38.30
   7   3   7 1666.73   47.00
   7   3   7 1662.33   38.40
   7   3   7 1644.84   38.60
   7   3   7 1679.43   39.20
  -8  -3  -7  285.67    8.70
  -8  -3  -7  292.07    9.00
   8   3   7  293.57   20.70
   8   3   7  278.37    9.40
   8   3   7  265.07   20.40
   9   3   7  342.97   23.70
  10   3   7  131.79   16.80
  11   3   7   53.69   17.60
  11   3   7   77.79   17.50
   5  -4  -7  153.08   16.10
   5  -4  -7  188.68   18.00
   5  -4  -7  155.18   18.80
   5  -4  -7  107.79   17.10
  -5   4   7  158.78   19.10
  -5   4   7  131.69   16.40
  -5   4   7  149.19   17.80
  -5   4   7  109.69   18.00
   4  -4  -7  128.79   15.00
   4  -4  -7   81.39   12.40
   4  -4  -7  103.19   14.50
   4  -4  -7  107.59   13.90
  -4   4   7  115.99   15.20
  -4   4   7   98.49   14.90
  -4   4   7   89.39   14.10
  -4   4   7   83.79   15.90
   3  -4  -7  121.39   13.10
   3  -4  -7  128.29   13.80
   3  -4  -7  143.49   13.50
   3  -4  -7  126.89   13.60
  -3   4   7  138.19   14.70
  -3   4   7  152.88   14.70
  -3   4   7  144.99   14.10
   2  -4  -7  211.18   17.00
   2  -4  -7  219.78   17.80
   2  -4  -7  211.18   15.60
   2  -4  -7  218.38   16.70
  -2   4   7  215.68   16.80
  -2   4   7  227.68   16.80
  -2   4   7  220.58   17.00
  -2   4   7  215.58   17.60
   1  -4  -7   34.20    8.40
   1  -4  -7   53.39    9.60
   1  -4  -7   34.00    8.10
   1  -4  -7   32.60    9.60
  -1   4   7   46.40    8.40
  -1   4   7   44.50    8.70
  -1   4   7   69.19   10.00
   0  -4  -7   16.20    7.10
   0  -4  -7   19.40    7.90
   0  -4  -7   14.90    6.40
   0  -4  -7   23.00    6.30
   0   4   7    9.20    6.40
   0   4   7   21.40    6.70
   0   4   7    6.00    7.20
   0   4   7   20.70    6.70
  -1  -4  -7   15.30    6.40
  -1  -4  -7   10.20    6.10
  -1  -4  -7    9.20    5.60
  -1  -4  -7   10.50    6.20
   1   4   7   10.00    5.90
   1   4   7   17.60    6.60
   1   4   7   20.10    6.60
   1   4   7   13.10    5.70
  -2  -4  -7  684.53   21.50
  -2  -4  -7  664.23   21.60
  -2  -4  -7  663.13   21.10
  -2  -4  -7  674.33   22.40
   2   4   7  650.83   21.40
   2   4   7  667.13   21.60
   2   4   7  696.53   21.30
   2   4   7  652.33   21.70
  -3  -4  -7  718.93   22.40
  -3  -4  -7  719.03   22.10
  -3  -4  -7  728.43   22.80
  -3  -4  -7  716.63   21.60
   3   4   7  753.52   22.10
   3   4   7  733.43   22.20
   3   4   7  707.53   22.40
   3   4   7  746.03   22.40
  -4  -4  -7 1173.18   31.20
  -4  -4  -7 1177.78   30.60
  -4  -4  -7 1166.18   34.00
  -4  -4  -7 1172.38   30.90
   4   4   7 1181.18   31.20
   4   4   7 1134.99   30.80
   4   4   7 1181.68   30.60
   4   4   7 1167.48   31.30
  -5  -4  -7 1737.53   43.10
  -5  -4  -7 1768.22   44.00
  -5  -4  -7 1799.82   43.30
  -5  -4  -7 1780.22   43.90
  -5  -4  -7 1727.03   47.00
   5   4   7 1771.72   44.00
   5   4   7 1818.02   43.70
   5   4   7 1830.92   43.40
   5   4   7 1780.42   43.70
  -6  -4  -7  100.89   10.40
  -6  -4  -7  106.89    9.10
  -6  -4  -7   83.09    7.50
  -6  -4  -7   88.29    7.80
   6   4   7  103.59    8.40
   6   4   7   95.29    8.90
   6   4   7   98.59    8.00
   6   4   7   92.49    8.50
  -7  -4  -7  144.89    9.80
  -7  -4  -7  144.49    8.40
  -7  -4  -7  163.68   14.60
  -7  -4  -7  157.38   11.20
  -7  -4  -7  157.08    8.60
   7   4   7  146.29    9.20
   7   4   7  143.69    9.90
   7   4   7  146.39    8.70
   7   4   7  134.99    8.90
  -8  -4  -7  589.74   17.00
  -8  -4  -7  585.94   17.40
  -8  -4  -7  587.04   16.70
  -8  -4  -7  594.64   16.30
   8   4   7  584.44   16.40
   8   4   7  599.14   17.20
   8   4   7  641.04   25.90
   8   4   7  577.14   17.00
  -9  -4  -7  791.42   20.90
  -9  -4  -7  821.22   20.30
   9   4   7  775.52   19.30
   9   4   7  816.62   20.70
   9   4   7  756.02   19.70
   9   4   7  802.22   21.40
   9   4   7  830.02   31.80
  10   4   7   36.30    4.70
  10   4   7   33.50    4.00
  10   4   7   67.59   14.50
  10   4   7   36.20   13.90
  11   4   7   30.40   15.30
  11   4   7   18.80   16.10
   5  -5  -7   -0.90   15.90
   5  -5  -7   19.80   13.30
   5  -5  -7   15.10   15.70
   5  -5  -7   38.80   13.80
  -5   5   7   28.30   16.60
  -5   5   7   -2.10   15.40
  -5   5   7    7.40   13.30
  -5   5   7  -15.40   14.40
   4  -5  -7  548.05   28.90
   4  -5  -7  549.25   26.60
   4  -5  -7  530.25   27.10
   4  -5  -7  548.65   27.60
  -4   5   7  467.95   28.50
  -4   5   7  561.34   26.80
  -4   5   7  585.04   29.50
  -4   5   7  542.15   28.50
   3  -5  -7   63.59   12.00
   3  -5  -7   63.89   12.60
   3  -5  -7   68.89   12.30
   3  -5  -7   73.89   12.90
  -3   5   7   79.09   13.80
  -3   5   7   90.19   13.40
  -3   5   7   47.50   12.40
  -3   5   7   85.69   13.20
   2  -5  -7  348.67   20.00
   2  -5  -7  374.96   21.20
   2  -5  -7  380.76   20.80
   2  -5  -7  389.46   19.80
  -2   5   7  382.66   19.80
  -2   5   7  389.36   19.70
  -2   5   7  361.86   21.30
   1  -5  -7   97.69   11.60
   1  -5  -7  115.69   11.70
   1  -5  -7  105.89   10.90
   1  -5  -7   97.79   10.90
  -1   5   7  109.59   11.90
  -1   5   7   96.49   10.90
  -1   5   7  103.69   11.80
  -1   5   7  114.59   12.10
   0  -5  -7 2510.05   63.59
   0  -5  -7 2493.65   64.29
   0  -5  -7 2582.44   63.69
   0  -5  -7 2532.95   63.39
   0   5   7 2550.94   64.09
   0   5   7 2490.55   64.29
   0   5   7 2527.05   63.19
   0   5   7 2593.64   63.79
  -1  -5  -7 1094.99   32.00
  -1  -5  -7  970.20   36.80
  -1  -5  -7 1119.99   32.30
  -1  -5  -7 1093.19   32.80
   1   5   7 1109.79   32.00
   1   5   7 1147.89   32.10
   1   5   7 1072.79   31.90
   1   5   7 1105.99   32.50
  -2  -5  -7   25.60    7.70
  -2  -5  -7   29.30    7.10
  -2  -5  -7   30.30    6.90
  -2  -5  -7   27.20    6.60
   2   5   7   31.50    6.80
   2   5   7   33.10    6.90
   2   5   7   30.40    6.70
   2   5   7   32.00    6.80
  -3  -5  -7  143.89   11.20
  -3  -5  -7  113.89   10.00
  -3  -5  -7  127.59   11.30
  -3  -5  -7  112.29   10.00
   3   5   7  135.09   11.10
   3   5   7  125.49   10.70
   3   5   7  113.09    9.90
   3   5   7   93.09    8.90
  -4  -5  -7  310.67   13.70
  -4  -5  -7  291.27   14.80
  -4  -5  -7  297.17   13.30
  -4  -5  -7  273.67   15.40
  -4  -5  -7  289.97   14.10
   4   5   7  298.27   13.70
   4   5   7  281.87   13.80
   4   5   7  315.67   13.60
   4   5   7  298.87   13.90
  -5  -5  -7  479.15   19.90
  -5  -5  -7  555.34   17.60
  -5  -5  -7  510.55   20.50
  -5  -5  -7  515.95   18.60
   5   5   7  548.15   17.80
   5   5   7  508.55   18.50
   5   5   7  521.65   18.00
   5   5   7  527.05   18.10
  -6  -5  -7   54.29    7.50
  -6  -5  -7   49.60    6.70
  -6  -5  -7   58.69    7.50
  -6  -5  -7   63.89    9.30
  -6  -5  -7   59.49    6.70
   6   5   7   60.59    7.30
   6   5   7   56.79    6.70
   6   5   7   45.40    7.10
   6   5   7   51.59    7.00
  -7  -5  -7  362.66   15.40
  -7  -5  -7  362.86   19.00
  -7  -5  -7  378.16   15.40
  -7  -5  -7  380.66   14.10
  -7  -5  -7  399.26   14.30
   7   5   7  370.26   14.90
   7   5   7  370.36   14.90
   7   5   7  389.26   14.40
  -8  -5  -7  202.68   12.40
  -8  -5  -7  204.98   16.10
  -8  -5  -7  202.88   10.60
  -8  -5  -7  183.68   12.00
   8   5   7  192.48   11.80
   8   5   7  192.88   10.70
   8   5   7  220.38   11.50
   8   5   7  219.88   19.00
   8   5   7  186.48   11.90
  -9  -5  -7  192.48   11.10
  -9  -5  -7  181.28   11.50
  -9  -5  -7  183.88   10.20
   9   5   7  178.88   10.50
   9   5   7  187.88   11.90
   9   5   7  190.58   10.80
   9   5   7  172.58   11.30
 -10  -5  -7   27.50    6.80
 -10  -5  -7   24.30    5.30
 -10  -5  -7   38.70    6.10
 -10  -5  -7   27.60    5.80
  10   5   7   37.40    5.50
  10   5   7   21.80    5.90
  10   5   7   29.70   14.00
  10   5   7   15.90   12.90
  10   5   7   31.90    6.50
  10   5   7   37.20    6.90
 -11  -5  -7   19.10    6.90
 -11  -5  -7   19.80    6.60
  11   5   7   11.60   14.90
  11   5   7   20.30   15.80
  11   5   7   20.70    6.90
  11   5   7   21.30    6.00
   4  -6  -7  295.07   24.90
   4  -6  -7  305.57   27.30
   4  -6  -7  289.07   23.60
   4  -6  -7  320.57   25.30
  -4   6   7  368.86   26.60
  -4   6   7  282.97   24.40
  -4   6   7  356.56   27.60
   3  -6  -7   35.10   11.30
   3  -6  -7   49.10   13.70
   3  -6  -7   45.50   13.20
   3  -6  -7   58.49   11.80
  -3   6   7   61.09   13.60
  -3   6   7   57.29   13.30
  -3   6   7   62.19   13.80
   2  -6  -7  648.84   31.50
   2  -6  -7  660.03   28.20
   2  -6  -7  676.03   26.70
   2  -6  -7  729.53   28.00
  -2   6   7  652.23   26.40
  -2   6   7  646.64   28.50
  -2   6   7  665.93   27.20
  -2   6   7  709.93   27.90
   1  -6  -7    4.70    7.90
   1  -6  -7   -3.80    8.40
   1  -6  -7   -0.30    9.00
   1  -6  -7    0.90    8.50
  -1   6   7   -1.90    8.80
  -1   6   7    0.50    7.70
   0  -6  -7  157.58   14.50
   0  -6  -7  157.88   13.30
   0  -6  -7  131.99   12.40
   0   6   7  133.19   11.70
   0   6   7  160.68   14.20
   0   6   7  161.18   14.60
   0   6   7  175.88   15.10
  -1  -6  -7  274.77   17.70
  -1  -6  -7  285.97   16.00
  -1  -6  -7  284.27   16.90
  -1  -6  -7  265.77   16.00
   1   6   7  272.57   15.80
   1   6   7  262.27   15.90
   1   6   7  267.97   16.40
   1   6   7  257.87   16.30
  -2  -6  -7  781.62   26.90
  -2  -6  -7  770.22   25.50
  -2  -6  -7  801.22   26.10
  -2  -6  -7  771.02   25.20
   2   6   7  806.82   26.20
   2   6   7  758.22   26.40
   2   6   7  777.52   25.50
   2   6   7  788.32   26.40
  -3  -6  -7  200.08   14.40
  -3  -6  -7  185.38   14.70
  -3  -6  -7  192.28   12.70
  -3  -6  -7  207.38   14.20
   3   6   7  211.98   13.90
   3   6   7  198.88   13.90
   3   6   7  230.38   13.50
   3   6   7  217.08   14.10
  -4  -6  -7   34.20    7.10
  -4  -6  -7   38.20    8.10
  -4  -6  -7   27.20    7.90
  -4  -6  -7   45.70    8.60
  -4  -6  -7   32.90    6.70
   4   6   7   34.30    7.60
   4   6   7   23.70    7.50
   4   6   7   41.70    7.30
   4   6   7   41.80    7.50
  -5  -6  -7   54.29    7.40
  -5  -6  -7   54.19    8.50
  -5  -6  -7   46.00    6.90
  -5  -6  -7   41.90    8.40
  -5  -6  -7   45.30    8.20
   5   6   7   50.39    8.10
   5   6   7   42.20    8.00
   5   6   7   46.90    7.40
   5   6   7   50.19    7.90
  -6  -6  -7   53.79    8.90
  -6  -6  -7   59.39    8.60
  -6  -6  -7   72.19    8.20
  -6  -6  -7   51.09    7.10
   6   6   7   55.39    7.40
   6   6   7   56.49    8.10
   6   6   7   69.69    9.00
  -7  -6  -7   32.40    7.20
  -7  -6  -7   28.10    7.80
  -7  -6  -7   28.70    6.30
  -7  -6  -7   23.60    7.70
  -7  -6  -7   21.20    8.60
   7   6   7   23.50    7.20
   7   6   7   25.90    6.40
   7   6   7   36.10    7.30
   7   6   7   35.30    7.70
  -8  -6  -7   17.30    6.40
  -8  -6  -7   14.10    7.40
  -8  -6  -7   19.30    7.70
  -8  -6  -7   11.20    5.90
   8   6   7   -2.30    6.40
   8   6   7    8.20    6.90
   8   6   7   18.60    6.50
   8   6   7    7.30    6.40
  -9  -6  -7  176.18   13.90
  -9  -6  -7  162.48   14.00
  -9  -6  -7  191.48   12.80
   9   6   7  187.58   12.10
   9   6   7  173.08   13.10
   9   6   7  150.98   13.00
   9   6   7  191.58   18.20
 -10  -6  -7    2.10    7.30
 -10  -6  -7   11.30    7.50
 -10  -6  -7    8.90    7.60
  10   6   7   -5.50    7.80
  10   6   7    8.70    7.60
  10   6   7  -10.70    7.40
  10   6   7  -10.90   13.80
 -11  -6  -7  295.57   15.20
 -11  -6  -7  323.97   13.80
 -11  -6  -7  280.27   15.30
 -11  -6  -7  320.57   16.30
  11   6   7  266.07   26.60
  11   6   7  314.77   15.90
  11   6   7  285.97   16.40
  11   6   7  325.57   13.80
  11   6   7  266.07   15.30
  11   6   7  303.77   24.40
   3  -7  -7  216.18   19.10
   3  -7  -7  215.08   18.60
   3  -7  -7  273.27   21.60
   3  -7  -7  224.68   19.40
  -3   7   7  217.48   18.80
  -3   7   7  210.88   19.60
  -3   7   7  272.47   23.10
   2  -7  -7  563.14   27.50
   2  -7  -7  545.75   27.00
   2  -7  -7  565.94   28.10
   2  -7  -7  559.84   28.10
  -2   7   7  555.44   27.10
  -2   7   7  560.24   27.90
  -2   7   7  571.14   27.00
  -2   7   7  586.84   27.40
   1  -7  -7   17.00   10.60
   1  -7  -7   12.10   10.20
   1  -7  -7   15.70   11.60
   1  -7  -7    1.60   10.20
  -1   7   7   21.90   11.00
  -1   7   7   25.80   10.50
  -1   7   7   36.10   11.60
  -1   7   7   31.80   10.20
   0   7   7  243.18   19.70
  -1  -7  -7   37.30    9.90
  -1  -7  -7   24.70   10.10
  -1  -7  -7   36.70   10.30
  -1  -7  -7   35.30    9.20
   1   7   7   35.00    9.30
   1   7   7   21.00    9.70
   1   7   7   76.89   10.90
   1   7   7   27.50    9.10
  -2  -7  -7    2.80    7.50
  -2  -7  -7    6.30    8.20
  -2  -7  -7    3.30    9.00
  -2  -7  -7    8.20    8.30
   2   7   7  -10.00    7.50
   2   7   7    4.10    7.90
   2   7   7   20.70    7.80
   2   7   7  -11.10    7.50
  -3  -7  -7    3.00    6.80
  -3  -7  -7   -3.90    6.90
  -3  -7  -7   24.40    8.90
  -3  -7  -7    3.00    6.90
   3   7   7    1.50    7.90
   3   7   7    1.40    7.00
   3   7   7  -10.90    6.30
   3   7   7   -7.00   14.40
  -4  -7  -7  222.78   16.00
  -4  -7  -7  226.48   15.10
  -4  -7  -7  193.78   13.90
  -4  -7  -7  209.68   16.40
  -4  -7  -7  216.38   14.90
   4   7   7  242.58   16.20
   4   7   7  234.88   15.00
   4   7   7  247.18   14.50
  -5  -7  -7   76.59    9.10
  -5  -7  -7   81.29    9.20
  -5  -7  -7   69.59    9.60
  -5  -7  -7   83.99   10.90
  -5  -7  -7   74.79    9.60
   5   7   7  100.09    9.80
   5   7   7   82.09    9.70
   5   7   7   69.99   11.60
  -6  -7  -7 1668.93   43.60
  -6  -7  -7 1697.43   43.90
  -6  -7  -7 1636.04   45.40
  -6  -7  -7 1663.03   45.30
  -6  -7  -7 1633.94   44.80
   6   7   7 1648.73   45.00
   6   7   7 1656.73   44.20
   6   7   7 1718.63   44.00
   6   7   7 1683.83   45.10
  -7  -7  -7  416.46   17.80
  -7  -7  -7  394.26   19.80
  -7  -7  -7  404.76   19.10
   7   7   7  431.16   18.80
   7   7   7  419.06   19.10
   7   7   7  401.76   18.90
   7   7   7  411.56   17.60
  -8  -7  -7  226.28   16.60
  -8  -7  -7  239.88   14.90
  -8  -7  -7  236.48   16.50
   8   7   7  255.87   15.60
   8   7   7  263.97   16.30
   8   7   7  255.87   15.90
   8   7   7  282.57   15.10
  -9  -7  -7   98.99   12.30
  -9  -7  -7   94.89   11.30
  -9  -7  -7  117.39   10.80
  -9  -7  -7   95.79   10.90
   9   7   7   87.59   10.50
   9   7   7   98.59   10.70
   9   7   7  100.09   10.50
   9   7   7  107.19   10.60
 -10  -7  -7  492.35   21.30
 -10  -7  -7  501.35   21.10
 -10  -7  -7  515.45   20.30
 -10  -7  -7  533.75   21.80
  10   7   7  476.85   21.60
  10   7   7  585.04   31.60
  10   7   7  507.65   20.30
  10   7   7  523.25   20.90
  10   7   7  498.75   21.00
   2  -8  -7   83.19   15.30
   2  -8  -7   94.09   16.00
   2  -8  -7   97.39   16.00
  -2   8   7  113.39   15.70
  -2   8   7   98.89   16.80
  -2   8   7  122.79   16.30
  -2   8   7   93.99   15.90
   1  -8  -7   88.39   13.70
   1  -8  -7   91.09   19.50
   1  -8  -7   70.89   13.00
   1  -8  -7   70.69   14.00
  -1   8   7   91.59   14.30
  -1   8   7   84.89   14.40
  -1   8   7   70.79   14.10
  -1   8   7   82.79   13.70
   0  -8  -7    0.80   10.60
   0  -8  -7   24.20   11.90
   0  -8  -7    8.80   11.10
   0  -8  -7  -13.00   10.20
   0   8   7   17.80   10.60
   0   8   7    2.80   10.20
   0   8   7   -9.20   10.50
   0   8   7    8.10   10.20
  -1  -8  -7  197.48   16.50
  -1  -8  -7  181.38   15.80
  -1  -8  -7  222.08   20.10
  -1  -8  -7  181.98   15.10
   1   8   7  187.18   17.30
   1   8   7  215.58   17.60
   1   8   7  199.88   16.90
   1   8   7  192.88   18.20
  -2  -8  -7  598.44   24.70
  -2  -8  -7  647.94   26.30
  -2  -8  -7  660.93   27.10
   2   8   7  637.84   25.30
   2   8   7  618.54   27.30
   2   8   7  635.54   25.20
   2   8   7  652.43   25.70
  -3  -8  -7   33.70    9.00
  -3  -8  -7   16.10    9.50
  -3  -8  -7   27.40    9.90
  -3  -8  -7   28.00    9.00
   3   8   7   20.20    9.40
   3   8   7   28.20    9.50
   3   8   7   34.10    9.40
   3   8   7   27.90    9.80
  -4  -8  -7  467.15   21.40
  -4  -8  -7  463.35   21.10
  -4  -8  -7  448.96   22.80
  -4  -8  -7  441.76   20.30
   4   8   7  484.75   20.60
   4   8   7  424.16   21.10
   4   8   7  467.65   21.20
   4   8   7  469.95   22.70
  -5  -8  -7  101.29   10.40
  -5  -8  -7   81.99   11.80
  -5  -8  -7   77.69   10.70
  -5  -8  -7  100.79   10.90
   5   8   7   90.69   11.60
   5   8   7   91.19   11.50
   5   8   7   88.69   11.40
   5   8   7   91.79   10.90
  -6  -8  -7  227.48   17.20
  -6  -8  -7  230.08   16.20
  -6  -8  -7  225.18   16.50
  -6  -8  -7  218.88   15.30
  -6  -8  -7  253.27   18.90
   6   8   7  249.28   17.10
   6   8   7  248.38   15.50
   6   8   7  244.88   16.60
   6   8   7  240.08   17.20
  -7  -8  -7   18.80    8.90
  -7  -8  -7    5.20    8.50
  -7  -8  -7    4.00    8.40
  -7  -8  -7   17.30   10.20
   7   8   7   14.60    8.80
   7   8   7    5.80    8.30
   7   8   7   15.20    8.70
   7   8   7   14.30    9.10
  -8  -8  -7  646.14   25.40
   8   8   7  640.74   24.40
   8   8   7  627.64   24.90
   8   8   7  625.34   24.90
   8   8   7  663.53   23.90
  -9  -8  -7  695.43   27.50
  -9  -8  -7  697.53   25.20
  -9  -8  -7  692.13   26.90
   9   8   7  700.13   25.20
   9   8   7  704.33   26.30
   9   8   7  663.03   26.20
   9   8   7  745.13   26.60
 -10  -8  -7   28.00    9.70
 -10  -8  -7   24.60   11.10
 -10  -8  -7   33.90   11.10
 -10  -8  -7   20.50   10.70
  10   8   7   25.70    9.90
  10   8   7   25.40   10.70
  10   8   7   24.50   10.30
  10   8   7   42.30   10.60
   1  -9  -7  222.98   20.30
   1  -9  -7  267.97   22.80
   1  -9  -7  218.38   20.40
   1  -9  -7  205.78   20.30
  -1   9   7  202.28   19.40
  -1   9   7  211.08   19.70
  -1   9   7  233.38   20.80
  -1   9   7  252.37   22.10
   0  -9  -7  356.36   24.40
   0  -9  -7  314.17   24.10
   0  -9  -7  286.57   25.40
   0  -9  -7  279.87   24.70
   0   9   7  284.57   23.00
   0   9   7  362.16   23.50
   0   9   7  285.57   25.80
   0   9   7  279.17   24.30
  -1  -9  -7   73.59   14.30
  -1  -9  -7   62.49   12.70
  -1  -9  -7   56.69   13.10
  -1  -9  -7   62.59   13.10
   1   9   7   55.79   13.00
   1   9   7   86.99   13.30
   1   9   7   72.59   14.80
   1   9   7   73.89   13.10
  -2  -9  -7   58.99   12.60
  -2  -9  -7   49.30   12.40
  -2  -9  -7   55.69   12.00
  -2  -9  -7   44.50   11.90
   2   9   7   59.59   14.10
   2   9   7   75.19   12.50
   2   9   7   57.49   12.90
   2   9   7   51.69   15.70
  -3  -9  -7  633.74   27.70
  -3  -9  -7  610.94   27.00
  -3  -9  -7  688.13   26.80
  -3  -9  -7  649.74   25.70
  -3  -9  -7  612.44   27.90
   3   9   7  626.34   28.20
   3   9   7  664.83   26.60
   3   9   7  611.34   26.90
   3   9   7  637.64   26.30
  -4  -9  -7  887.21   29.50
  -4  -9  -7  900.61   33.60
  -4  -9  -7  989.10   32.20
  -4  -9  -7  907.71   31.90
   4   9   7  890.31   31.70
   4   9   7  908.81   32.70
   4   9   7  873.81   32.00
   4   9   7  951.20   31.30
  -5  -9  -7    7.80    9.90
  -5  -9  -7    5.70    7.90
  -5  -9  -7   10.90   10.90
  -5  -9  -7   10.80    9.50
   5   9   7   15.70    9.50
   5   9   7    3.00    9.30
   5   9   7    1.90   10.20
   5   9   7   11.00    9.80
  -6  -9  -7  639.94   24.50
  -6  -9  -7  659.63   25.60
  -6  -9  -7  611.24   25.60
  -6  -9  -7  587.54   27.10
   6   9   7  638.94   27.10
   6   9   7  630.34   26.20
   6   9   7  647.84   24.90
   6   9   7  620.74   25.90
  -7  -9  -7   11.00    9.50
  -7  -9  -7   -2.10    8.80
  -7  -9  -7    9.50   15.20
  -7  -9  -7    7.00   11.00
  -7  -9  -7   -1.30    9.20
   7   9   7    5.00    9.50
   7   9   7   -7.70    9.30
   7   9   7    8.40    9.20
   7   9   7   -3.90    9.10
  -8  -9  -7  280.87   22.50
  -8  -9  -7  315.77   19.90
  -8  -9  -7  307.57   21.10
   8   9   7  314.47   20.50
   8   9   7  282.67   19.10
   8   9   7  325.67   20.80
   8   9   7  274.27   20.10
  -9  -9  -7  -13.10    9.30
  -9  -9  -7   14.40   11.10
  -9  -9  -7   10.00   11.70
   9   9   7    3.10   10.30
   9   9   7    2.20    9.60
   9   9   7   17.30   10.70
   9   9   7   -1.80   10.40
  -1 -10  -7  120.99   16.70
  -1 -10  -7  139.89   17.80
  -1 -10  -7  170.68   19.10
  -1 -10  -7  144.99   17.20
   1  10   7  137.39   17.60
   1  10   7  170.78   18.50
   1  10   7  127.39   16.90
   1  10   7  190.18   20.10
  -2 -10  -7  547.65   28.30
  -2 -10  -7  556.24   28.70
  -2 -10  -7  534.45   27.30
  -2 -10  -7  482.85   30.60
   2  10   7  590.14   29.00
   2  10   7  592.34   28.40
   2  10   7  556.54   28.70
   2  10   7  515.85   29.50
  -3 -10  -7    1.10   12.10
  -3 -10  -7   -1.00   10.80
  -3 -10  -7  -10.70   10.80
  -3 -10  -7    0.50    9.90
  -3 -10  -7   15.70   11.80
   3  10   7   -5.50   10.90
   3  10   7    1.80   10.30
   3  10   7  -14.40   11.20
  -4 -10  -7   67.99   13.40
  -4 -10  -7   38.90   13.10
  -4 -10  -7   41.70   12.70
  -4 -10  -7   42.90    9.80
  -4 -10  -7   39.70   12.70
   4  10   7   21.10   11.70
   4  10   7   47.40   12.20
   4  10   7   25.40   12.30
   4  10   7   57.79   13.00
  -5 -10  -7   47.70   12.20
  -5 -10  -7   57.79   13.90
  -5 -10  -7   45.00   12.40
  -5 -10  -7   27.00    9.00
   5  10   7   33.00   11.70
   5  10   7   22.00   10.70
   5  10   7   42.60   12.20
   5  10   7   32.30   11.90
  -6 -10  -7  114.79   15.10
  -6 -10  -7   93.79   13.50
  -6 -10  -7  113.69   12.10
  -6 -10  -7   94.69   15.10
   6  10   7  109.69   14.10
   6  10   7  105.09   14.00
   6  10   7   88.09   15.00
   6  10   7  107.39   13.40
  -7 -10  -7  206.38   18.10
  -7 -10  -7  203.68   17.00
  -7 -10  -7  190.38   17.40
  -7 -10  -7  163.98   17.90
  -7 -10  -7  184.38   16.30
   7  10   7  177.28   17.40
   7  10   7  206.08   17.40
   7  10   7  197.98   17.20
  -8 -10  -7  154.68   15.70
  -8 -10  -7  145.29   16.60
  -8 -10  -7  143.69   15.70
  -8 -10  -7  144.49   15.20
   8  10   7  131.49   15.10
   8  10   7  164.48   16.50
   8  10   7  150.18   15.20
   8  10   7  142.49   16.30
  -3 -11  -7   67.29   15.40
  -3 -11  -7   10.20   15.10
  -3 -11  -7   14.00   14.40
  -3 -11  -7   -6.70   23.50
  -3 -11  -7   -5.40   10.90
   3  11   7   15.00   14.20
   3  11   7   21.20   14.40
   3  11   7    8.90   14.90
   3  11   7    4.20   14.00
  -4 -11  -7   -1.40   13.50
  -4 -11  -7  -11.30   14.10
  -4 -11  -7   12.90   14.40
  -4 -11  -7   12.90   10.00
  -4 -11  -7   18.70   13.70
   4  11   7   45.00   14.90
   4  11   7   -1.70   12.70
   4  11   7   26.40   15.30
   4  11   7   31.30   13.10
  -5 -11  -7   11.00   13.80
  -5 -11  -7  -13.40   13.00
  -5 -11  -7   13.80   13.20
  -5 -11  -7   24.40    9.90
  -5 -11  -7   15.50   12.70
   5  11   7   -1.80   12.30
   5  11   7  -12.10   12.50
   5  11   7   43.90   13.10
   5  11   7   31.20   13.60
  -6 -11  -7   94.79   17.10
  -6 -11  -7  112.99   16.00
  -6 -11  -7   78.19   11.80
  -6 -11  -7  116.39   15.70
  -6 -11  -7   90.79   15.10
   6  11   7  101.69   15.60
   6  11   7  126.29   16.90
   6  11   7   85.79   15.10
   6  11   7   98.49   15.80
  -7 -11  -7   41.30   15.30
  -7 -11  -7   20.70   13.70
  -7 -11  -7   80.59   14.70
  -7 -11  -7   44.20   13.60
   7  11   7   25.90   14.20
   7  11   7   44.70   14.30
   7  11   7   35.50   14.10
   7  11   7   25.70   14.60
   4   8  -8   33.90   18.60
   4   8  -8    9.30   14.00
   4   8  -8    0.30   15.20
   4   8  -8    6.20   15.00
   4   8  -8   42.40   15.20
  -4  -8   8   28.10   15.10
  -4  -8   8    9.30   16.70
  -4  -8   8   23.30   17.50
  -4  -8   8   10.90   14.20
   3   8  -8  176.08   18.30
   3   8  -8  162.38   17.80
   3   8  -8  174.38   19.10
   3   8  -8  177.08   19.10
   3   8  -8  141.69   20.00
  -3  -8   8  187.28   21.80
  -3  -8   8  163.58   20.20
  -3  -8   8  180.78   18.40
  -3  -8   8  144.69   16.60
   2   8  -8    7.40   13.30
   2   8  -8  -17.60   11.70
   2   8  -8   -8.70   13.70
   2   8  -8    2.30   14.80
   2   8  -8   18.60   15.60
  -2  -8   8   22.20   12.30
  -2  -8   8    7.40   14.70
  -2  -8   8    4.10   11.70
  -2  -8   8   17.10   15.00
   1   8  -8  528.95   28.70
   1   8  -8  513.05   29.70
   1   8  -8  490.15   31.40
   1   8  -8  565.14   30.90
   1   8  -8  549.65   27.30
   1   8  -8  524.75   21.40
  -1  -8   8  495.35   25.80
  -1  -8   8  620.34   32.00
  -1  -8   8  526.55   29.10
  -1  -8   8  528.95   27.30
   0   8  -8  427.86   26.80
   0   8  -8  376.66   17.90
   0   8  -8  450.85   24.10
   0   8  -8  462.75   27.20
   0   8  -8  408.26   29.90
   0   8  -8  390.66   25.10
   0  -8   8  415.66   23.20
   0  -8   8  457.35   29.40
   0  -8   8  389.56   35.70
   0  -8   8  428.86   25.90
   0  -8   8  355.06   24.30
  -1   8  -8   32.80   13.30
  -1   8  -8   39.60    8.60
  -1   8  -8   26.70   13.60
  -1   8  -8   52.49   12.20
  -1   8  -8   42.00   16.90
  -1   8  -8   21.70   12.90
   1  -8   8   42.20   11.60
   1  -8   8   45.60   14.80
   1  -8   8   39.40   19.60
   1  -8   8   44.90   12.40
   1  -8   8   30.90   13.80
  -2   8  -8   22.10   12.70
  -2   8  -8   16.60   12.00
  -2   8  -8   24.10   13.10
  -2   8  -8   15.00   18.40
   2  -8   8   24.20   21.50
   2  -8   8   47.20   12.40
   2  -8   8   28.70   11.50
   2  -8   8   19.50   13.00
   2  -8   8    2.90   12.40
   5   7  -8  644.64   50.69
   5   7  -8  689.43   36.80
   5   7  -8  686.43   36.90
   5   7  -8  691.53   32.60
  -5  -7   8  695.83   37.00
  -5  -7   8  660.43   35.20
  -5  -7   8  693.93   33.80
  -5  -7   8  608.94   31.70
   4   7  -8  169.88   20.10
   4   7  -8  196.88   21.30
   4   7  -8  189.78   18.70
   4   7  -8  166.78   17.60
  -4  -7   8  136.59   16.20
  -4  -7   8  177.98   17.40
  -4  -7   8  161.08   19.90
  -4  -7   8  153.78   25.30
   3   7  -8  164.88   16.60
   3   7  -8  141.19   17.00
   3   7  -8  131.19   17.50
   3   7  -8  161.68   17.40
   3   7  -8  167.08   17.20
  -3  -7   8  176.58   17.30
  -3  -7   8  153.88   18.80
  -3  -7   8  136.29   18.40
  -3  -7   8  115.29   14.60
   2   7  -8   58.89   13.40
   2   7  -8   32.90   13.20
   2   7  -8   26.60   13.70
   2   7  -8   52.29   13.50
  -2  -7   8   68.59   14.40
  -2  -7   8   74.09   15.30
  -2  -7   8   44.70   11.40
  -2  -7   8   54.19   12.50
  -2  -7   8   56.29   16.90
   1   7  -8  191.38   16.80
   1   7  -8  216.58   19.60
   1   7  -8  171.68   15.90
   1   7  -8  221.48   18.30
   1   7  -8  230.18   21.40
  -1  -7   8  184.48   15.70
  -1  -7   8  173.28   18.10
  -1  -7   8  240.98   22.30
  -1  -7   8  219.28   19.90
  -1  -7   8  200.88   17.60
   0   7  -8  141.89   20.40
   0   7  -8  176.38   15.40
   0   7  -8  174.98   15.70
   0   7  -8  131.19   14.70
   0   7  -8  186.68   19.20
   0   7  -8  125.99   13.30
   0  -7   8  119.79   13.60
   0  -7   8  159.28   16.70
   0  -7   8  143.19   15.80
   0  -7   8  147.69   14.10
  -1   7  -8   99.79   18.50
  -1   7  -8   95.49   10.40
  -1   7  -8  119.09   14.40
  -1   7  -8  113.89   14.40
  -1   7  -8  123.49   17.90
   1  -7   8   84.59   13.10
   1  -7   8   92.09   12.10
   1  -7   8   87.09   14.40
   1  -7   8   77.29   12.00
  -2   7  -8  266.37   15.80
  -2   7  -8  351.76   27.10
  -2   7  -8  349.47   20.80
  -2   7  -8  299.07   26.10
   2  -7   8  324.17   27.30
   2  -7   8  314.97   21.30
   2  -7   8  347.97   19.10
   2  -7   8  284.07   19.10
   2  -7   8  289.87   22.80
  -3   7  -8   61.19   12.30
  -3   7  -8   42.60   10.80
  -3   7  -8   22.60   16.90
  -3   7  -8   24.30   11.00
  -3   7  -8   42.40   12.20
   3  -7   8   72.19   20.00
   3  -7   8   32.80   10.00
   3  -7   8   34.40   10.10
   3  -7   8   26.50   11.40
   3  -7   8   38.20   11.90
  -4   7  -8   58.59   18.90
  -4   7  -8   66.69   11.90
  -4   7  -8   49.60   11.40
  -4   7  -8   49.90   11.80
  -4   7  -8   86.09   13.00
   4  -7   8   42.30   20.70
   4  -7   8   59.89   10.70
   4  -7   8   72.19   11.40
   4  -7   8   87.29   12.90
   4  -7   8   75.79   12.30
   6   6  -8   23.20   17.40
   6   6  -8    5.60   15.70
   6   6  -8    2.20   15.00
   6   6  -8  -14.60   17.70
  -6  -6   8   14.40   18.00
  -6  -6   8   21.20   19.50
  -6  -6   8  -12.00   15.20
  -6  -6   8  -15.90   14.70
   5   6  -8   59.29   14.80
   5   6  -8   32.00   16.20
   5   6  -8   -0.80   14.80
   5   6  -8   34.90   16.60
  -5  -6   8   22.50   15.60
  -5  -6   8   38.80   13.50
  -5  -6   8   22.80   17.00
  -5  -6   8    9.10   14.50
   4   6  -8  255.67   21.90
   4   6  -8  232.68   20.40
   4   6  -8  240.38   21.40
   4   6  -8  288.67   23.00
  -4  -6   8  263.27   21.60
  -4  -6   8  216.78   20.50
  -4  -6   8  299.07   22.90
  -4  -6   8  230.48   20.20
   3   6  -8  669.43   28.40
   3   6  -8  622.24   28.50
   3   6  -8  618.14   30.60
   3   6  -8  644.34   28.80
  -3  -6   8  688.83   31.60
  -3  -6   8  601.74   27.80
  -3  -6   8  632.34   26.70
  -3  -6   8  648.14   34.70
  -3  -6   8  630.34   29.50
   2   6  -8   69.29   13.60
   2   6  -8   33.10   11.40
   2   6  -8   23.00   11.00
   2   6  -8   33.90   11.20
  -2  -6   8   34.60   10.10
  -2  -6   8   -3.40   11.90
  -2  -6   8   21.70   12.90
  -2  -6   8   31.60   14.30
  -2  -6   8   21.80   10.80
   1   6  -8   31.50   10.90
   1   6  -8   28.70   11.10
   1   6  -8   25.80    9.70
  -1  -6   8   18.70   11.70
  -1  -6   8   40.60    9.90
  -1  -6   8   32.70   14.80
  -1  -6   8   30.70    9.70
  -1  -6   8   27.60   11.80
   0   6  -8  328.97   20.80
   0   6  -8  360.96   18.00
   0   6  -8  315.07   21.20
   0   6  -8  341.97   23.50
   0   6  -8  352.96   20.40
   0   6  -8  353.16   20.70
   0  -6   8  361.26   22.60
   0  -6   8  364.76   18.90
   0  -6   8  362.46   21.30
   0  -6   8  336.97   27.40
   0  -6   8  362.96   19.50
  -1   6  -8   10.90    9.90
  -1   6  -8   29.00   12.40
  -1   6  -8   35.80   10.60
  -1   6  -8   31.20    8.10
  -1   6  -8   33.30   10.00
   1  -6   8   21.30   10.80
   1  -6   8   34.60   14.90
   1  -6   8   24.50    9.20
   1  -6   8   37.00   10.90
   1  -6   8   30.90    8.70
  -2   6  -8   11.90    9.30
  -2   6  -8   23.50   12.80
  -2   6  -8   14.10    9.50
  -2   6  -8   10.90    8.40
  -2   6  -8    7.90    7.00
   2  -6   8   17.40    8.30
   2  -6   8    3.50    9.30
   2  -6   8   14.00    8.30
   2  -6   8   11.00   10.50
  -3   6  -8   17.60    7.30
  -3   6  -8    3.90    9.40
  -3   6  -8   10.00   10.20
  -3   6  -8    5.20   13.10
  -3   6  -8   11.00    8.40
  -3   6  -8    8.50    8.90
   3  -6   8   11.50    9.30
   3  -6   8   12.10    8.00
   3  -6   8    3.00   10.00
   3  -6   8    8.30    7.90
  -4   6  -8   40.50    9.90
  -4   6  -8   53.39   10.40
  -4   6  -8   27.10   14.10
  -4   6  -8   34.70   10.20
  -4   6  -8   41.90    9.80
   4  -6   8   42.60   10.40
   4  -6   8   56.59    9.60
   4  -6   8   29.90    8.70
   4  -6   8   35.00    9.50
  -5   6  -8  -16.20   13.70
  -5   6  -8    5.10    9.20
  -5   6  -8    1.80    9.00
  -5   6  -8    9.30    8.90
  -5   6  -8    8.80    8.20
   5  -6   8   10.90    9.30
   5  -6   8    1.60    8.20
   5  -6   8   11.60   21.50
   5  -6   8   11.90    8.50
   5  -6   8   -0.70    7.80
   6   5  -8   23.40   14.80
   6   5  -8    9.60   15.30
   6   5  -8  -18.90   16.10
   6   5  -8   -2.80   16.20
  -6  -5   8   27.20   17.00
  -6  -5   8   22.00   15.50
  -6  -5   8    1.80   16.50
  -6  -5   8    1.20   13.90
   5   5  -8   90.89   16.60
   5   5  -8   62.29   14.40
   5   5  -8   70.29   15.70
   5   5  -8   56.29   15.60
  -5  -5   8   90.59   16.30
  -5  -5   8  101.29   16.90
  -5  -5   8   83.89   17.20
  -5  -5   8   93.79   15.40
   4   5  -8  197.18   16.80
   4   5  -8  225.18   19.00
   4   5  -8  218.88   20.10
   4   5  -8  189.98   18.10
  -4  -5   8  194.08   16.60
  -4  -5   8  185.38   18.80
  -4  -5   8  204.88   18.50
  -4  -5   8  169.88   18.20
  -4  -5   8  190.38   18.60
   3   5  -8   80.99   13.70
   3   5  -8   78.59   13.90
   3   5  -8   85.69   15.00
   3   5  -8   74.89   13.30
  -3  -5   8   61.29   13.30
  -3  -5   8  108.69   14.20
  -3  -5   8   84.39   14.20
  -3  -5   8   99.09   12.80
   2   5  -8   19.90    9.60
   2   5  -8    9.10   10.60
   2   5  -8   25.20    9.70
  -2  -5   8   17.40   10.90
  -2  -5   8   31.60   11.80
  -2  -5   8   28.50   11.00
  -2  -5   8   13.20    8.50
  -2  -5   8   29.70   11.40
   1   5  -8    5.70    9.70
   1   5  -8   13.50    9.20
   1   5  -8   15.40    7.60
   1   5  -8  -15.20    8.90
  -1  -5   8    3.50    7.70
  -1  -5   8   10.20    8.60
  -1  -5   8   -5.80    9.40
  -1  -5   8   -4.70    9.70
  -1  -5   8   17.00   11.70
   0   5  -8  472.05   20.60
   0   5  -8  421.26   22.80
   0   5  -8  467.65   21.50
   0   5  -8  464.95   21.00
   0   5  -8  467.85   22.20
   0  -5   8  420.06   19.50
   0  -5   8  444.56   20.10
   0  -5   8  434.66   22.80
   0  -5   8  482.85   21.80
   0  -5   8  435.76   25.60
  -1   5  -8 1383.86   38.80
  -1   5  -8 1372.96   38.60
  -1   5  -8 1347.87   38.30
  -1   5  -8 1280.17   41.60
  -1   5  -8 1344.87   37.40
   1  -5   8 1370.76   40.10
   1  -5   8 1296.27   37.30
   1  -5   8 1377.06   39.10
   1  -5   8 1374.46   45.00
   1  -5   8 1317.27   37.70
  -2   5  -8  254.17   15.70
  -2   5  -8  222.88   15.40
  -2   5  -8  250.77   20.70
  -2   5  -8  232.08   14.70
  -2   5  -8  221.58   15.00
   2  -5   8  248.98   14.60
   2  -5   8  216.08   16.10
   2  -5   8  216.88   17.90
   2  -5   8  237.78   15.20
   2  -5   8  232.38   23.00
  -3   5  -8  245.08   15.40
  -3   5  -8  245.38   15.20
  -3   5  -8  265.87   15.90
  -3   5  -8  240.48   15.30
  -3   5  -8  257.37   21.90
  -3   5  -8  273.17   15.70
   3  -5   8  268.77   14.80
   3  -5   8  251.67   16.00
   3  -5   8  260.67   17.20
   3  -5   8  263.57   15.10
  -4   5  -8    1.00   12.10
  -4   5  -8   10.00    7.70
  -4   5  -8    5.20    7.50
  -4   5  -8    8.10    7.90
  -4   5  -8   -3.60    7.30
   4  -5   8   -0.10   12.30
   4  -5   8    5.90    8.60
   4  -5   8    2.00    7.20
   4  -5   8   -3.40    6.90
  -5   5  -8  712.43   23.00
  -5   5  -8  737.83   22.00
  -5   5  -8  685.23   32.40
   5  -5   8  713.53   22.50
   5  -5   8  671.13   38.50
   5  -5   8  700.63   23.50
   5  -5   8  692.33   22.30
  -6   5  -8  290.87   13.40
  -6   5  -8  299.77   14.20
  -6   5  -8  275.97   27.50
  -6   5  -8  272.77   13.50
   6  -5   8  289.37   13.20
   6  -5   8  293.77   12.30
   6  -5   8  315.97   28.50
   6  -5   8  275.37   14.10
   6  -5   8  279.77   14.70
   6   4  -8   12.50   16.20
   6   4  -8   13.10   15.50
   6   4  -8   11.50   14.00
   6   4  -8   26.60   14.40
  -6  -4   8    6.70   14.60
  -6  -4   8   27.90   14.90
  -6  -4   8   55.39   14.40
  -6  -4   8   19.70   15.70
   5   4  -8   16.20   12.70
   5   4  -8   25.20   13.90
   5   4  -8   -9.60   12.90
   5   4  -8    3.10   11.80
  -5  -4   8   17.70   13.70
  -5  -4   8    1.10   14.10
  -5  -4   8    6.30   11.40
  -5  -4   8   -6.50   13.40
  -5  -4   8    6.20    8.80
   4   4  -8  161.88   16.20
   4   4  -8  175.08   15.80
   4   4  -8  173.18   16.80
   4   4  -8  152.58   16.20
  -4  -4   8  156.18   16.20
  -4  -4   8  194.48   18.20
  -4  -4   8  146.19   15.40
  -4  -4   8  168.98   14.00
  -4  -4   8  180.98   17.40
   3   4  -8  507.25   24.60
   3   4  -8  505.45   26.00
   3   4  -8  536.25   25.40
   3   4  -8  540.35   25.60
  -3  -4   8  547.35   23.90
  -3  -4   8  525.85   25.40
  -3  -4   8  526.75   25.00
  -3  -4   8  539.15   25.90
  -3  -4   8  531.85   23.60
   2   4  -8   17.00    8.90
   2   4  -8   17.50   10.60
   2   4  -8   19.80    9.90
   2   4  -8   27.30   10.20
  -2  -4   8   20.30   10.40
  -2  -4   8   24.20   10.10
  -2  -4   8   15.30    8.60
  -2  -4   8   15.10   10.00
  -2  -4   8   31.30    9.80
   1   4  -8  496.35   23.10
   1   4  -8  486.05   22.10
   1   4  -8  543.75   21.90
   1   4  -8  519.65   21.80
  -1  -4   8  553.14   25.40
  -1  -4   8  511.25   21.70
  -1  -4   8  531.55   23.70
  -1  -4   8  544.35   22.80
  -1  -4   8  461.35   22.40
   0   4  -8   13.90    8.70
   0   4  -8    4.90    8.00
   0   4  -8   13.20    8.50
   0   4  -8    8.40    7.40
   0  -4   8    3.70    8.70
   0  -4   8   11.90    8.30
   0  -4   8    3.70    7.80
   0  -4   8   14.40    7.30
  -1   4  -8  352.56   18.00
  -1   4  -8  393.76   17.80
  -1   4  -8  402.46   18.20
  -1   4  -8  391.56   18.40
  -1   4  -8  385.76   21.10
  -1   4  -8  379.86   18.60
   1  -4   8  428.86   24.60
   1  -4   8  421.16   19.00
   1  -4   8  405.56   17.10
   1  -4   8  432.86   20.10
  -2   4  -8   14.30    7.40
  -2   4  -8    7.80    7.00
  -2   4  -8   -6.70    6.80
  -2   4  -8   11.60    6.80
  -2   4  -8    5.80    6.80
   2  -4   8    6.20    8.20
   2  -4   8   12.30    7.40
   2  -4   8   10.40    6.50
   2  -4   8    9.20   12.00
   2  -4   8    1.80    6.30
  -3   4  -8 1264.97   34.30
  -3   4  -8 1300.77   34.70
  -3   4  -8 1265.77   33.90
  -3   4  -8 1282.67   36.00
  -3   4  -8 1228.48   34.10
  -3   4  -8 1245.88   39.90
   3  -4   8 1199.78   33.80
   3  -4   8 1273.47   35.50
   3  -4   8 1221.58   33.40
   3  -4   8 1265.67   43.70
   3  -4   8 1282.07   34.60
  -4   4  -8  678.23   21.30
  -4   4  -8  627.94   21.10
  -4   4  -8  681.83   29.10
  -4   4  -8  674.03   20.90
  -4   4  -8  618.84   20.80
  -4   4  -8  667.63   24.20
   4  -4   8  650.33   20.60
   4  -4   8  640.44   20.80
   4  -4   8  628.14   22.10
   4  -4   8  666.33   21.00
  -5   4  -8    7.30   11.30
  -5   4  -8   10.30    5.70
  -5   4  -8   -1.70    6.20
  -5   4  -8    6.00    6.30
   5  -4   8    5.30    5.90
   5  -4   8    6.10    5.70
   5  -4   8    7.80    6.60
   5  -4   8   16.90    5.90
  -6   4  -8   12.80    6.40
  -6   4  -8   -8.90   12.70
  -6   4  -8    7.40    5.40
  -6   4  -8   16.90    4.10
   6  -4   8   -0.30    5.60
   6  -4   8   14.20    5.80
   6  -4   8    5.00   16.40
   6  -4   8   11.20    4.50
   6  -4   8   10.00    4.40
   7  -4   8   80.19   21.40
   7   3  -8   46.30   18.60
   7   3  -8   83.19   19.70
   7   3  -8   90.69   17.00
   7   3  -8   42.10   15.70
  -7  -3   8   27.00   19.00
  -7  -3   8   74.49   16.00
  -7  -3   8   48.50   18.30
  -7  -3   8   84.49   16.20
   6   3  -8  415.36   26.10
   6   3  -8  372.56   28.10
   6   3  -8  338.67   31.10
  -6  -3   8  442.76   30.70
  -6  -3   8  404.46   26.60
  -6  -3   8  386.46   29.00
  -6  -3   8  374.66   23.60
   5   3  -8  183.78   17.40
   5   3  -8  187.08   16.80
   5   3  -8  186.08   17.80
  -5  -3   8  233.48   20.00
  -5  -3   8  210.18   18.20
  -5  -3   8  197.38   14.90
  -5  -3   8  209.58   18.50
  -5  -3   8  202.08   17.30
   4   3  -8  155.28   14.20
   4   3  -8  149.79   15.70
   4   3  -8  130.49   14.20
  -4  -3   8  134.59   12.20
  -4  -3   8  184.08   16.80
  -4  -3   8  123.49   14.10
  -4  -3   8  127.69   14.00
  -4  -3   8  166.78   16.20
   3   3  -8    5.50    9.60
   3   3  -8   18.70    9.20
   3   3  -8    1.00    9.80
  -3  -3   8   -0.40    8.80
  -3  -3   8    5.70   10.50
  -3  -3   8   19.60   10.30
  -3  -3   8    8.50    9.50
  -3  -3   8    1.30    9.50
   2   3  -8 2557.84   67.49
   2   3  -8 2523.95   79.29
   2   3  -8 2752.12   68.39
   2   3  -8 2651.73   67.99
  -2  -3   8 2680.63   68.09
  -2  -3   8 2697.13   68.39
  -2  -3   8 2726.73   68.99
  -2  -3   8 2754.92   67.89
  -2  -3   8 2617.94   79.89
   1   3  -8 1547.35   45.40
   1   3  -8 1599.74   44.50
   1   3  -8 1639.74   44.60
   1   3  -8 1652.03   44.90
  -1  -3   8 1601.14   44.90
  -1  -3   8 1578.44   43.80
  -1  -3   8 1581.74   45.50
  -1  -3   8 1706.03   46.50
  -1  -3   8 1584.64   44.50
   0   3  -8  503.25   20.80
   0   3  -8  491.75   20.20
   0   3  -8  524.55   21.30
   0   3  -8  457.65   20.20
   0  -3   8  528.45   22.10
   0  -3   8  505.05   24.10
   0  -3   8  498.35   20.80
   0  -3   8  508.35   19.80
   0  -3   8  495.35   20.20
  -1   3  -8  284.87   15.10
  -1   3  -8  292.27   15.80
  -1   3  -8  274.47   15.90
  -1   3  -8  245.98   15.10
   1  -3   8  277.47   14.40
   1  -3   8  271.47   14.80
   1  -3   8  279.27   20.40
   1  -3   8  310.37   16.30
   1  -3   8  273.77   16.60
  -2   3  -8  392.66   16.80
  -2   3  -8  396.66   18.40
  -2   3  -8  406.76   17.10
  -2   3  -8  458.05   17.60
   2  -3   8  421.86   18.50
   2  -3   8  405.86   16.40
   2  -3   8  443.06   23.20
   2  -3   8  454.95   17.80
   2  -3   8  409.86   17.00
  -3   3  -8  313.37   14.10
  -3   3  -8  300.77   14.30
  -3   3  -8  305.17   14.20
  -3   3  -8  295.57   14.10
  -3   3  -8  284.77   16.10
   3  -3   8  292.77   13.40
   3  -3   8  326.77   22.80
   3  -3   8  300.87   15.20
   3  -3   8  286.57   13.80
   3  -3   8  312.17   14.40
  -4   3  -8  115.29   10.30
  -4   3  -8  119.09   10.80
  -4   3  -8  115.39   10.80
  -4   3  -8  122.69   10.20
  -4   3  -8  117.69   11.10
   4  -3   8  121.99   15.80
   4  -3   8  104.29    8.30
   4  -3   8  121.79   11.20
   4  -3   8  124.49    9.70
  -5   3  -8  656.93   24.50
  -5   3  -8  616.34   18.30
  -5   3  -8  641.14   17.90
  -5   3  -8  621.14   17.70
  -5   3  -8  583.84   18.60
   5  -3   8  619.74   19.30
   5  -3   8  600.94   31.20
   5  -3   8  606.94   17.60
   5  -3   8  594.64   17.90
   5  -3   8  607.14   18.70
  -6   3  -8   86.39    6.80
   6  -3   8   94.29    7.80
   6  -3   8   71.99   16.20
   6  -3   8   83.39    7.90
   7  -3   8   13.00   16.70
   8  -3   8  164.68   19.40
   8  -3   8  138.99   23.00
   7   2  -8   -0.90   16.80
   7   2  -8   41.40   15.60
   7   2  -8   12.70   14.50
   7   2  -8    3.50   16.90
  -7  -2   8    8.50   15.50
  -7  -2   8  -22.00   17.60
  -7  -2   8    7.30   14.60
  -7  -2   8    0.10   16.00
   6   2  -8  302.67   27.20
   6   2  -8  311.57   27.60
   6   2  -8  258.57   22.50
  -6  -2   8  266.27   21.80
  -6  -2   8  305.37   22.40
  -6  -2   8  342.17   25.10
  -6  -2   8  316.37   27.80
   5   2  -8   18.50   11.60
   5   2  -8   25.70   12.80
   5   2  -8   21.20   12.90
  -5  -2   8   41.10   12.50
  -5  -2   8   19.50    7.90
  -5  -2   8   27.10   13.20
  -5  -2   8   32.50   12.00
  -5  -2   8   11.50   12.60
   4   2  -8  621.74   26.40
   4   2  -8  657.13   29.10
   4   2  -8  655.53   27.50
  -4  -2   8  622.74   26.40
  -4  -2   8  604.34   26.30
  -4  -2   8  590.44   22.60
  -4  -2   8  631.84   27.30
  -4  -2   8  687.23   29.20
   3   2  -8  734.13   28.80
   3   2  -8  724.73   28.10
   3   2  -8  808.32   29.80
   3   2  -8  753.12   27.60
  -3  -2   8  756.22   29.50
  -3  -2   8  723.53   27.60
  -3  -2   8  777.52   29.10
  -3  -2   8  761.22   26.30
   2   2  -8    5.70    9.20
   2   2  -8   13.30    9.00
   2   2  -8   14.10    8.00
   2   2  -8    9.10    8.70
  -2  -2   8    6.80    8.10
  -2  -2   8   22.20    9.70
  -2  -2   8   10.60    9.30
  -2  -2   8   11.40    8.10
  -2  -2   8    8.10    7.90
   1   2  -8    1.20    7.40
   1   2  -8    5.40    7.30
   1   2  -8   14.90    8.80
   1   2  -8    6.10    7.90
  -1  -2   8   18.80    8.90
  -1  -2   8    2.10    8.60
  -1  -2   8    8.90    7.50
  -1  -2   8    3.20    7.50
  -1  -2   8   12.30    7.60
   0   2  -8  528.95   20.60
   0   2  -8  490.75   20.50
   0   2  -8  534.55   20.70
   0  -2   8  522.15   20.80
   0  -2   8  525.15   21.60
   0  -2   8  513.85   20.20
   0  -2   8  537.65   20.00
   0  -2   8  549.45   23.40
  -1   2  -8  377.96   16.80
  -1   2  -8  362.66   19.60
  -1   2  -8  377.06   17.10
  -1   2  -8  403.66   16.60
   1  -2   8  379.16   16.00
   1  -2   8  409.76   20.80
   1  -2   8  383.46   17.90
   1  -2   8  401.36   17.40
   1  -2   8  399.06   16.90
  -2   2  -8  156.68   13.90
  -2   2  -8  169.08   12.10
  -2   2  -8  156.18   11.70
  -2   2  -8  147.79   15.40
   2  -2   8  153.58   12.90
   2  -2   8  145.09   14.10
   2  -2   8  156.38   11.00
   2  -2   8  149.99   11.40
   2  -2   8  145.89   11.90
  -3   2  -8  388.86   15.10
  -3   2  -8  353.36   15.00
  -3   2  -8  388.26   18.20
  -3   2  -8  401.26   15.20
  -3   2  -8  382.66   15.00
   3  -2   8  371.56   14.40
   3  -2   8  384.36   16.00
   3  -2   8  350.36   14.70
   3  -2   8  413.76   22.50
   3  -2   8  348.17   15.00
  -4   2  -8   -2.80    6.50
  -4   2  -8    6.60    5.80
  -4   2  -8    7.00    5.00
  -4   2  -8   -7.50    4.60
   4  -2   8   19.90    5.10
   4  -2   8   -2.10    5.50
   4  -2   8   -1.00    5.00
   4  -2   8    4.20    9.60
   4  -2   8    1.00    5.20
  -5   2  -8  227.58   10.10
  -5   2  -8  230.28    9.40
  -5   2  -8  227.98   16.20
  -5   2  -8  206.58    9.10
  -5   2  -8  230.68   10.10
   5  -2   8  178.58   17.40
   5  -2   8  229.98   10.30
   5  -2   8  216.98    9.50
   5  -2   8  217.38    9.70
   5  -2   8  225.48   10.80
  -6   2  -8   13.80    8.40
  -6   2  -8    8.70    3.10
   6  -2   8    9.40    3.30
   6  -2   8    2.40   13.10
   6  -2   8   10.00    3.60
   7  -2   8  341.27   28.60
   7  -2   8  329.47   23.10
   8  -2   8   -4.20   17.00
   8  -2   8   -1.90   12.20
   6   1  -8  118.19   17.70
   6   1  -8  145.49   16.20
   6   1  -8  142.79   18.80
   6   1  -8  128.29   16.30
  -6  -1   8  143.39   19.60
  -6  -1   8  141.99   16.40
  -6  -1   8  136.99   15.80
  -6  -1   8  128.89   18.30
   5   1  -8  146.39   15.70
   5   1  -8  146.09   15.10
   5   1  -8  139.29   16.30
   5   1  -8  108.49   15.60
  -5  -1   8  139.99   10.90
  -5  -1   8  120.09   15.70
  -5  -1   8  117.09   14.50
  -5  -1   8  141.69   16.20
  -5  -1   8  121.19   15.30
   4   1  -8  380.06   21.50
   4   1  -8  424.06   24.30
   4   1  -8  388.66   20.50
  -4  -1   8  349.87   22.10
  -4  -1   8  375.46   22.00
  -4  -1   8  333.67   19.80
  -4  -1   8  368.86   17.80
  -4  -1   8  296.17   28.60
   3   1  -8   16.20    8.70
   3   1  -8    0.50    9.60
   3   1  -8    9.20    9.90
  -3  -1   8   14.60    9.10
  -3  -1   8    6.40    7.90
  -3  -1   8   16.60    9.80
  -3  -1   8   13.30    9.80
  -3  -1   8   19.80    9.10
   2   1  -8  120.69   12.50
   2   1  -8  110.99   12.60
   2   1  -8  119.29   11.50
   2   1  -8  137.59   12.40
  -2  -1   8  158.18   13.80
  -2  -1   8  138.19   12.90
  -2  -1   8  124.99   11.70
  -2  -1   8  124.09   11.60
  -2  -1   8  153.08   14.00
   1   1  -8   22.80    8.10
   1   1  -8   14.30    7.70
   1   1  -8   10.00    8.60
  -1  -1   8    8.90    8.20
  -1  -1   8   11.20    6.80
  -1  -1   8    7.40    7.80
  -1  -1   8    4.20    6.70
  -1  -1   8   11.00    8.30
   0   1  -8   39.50    7.80
   0   1  -8   48.50    8.30
   0   1  -8   49.50    8.60
   0  -1   8   52.19    9.70
   0  -1   8   54.29    8.80
   0  -1   8   54.79    8.40
   0  -1   8   50.09    8.90
   0  -1   8   38.40    7.20
  -1   1  -8  468.55   17.50
  -1   1  -8  460.55   18.00
  -1   1  -8  426.56   17.80
   1  -1   8  444.56   18.70
   1  -1   8  470.65   17.00
   1  -1   8  449.06   18.20
   1  -1   8  430.16   17.20
   1  -1   8  444.36   21.10
  -2   1  -8  382.76   15.60
  -2   1  -8  385.96   15.80
   2  -1   8  387.36   15.90
   2  -1   8  383.06   15.40
   2  -1   8  426.06   20.60
   2  -1   8  385.96   16.60
   2  -1   8  406.06   15.20
  -3   1  -8  105.99    9.50
  -3   1  -8  113.79    9.60
  -3   1  -8  105.69    9.70
  -3   1  -8   99.89   10.00
  -3   1  -8  101.99    9.30
   3  -1   8  111.19    8.80
   3  -1   8   96.19    8.80
   3  -1   8  119.89   13.90
   3  -1   8   96.09    8.40
   3  -1   8  106.99    9.40
  -4   1  -8  148.39    9.80
  -4   1  -8  160.38    9.30
  -4   1  -8  154.48   13.70
  -4   1  -8  153.98    9.80
  -4   1  -8  146.69   10.20
   4  -1   8  173.18    9.70
   4  -1   8  131.29   14.10
   4  -1   8  160.88    9.60
   4  -1   8  158.58   10.70
   4  -1   8  157.28    9.20
  -5   1  -8 1598.34   36.60
  -5   1  -8 1602.84   43.60
  -5   1  -8 1564.14   37.00
  -5   1  -8 1487.05   36.80
  -5   1  -8 1597.34   36.30
   5  -1   8 1572.74   37.50
   5  -1   8 1548.55   36.70
   5  -1   8 1523.25   47.50
   5  -1   8 1545.15   36.30
   5  -1   8 1532.25   37.10
  -6   1  -8  142.59   14.20
   6  -1   8  114.19   14.80
   7  -1   8   39.70   13.80
   7  -1   8   34.10   12.20
   8  -1   8   20.00   15.60
   8  -1   8   10.70   12.10
   9  -1   8  145.99   21.80
   9  -1   8  112.69   17.40
   6   0  -8  178.68   19.70
   6   0  -8  163.78   16.80
   6   0  -8  185.28   18.90
   6   0  -8  171.18   17.20
  -6   0   8  154.88   17.30
  -6   0   8  204.48   21.00
  -6   0   8  137.39   18.80
  -6   0   8  138.89   11.90
  -6   0   8  157.78   16.30
   5   0  -8  226.18   20.80
   5   0  -8  296.87   24.80
   5   0  -8  261.37   21.70
   5   0  -8  265.17   21.30
  -5   0   8  260.07   23.60
  -5   0   8  269.27   21.50
  -5   0   8  275.77   19.60
  -5   0   8  249.68   15.20
  -5   0   8  223.08   18.90
   4   0  -8  286.57   20.20
   4   0  -8  293.77   20.30
   4   0  -8  306.37   22.80
   4   0  -8  299.37   19.50
  -4   0   8  265.87   19.60
  -4   0   8  236.78   17.90
  -4   0   8  276.67   21.50
  -4   0   8  270.57   15.70
  -4   0   8  289.87   21.50
   3   0  -8   96.29   11.80
   3   0  -8   91.39   12.60
   3   0  -8   58.89    9.90
   3   0  -8   88.59   12.20
  -3   0   8   84.89   10.00
  -3   0   8   98.39   13.00
  -3   0   8   68.79   10.80
  -3   0   8   84.09   11.00
  -3   0   8   91.09   12.40
   2   0  -8  126.29   12.70
   2   0  -8  123.09   11.80
   2   0  -8   96.99   10.80
   2   0  -8   96.39   10.80
  -2   0   8  111.59   11.20
  -2   0   8  106.49   10.40
  -2   0   8  125.79   11.40
  -2   0   8  113.59   12.40
  -2   0   8  114.09   12.30
   1   0  -8  207.98   15.30
   1   0  -8  207.48   15.10
   1   0  -8  213.88   14.80
  -1   0   8  201.88   14.40
  -1   0   8  174.28   14.20
  -1   0   8  177.28   15.30
  -1   0   8  210.28   13.70
  -1   0   8  209.28   14.30
   0   0  -8 2965.80   70.99
   0   0  -8 2889.01   70.79
   0   0  -8 2958.90   71.09
   0   0  -8 2826.92   70.29
   0   0   8 2914.11   71.59
   0   0   8 2883.41   70.79
   0   0   8 2935.41   71.19
   0   0   8 2828.62   70.09
   0   0   8 2998.90   71.29
  -1   0  -8  362.56   16.00
  -1   0  -8  376.16   16.30
  -1   0  -8  350.76   15.80
  -1   0  -8  370.56   15.50
   1   0   8  358.06   16.40
   1   0   8  336.47   15.50
   1   0   8  368.26   18.30
   1   0   8  367.96   15.20
   1   0   8  377.16   16.30
  -2   0  -8 1749.53   44.60
  -2   0  -8 1805.12   44.60
  -2   0  -8 1818.02   44.70
  -2   0  -8 1669.03   45.90
   2   0   8 1810.92   48.50
   2   0   8 1748.03   45.00
   2   0   8 1764.82   44.50
   2   0   8 1724.93   44.00
   2   0   8 1831.62   45.00
  -3   0  -8 1256.87   33.30
  -3   0  -8 1267.07   33.70
  -3   0  -8 1305.17   33.60
  -3   0  -8 1255.07   37.20
  -3   0  -8 1323.77   33.80
   3   0   8 1319.27   33.90
   3   0   8 1324.37   33.40
   3   0   8 1269.27   33.40
   3   0   8 1305.77   34.10
   3   0   8 1298.47   39.40
  -4   0  -8  255.27   11.40
  -4   0  -8  261.37   11.80
  -4   0  -8  299.37   16.50
  -4   0  -8  254.87   11.60
  -4   0  -8  282.07   11.20
   4   0   8  260.57   11.20
   4   0   8  270.97   11.40
   4   0   8  279.47   11.70
   4   0   8  267.47   12.50
  -5   0  -8  481.05   14.10
  -5   0  -8  485.05   20.90
  -5   0  -8  494.35   14.20
  -5   0  -8  491.25   13.70
  -5   0  -8  470.85   14.50
   5   0   8  469.85   14.40
   5   0   8  486.45   13.70
   5   0   8  464.05   23.70
   5   0   8  461.15   15.20
   5   0   8  457.65   14.20
  -6   0  -8 1012.80   23.70
  -6   0  -8 1037.10   23.80
   6   0   8 1075.19   37.50
   6   0   8 1016.40   23.90
   6   0   8 1027.80   24.30
  -7   0  -8 1889.81   51.69
   7   0   8 1856.41   55.99
   8   0   8   33.90   12.30
   8   0   8   36.60   14.60
   9   0   8   66.09   15.90
   9   0   8   82.99   17.80
   6  -1  -8   57.79   17.00
   6  -1  -8   65.89   14.80
   6  -1  -8  101.19   17.30
   6  -1  -8   45.10   14.20
  -6   1   8   40.00   16.30
  -6   1   8   62.09   15.10
  -6   1   8   87.29   15.70
  -6   1   8   41.30    9.00
  -6   1   8   58.79   17.30
   5  -1  -8   18.20   14.40
   5  -1  -8   10.30   11.10
   5  -1  -8    8.70   13.50
   5  -1  -8   16.00   11.60
  -5   1   8   10.50   11.70
  -5   1   8  -14.60   12.60
  -5   1   8  -14.50   12.80
  -5   1   8   13.60   12.00
   4  -1  -8   15.50   10.10
   4  -1  -8   12.90   10.20
   4  -1  -8    1.40   11.50
   4  -1  -8   26.70   10.90
  -4   1   8   11.60   11.30
  -4   1   8   25.50   11.10
  -4   1   8   17.60   11.20
  -4   1   8   22.00   12.40
   3  -1  -8  215.88   17.20
   3  -1  -8  144.69   22.50
   3  -1  -8  189.98   16.60
   3  -1  -8  208.38   16.30
  -3   1   8  213.88   17.80
  -3   1   8  179.78   16.10
  -3   1   8  192.98   17.20
  -3   1   8  180.08   14.80
   2  -1  -8 1529.85   43.80
   2  -1  -8 1495.25   43.30
   2  -1  -8 1569.94   44.40
   2  -1  -8 1564.64   43.50
  -2   1   8 1509.35   55.19
  -2   1   8 1581.24   44.30
  -2   1   8 1519.05   43.50
  -2   1   8 1559.14   43.20
   1  -1  -8  601.74   23.00
   1  -1  -8  532.55   21.20
   1  -1  -8  542.65   22.40
  -1   1   8  585.44   21.90
  -1   1   8  618.44   23.00
  -1   1   8  552.14   22.70
  -1   1   8  556.54   21.90
   0  -1  -8  195.78   13.90
   0  -1  -8  159.78   12.50
   0  -1  -8  182.88   12.90
   0  -1  -8  189.28   13.90
   0   1   8  170.58   12.90
   0   1   8  160.48   12.30
   0   1   8  171.68   14.30
   0   1   8  149.99   12.70
  -1  -1  -8   15.60    6.40
  -1  -1  -8   17.50    6.20
  -1  -1  -8    4.60    6.20
  -1  -1  -8    4.40    6.50
   1   1   8   21.10    7.00
   1   1   8   32.40    6.80
   1   1   8    1.20    6.10
   1   1   8   11.10    5.90
  -2  -1  -8 1215.78   31.60
  -2  -1  -8 1206.38   31.80
  -2  -1  -8 1068.09   31.10
  -2  -1  -8 1079.19   30.90
   2   1   8 1178.58   31.80
   2   1   8 1122.09   31.20
   2   1   8 1187.68   32.10
   2   1   8 1046.60   30.60
  -3  -1  -8  613.84   19.40
  -3  -1  -8  613.84   23.30
  -3  -1  -8  589.04   18.90
  -3  -1  -8  636.84   19.40
  -3  -1  -8  623.84   19.50
   3   1   8  606.34   18.90
   3   1   8  581.24   19.10
   3   1   8  623.24   19.60
   3   1   8  532.05   22.10
  -4  -1  -8  168.38   10.10
  -4  -1  -8  153.58    9.60
  -4  -1  -8  162.88    9.90
  -4  -1  -8  164.68    9.50
  -4  -1  -8  171.58   13.70
   4   1   8  160.68   10.10
   4   1   8  138.89    9.10
   4   1   8  165.38   15.20
   4   1   8  165.78   10.60
   4   1   8  159.38    9.30
  -5  -1  -8  395.86   13.50
  -5  -1  -8  424.56   13.10
  -5  -1  -8  421.46   19.50
  -5  -1  -8  418.46   13.80
   5   1   8  413.76   14.40
   5   1   8  426.26   13.40
   5   1   8  376.56   16.40
   5   1   8  419.36   13.10
   5   1   8  426.16   22.30
  -6  -1  -8   25.90    8.20
  -6  -1  -8   17.30    3.70
  -6  -1  -8   15.90    2.90
  -6  -1  -8   16.20    4.10
  -6  -1  -8   15.60    2.90
   6   1   8   12.30    3.40
   6   1   8   13.40    4.40
   6   1   8   11.90    3.10
   6   1   8    1.70   10.30
   6   1   8   13.70    3.40
  -7  -1  -8    0.00    7.80
   7   1   8    5.70   11.90
   8   1   8   25.40   13.50
   8   1   8   20.80   11.20
   9   1   8   -0.20   13.00
   9   1   8   15.00   14.50
  10   1   8   92.19   17.80
  10   1   8   79.19   19.20
   6  -2  -8  101.19   17.90
   6  -2  -8  119.19   19.80
   6  -2  -8  134.79   17.80
   6  -2  -8  122.39   18.20
  -6   2   8  124.09   17.50
  -6   2   8  110.49   17.60
  -6   2   8  125.59   19.60
  -6   2   8  119.39   17.50
   5  -2  -8  517.45   26.90
   5  -2  -8  490.45   26.70
   5  -2  -8  504.65   28.20
   5  -2  -8  495.85   30.40
  -5   2   8  493.75   28.00
  -5   2   8  553.94   30.20
  -5   2   8  479.65   27.40
  -5   2   8  501.95   27.00
   4  -2  -8  249.38   19.80
   4  -2  -8  157.88   15.30
   4  -2  -8  180.38   16.50
   4  -2  -8  194.68   17.00
  -4   2   8  198.08   17.80
  -4   2   8  216.38   18.50
  -4   2   8  166.48   16.30
  -4   2   8  239.28   18.70
   3  -2  -8  659.73   26.60
   3  -2  -8  696.53   29.10
   3  -2  -8  646.44   26.40
   3  -2  -8  643.04   26.30
  -3   2   8  640.54   26.30
  -3   2   8  686.73   28.20
   2  -2  -8  617.74   24.30
   2  -2  -8  620.84   25.50
   2  -2  -8  544.55   23.20
   2  -2  -8  572.74   24.20
  -2   2   8  559.84   24.20
  -2   2   8  581.14   23.20
  -2   2   8  511.85   23.10
  -2   2   8  621.84   25.20
   1  -2  -8  533.25   22.50
   1  -2  -8  555.24   23.20
   1  -2  -8  524.75   21.20
   1  -2  -8  592.44   22.90
  -1   2   8  531.45   21.90
  -1   2   8  561.34   23.30
  -1   2   8  564.04   22.70
  -1   2   8  576.34   22.40
   0  -2  -8 2308.97   57.49
   0  -2  -8 2185.18   56.89
   0  -2  -8 2296.87   57.29
   0  -2  -8 2180.38   56.49
   0   2   8 2268.37   57.39
   0   2   8 2280.57   57.09
   0   2   8 2236.68   56.59
   0   2   8 2134.69   56.49
  -1  -2  -8   -2.30    6.20
  -1  -2  -8    5.00    6.40
  -1  -2  -8    6.10    5.90
  -1  -2  -8    6.30    6.10
   1   2   8    2.40    5.80
   1   2   8    2.50    5.80
   1   2   8    5.50    6.60
   1   2   8    1.60    6.50
  -2  -2  -8  809.62   24.30
  -2  -2  -8  797.52   24.50
  -2  -2  -8  782.22   24.70
  -2  -2  -8  818.12   24.80
   2   2   8  821.22   25.00
   2   2   8  805.62   24.60
   2   2   8  801.32   25.00
   2   2   8  811.62   24.00
  -3  -2  -8  206.38   11.60
  -3  -2  -8  198.58   11.30
  -3  -2  -8  203.58   11.70
   3   2   8  206.88   12.00
   3   2   8  201.38   12.30
   3   2   8  209.08   10.80
   3   2   8  203.08   11.00
  -4  -2  -8 1293.67   33.20
  -4  -2  -8 1260.27   33.40
  -4  -2  -8 1329.17   33.40
  -4  -2  -8 1288.07   33.20
  -4  -2  -8 1309.67   37.70
   4   2   8 1283.87   33.60
   4   2   8 1289.77   33.20
   4   2   8 1275.37   33.70
   4   2   8 1297.27   33.00
  -5  -2  -8  155.08    9.00
  -5  -2  -8  162.18   14.50
  -5  -2  -8  146.29    9.10
  -5  -2  -8  162.48    9.50
  -5  -2  -8  160.38    9.70
   5   2   8  153.08    9.90
   5   2   8  151.88    8.80
   5   2   8  152.68    9.80
   5   2   8  157.88    9.10
  -6  -2  -8    7.40    4.50
  -6  -2  -8   11.40    4.30
  -6  -2  -8   11.30    4.10
  -6  -2  -8   15.90    4.30
  -6  -2  -8   21.00    7.80
   6   2   8   19.00    4.30
   6   2   8   16.20    4.30
   6   2   8   21.50   10.10
   6   2   8   12.20    4.70
   6   2   8   14.20    5.00
  -7  -2  -8   60.79    4.70
  -7  -2  -8   64.79    5.40
  -7  -2  -8   85.49   10.60
   7   2   8   61.39    4.60
   7   2   8   68.09    5.10
   7   2   8   38.20   12.10
   8   2   8    2.40   12.10
   9   2   8   40.50   14.70
  10   2   8   -0.70   15.30
  10   2   8  -18.90   13.40
   5  -3  -8  364.56   25.80
   5  -3  -8  460.85   28.10
   5  -3  -8  433.26   29.90
   5  -3  -8  327.97   25.50
  -5   3   8  351.46   24.00
  -5   3   8  384.76   29.40
  -5   3   8  421.76   26.10
  -5   3   8  396.16   29.50
   4  -3  -8  357.16   22.20
   4  -3  -8  410.36   27.40
   4  -3  -8  353.36   23.20
   4  -3  -8  345.87   23.40
  -4   3   8  303.37   21.60
  -4   3   8  400.46   26.10
  -4   3   8  343.07   22.70
  -4   3   8  369.16   24.50
   3  -3  -8   27.80   10.20
   3  -3  -8   25.80   10.30
   3  -3  -8   38.30   12.10
   3  -3  -8    2.10   11.80
  -3   3   8   36.00   10.00
  -3   3   8    2.20    9.30
  -3   3   8    9.50   11.90
  -3   3   8   18.50   11.50
   2  -3  -8   15.10   16.40
   2  -3  -8   11.20    9.80
   2  -3  -8    4.90    9.40
   2  -3  -8   13.50    8.30
  -2   3   8   15.70   10.50
  -2   3   8   23.60    9.30
  -2   3   8   24.30   10.10
  -2   3   8    7.40    9.00
   1  -3  -8  105.89   11.20
   1  -3  -8  144.99   13.60
   1  -3  -8  132.49   11.80
   1  -3  -8  124.29   11.70
  -1   3   8  177.08   15.30
  -1   3   8  170.48   16.00
  -1   3   8  147.09   13.30
  -1   3   8  139.59   12.40
   0  -3  -8    7.90    7.30
   0  -3  -8    8.20    8.20
   0  -3  -8    7.20    6.90
   0  -3  -8    8.50    6.80
   0   3   8    6.40    6.80
   0   3   8   11.90    7.50
   0   3   8   13.30    7.50
  -1  -3  -8   61.59    9.10
  -1  -3  -8   38.20    7.50
  -1  -3  -8   45.80    8.10
   1   3   8   44.30    8.20
   1   3   8   50.39    7.60
   1   3   8   51.69    7.70
  -2  -3  -8   78.19    8.80
  -2  -3  -8   87.29    9.00
  -2  -3  -8   69.89    8.10
  -2  -3  -8   86.79    8.40
   2   3   8   83.09    8.20
   2   3   8   92.79    8.40
   2   3   8   70.19    8.30
  -3  -3  -8  258.07   12.30
  -3  -3  -8  252.47   13.50
  -3  -3  -8  221.78   12.30
  -3  -3  -8  241.68   12.60
   3   3   8  242.18   12.50
   3   3   8  254.37   12.60
   3   3   8  239.18   12.00
  -4  -3  -8 1377.06   35.50
  -4  -3  -8 1378.16   35.00
  -4  -3  -8 1399.76   35.50
  -4  -3  -8 1366.46   35.20
  -4  -3  -8 1316.07   39.30
   4   3   8 1366.76   35.30
   4   3   8 1376.06   35.60
   4   3   8 1372.36   35.30
   4   3   8 1367.46   35.70
  -5  -3  -8  458.85   21.20
  -5  -3  -8  472.05   16.30
  -5  -3  -8  515.95   15.90
  -5  -3  -8  485.05   16.30
   5   3   8  484.45   15.80
   5   3   8  499.35   16.60
   5   3   8  481.35   16.30
   5   3   8  481.85   16.20
  -6  -3  -8  105.39    8.20
  -6  -3  -8   87.69    6.90
  -6  -3  -8  101.69    9.00
  -6  -3  -8   88.59   10.50
   6   3   8   97.29    8.70
   6   3   8  107.69    8.40
  -7  -3  -8    0.20    4.30
  -7  -3  -8    7.30    8.10
  -7  -3  -8    2.40    4.60
  -7  -3  -8    5.50    4.50
  -7  -3  -8   -3.70    4.50
   7   3   8   -0.70    4.50
   7   3   8   12.40   10.80
   7   3   8    0.30    4.40
   7   3   8    2.90    4.70
  -8  -3  -8 1312.27   40.50
  -8  -3  -8 1349.27   30.90
  -8  -3  -8 1318.77   30.70
   8   3   8 1285.77   31.10
   8   3   8 1333.37   43.20
   8   3   8 1310.87   31.10
   9   3   8  815.92   35.00
  10   3   8  146.39   18.80
  10   3   8  153.38   18.50
   5  -4  -8  129.09   17.30
   5  -4  -8  107.89   20.20
   5  -4  -8  146.19   19.40
   5  -4  -8  131.39   18.50
  -5   4   8  112.89   16.60
  -5   4   8   89.49   19.10
  -5   4   8  110.19   18.00
  -5   4   8  131.09   20.10
   4  -4  -8   81.49   14.00
   4  -4  -8   76.59   15.50
   4  -4  -8   65.49   13.90
   4  -4  -8   67.89   16.00
  -4   4   8   87.69   16.00
  -4   4   8   80.49   14.20
  -4   4   8   93.59   14.70
  -4   4   8   56.09   15.20
   3  -4  -8  575.24   26.90
   3  -4  -8  564.64   27.90
   3  -4  -8  565.14   25.90
   3  -4  -8  576.04   27.70
  -3   4   8  565.44   26.60
  -3   4   8  572.94   27.90
  -3   4   8  549.15   25.20
  -3   4   8  590.44   28.00
   2  -4  -8   63.69   11.00
   2  -4  -8   48.80   11.00
   2  -4  -8   59.19   12.00
   2  -4  -8   37.00   11.60
  -2   4   8   51.69   11.40
  -2   4   8   53.59   10.90
  -2   4   8   37.90   11.40
   1  -4  -8   32.30    9.90
   1  -4  -8   17.30    9.40
   1  -4  -8    5.40    8.30
   1  -4  -8   31.60    9.30
  -1   4   8    3.10    7.80
  -1   4   8   45.70   10.20
  -1   4   8   18.20    8.80
  -1   4   8   31.20    9.40
   0  -4  -8  631.04   24.20
   0  -4  -8  690.13   23.90
   0  -4  -8  681.83   24.20
   0  -4  -8  649.14   25.20
   0   4   8  648.14   24.40
   0   4   8  661.53   24.20
   0   4   8  639.44   23.90
  -1  -4  -8  105.69    9.80
  -1  -4  -8  105.19   10.30
  -1  -4  -8  110.19   10.60
  -1  -4  -8  117.49   11.50
   1   4   8  120.99   10.60
   1   4   8   94.69    9.80
   1   4   8   91.59    9.40
   1   4   8  114.09   10.80
  -2  -4  -8  143.69   12.00
  -2  -4  -8  151.98   12.50
  -2  -4  -8  135.39   11.80
  -2  -4  -8  170.78   16.50
   2   4   8  154.48   12.50
   2   4   8  188.58   11.90
   2   4   8  130.89   12.10
   2   4   8  138.79   12.20
  -3  -4  -8    4.20    6.00
  -3  -4  -8    8.50    5.80
  -3  -4  -8   -1.70    6.10
  -3  -4  -8    2.10    6.10
   3   4   8    0.10    5.80
   3   4   8    7.10    5.60
   3   4   8   19.80    6.00
   3   4   8    0.80    5.70
  -4  -4  -8  298.97   13.20
  -4  -4  -8  301.77   13.80
  -4  -4  -8  298.97   20.90
  -4  -4  -8  292.17   17.40
  -4  -4  -8  291.77   16.00
   4   4   8  293.97   13.40
   4   4   8  302.97   13.70
   4   4   8  300.77   13.80
   4   4   8  317.07   14.10
  -5  -4  -8    8.50    6.00
  -5  -4  -8   13.30    5.70
  -5  -4  -8   11.90    7.90
  -5  -4  -8    9.10    5.00
  -5  -4  -8   17.70    5.80
   5   4   8    4.90    5.10
   5   4   8   19.30    6.00
   5   4   8   10.30    5.60
   5   4   8   15.50    5.60
  -6  -4  -8 1147.59   35.20
  -6  -4  -8 1126.29   30.30
  -6  -4  -8 1134.99   29.40
  -6  -4  -8 1126.19   29.50
  -6  -4  -8 1121.09   30.20
   6   4   8 1130.79   30.50
   6   4   8 1121.89   30.00
   6   4   8 1115.69   29.70
   6   4   8 1113.79   29.30
  -7  -4  -8  494.15   16.10
  -7  -4  -8  502.05   22.60
  -7  -4  -8  508.15   15.90
  -7  -4  -8  502.15   16.80
   7   4   8  475.45   16.30
   7   4   8  515.25   16.50
   7   4   8  512.45   16.00
  -8  -4  -8   57.59    5.80
  -8  -4  -8   63.59   11.30
  -8  -4  -8   62.49    6.70
  -8  -4  -8   64.49    6.00
  -8  -4  -8   79.59    6.60
   8   4   8   58.49    6.30
   8   4   8   67.19    7.20
   8   4   8   70.29    6.00
   8   4   8   45.90    5.80
  -9  -4  -8    1.60    4.20
  -9  -4  -8    1.70    4.70
   9   4   8    7.10    4.60
   9   4   8   -5.40   11.60
   9   4   8    4.30    4.90
  10   4   8  324.17   28.20
  10   4   8  303.47   28.10
   4  -5  -8   25.50   14.10
   4  -5  -8   -3.20   12.50
   4  -5  -8   21.20   15.00
   4  -5  -8   -7.00   14.80
  -4   5   8    9.10   13.60
  -4   5   8    0.20   14.50
  -4   5   8   18.60   13.70
  -4   5   8    6.90   15.40
   3  -5  -8  392.06   24.90
   3  -5  -8  380.66   25.90
   3  -5  -8  425.56   26.70
   3  -5  -8  429.16   23.80
  -3   5   8  386.66   26.60
  -3   5   8  413.16   25.10
  -3   5   8  418.46   24.70
   2  -5  -8  147.09   14.30
   2  -5  -8  181.78   15.90
   2  -5  -8  161.78   15.70
   2  -5  -8  179.48   15.80
  -2   5   8  201.58   18.60
  -2   5   8  148.59   14.70
  -2   5   8  164.48   15.20
  -2   5   8  160.98   14.90
   1  -5  -8  291.47   18.50
   1  -5  -8  289.47   18.30
   1  -5  -8  287.47   18.90
   1  -5  -8  263.37   19.70
  -1   5   8  306.77   18.30
  -1   5   8  254.97   19.00
  -1   5   8  284.27   19.20
   0  -5  -8  294.47   19.30
   0  -5  -8  313.67   18.90
   0  -5  -8  311.07   18.80
   0  -5  -8  298.57   17.90
   0   5   8  318.37   18.80
   0   5   8  332.87   17.80
   0   5   8  350.56   18.60
  -1  -5  -8 1692.83   44.80
  -1  -5  -8 1681.13   46.00
  -1  -5  -8 1713.03   46.80
  -1  -5  -8 1642.94   45.40
   1   5   8 1643.54   45.70
   1   5   8 1681.73   46.30
   1   5   8 1651.13   45.00
   1   5   8 1664.93   45.30
  -2  -5  -8 2956.80   73.99
  -2  -5  -8 2974.60   73.39
  -2  -5  -8 3001.10   72.59
   2   5   8 3062.59   73.39
   2   5   8 2969.00   73.39
   2   5   8 2957.50   73.79
   2   5   8 3076.29   72.99
  -3  -5  -8  281.87   15.20
  -3  -5  -8  302.17   15.50
  -3  -5  -8  287.37   16.40
  -3  -5  -8  277.97   14.20
   3   5   8  305.67   15.60
   3   5   8  306.37   15.10
   3   5   8  295.37   15.70
   3   5   8  275.57   15.10
  -4  -5  -8 1393.56   36.20
  -4  -5  -8 1303.37   35.40
  -4  -5  -8 1290.17   39.10
  -4  -5  -8 1319.07   36.80
  -4  -5  -8 1284.97   36.40
   4   5   8 1345.47   36.10
   4   5   8 1328.27   36.60
   4   5   8 1314.67   36.30
   4   5   8 1366.76   36.00
  -5  -5  -8  346.67   15.50
  -5  -5  -8  352.36   15.10
  -5  -5  -8  351.76   19.20
  -5  -5  -8  335.87   14.90
   5   5   8  338.07   15.90
   5   5   8  348.47   14.90
   5   5   8  329.27   15.60
   5   5   8  356.56   15.50
  -6  -5  -8 1532.85   37.70
  -6  -5  -8 1479.75   37.40
  -6  -5  -8 1462.25   38.70
  -6  -5  -8 1492.25   42.40
  -6  -5  -8 1460.75   38.60
   6   5   8 1485.05   37.70
   6   5   8 1469.95   38.40
   6   5   8 1292.17   40.90
   6   5   8 1453.25   38.00
  -7  -5  -8   26.00    6.30
  -7  -5  -8   24.80    7.10
  -7  -5  -8   23.40    5.90
  -7  -5  -8   28.30    9.30
  -7  -5  -8   17.90    7.30
   7   5   8   29.30    7.10
   7   5   8   30.20    6.60
   7   5   8   22.90    6.50
   7   5   8   39.40    7.10
  -8  -5  -8  525.75   24.40
  -8  -5  -8  490.15   17.90
  -8  -5  -8  507.85   18.30
  -8  -5  -8  489.65   16.70
  -8  -5  -8  496.25   16.90
   8   5   8  477.45   17.40
   8   5   8  476.95   18.00
   8   5   8  507.45   16.60
   8   5   8  467.25   17.10
  -9  -5  -8  138.39   11.20
  -9  -5  -8  123.29    9.70
  -9  -5  -8  139.69   10.80
  -9  -5  -8  134.79   10.30
   9   5   8  134.69   11.30
   9   5   8  127.19   10.80
   9   5   8  128.69   10.10
   9   5   8  161.58   10.20
 -10  -5  -8   22.30    6.30
 -10  -5  -8   33.40    4.70
 -10  -5  -8   21.10    6.60
 -10  -5  -8   33.30    6.00
  10   5   8   20.40   15.10
  10   5   8   31.20    5.30
  10   5   8   29.50   14.70
  10   5   8   23.30    5.20
  10   5   8   22.70    5.60
  10   5   8   25.60    6.80
   3  -6  -8  410.16   26.90
   3  -6  -8  429.36   42.90
   3  -6  -8  437.06   27.40
   3  -6  -8  423.66   27.90
  -3   6   8  436.06   26.50
  -3   6   8  440.16   29.30
  -3   6   8  452.35   28.30
  -3   6   8  413.16   26.60
   2  -6  -8   83.79   14.10
   2  -6  -8   89.39   13.70
   2  -6  -8  104.09   15.10
  -2   6   8   91.79   15.00
  -2   6   8   92.89   14.30
  -2   6   8  102.39   15.40
   1  -6  -8  360.26   20.90
   1  -6  -8  380.16   22.20
   1  -6  -8  388.76   22.90
  -1   6   8  382.56   22.50
  -1   6   8  399.86   22.20
  -1   6   8  359.06   21.50
  -1   6   8  375.06   22.80
   0  -6  -8  182.48   15.10
   0  -6  -8  186.48   16.30
   0  -6  -8  156.18   14.00
   0  -6  -8  177.28   15.90
   0   6   8  185.28   16.20
   0   6   8  189.88   17.20
   0   6   8  199.48   17.40
   0   6   8  210.18   17.60
  -1  -6  -8  179.68   16.70
  -1  -6  -8  182.78   15.70
  -1  -6  -8  185.28   15.20
  -1  -6  -8  226.58   17.90
   1   6   8  194.78   17.30
   1   6   8  203.58   16.70
   1   6   8  194.18   15.60
   1   6   8  200.28   15.70
  -2  -6  -8  120.19   11.80
  -2  -6  -8  127.59   11.90
  -2  -6  -8  117.39   10.80
  -2  -6  -8  115.69   12.40
   2   6   8  126.29   12.30
   2   6   8  141.49   12.20
   2   6   8  124.59   12.70
   2   6   8  136.49   12.50
  -3  -6  -8  495.95   21.90
  -3  -6  -8  513.05   21.00
  -3  -6  -8  491.45   19.40
  -3  -6  -8  519.45   20.90
   3   6   8  515.75   20.10
   3   6   8  520.45   21.40
   3   6   8  493.15   20.60
  -4  -6  -8  831.22   27.20
  -4  -6  -8  867.61   27.90
  -4  -6  -8  857.71   26.60
  -4  -6  -8  837.42   29.40
  -4  -6  -8  845.92   28.50
   4   6   8  905.31   27.30
   4   6   8  861.71   27.40
   4   6   8  870.61   28.40
  -5  -6  -8  173.28   14.10
  -5  -6  -8  168.98   12.60
  -5  -6  -8  174.38   14.20
  -5  -6  -8  190.58   13.50
  -5  -6  -8  193.08   15.40
   5   6   8  153.88   13.60
   5   6   8  188.88   13.70
   5   6   8  171.58   13.20
   5   6   8  160.48   15.10
  -6  -6  -8  104.79   11.60
  -6  -6  -8   96.09   10.50
  -6  -6  -8   93.89    9.30
   6   6   8   77.49    9.20
   6   6   8   94.69    9.60
   6   6   8   93.39    9.00
   6   6   8   83.39   15.00
  -7  -6  -8   93.19   10.20
  -7  -6  -8   99.09   11.60
  -7  -6  -8   94.29    8.80
  -7  -6  -8  102.39    9.40
  -7  -6  -8   89.19   10.00
   7   6   8   94.39    9.90
   7   6   8   99.69    9.20
   7   6   8  103.99    9.70
  -8  -6  -8   61.39    8.40
  -8  -6  -8   43.30    8.90
  -8  -6  -8   54.59   10.50
  -8  -6  -8   56.09    8.90
  -8  -6  -8   26.60    8.30
   8   6   8   46.20    8.30
   8   6   8   51.99    8.40
   8   6   8   42.10    7.60
   8   6   8   36.90   10.10
  -9  -6  -8   86.79    9.10
  -9  -6  -8   74.69   10.10
  -9  -6  -8   82.49    9.40
   9   6   8   75.59    8.40
   9   6   8   75.29    9.30
   9   6   8   74.39    9.10
   9   6   8   88.29    9.70
 -10  -6  -8  155.78   10.80
 -10  -6  -8  153.68   12.60
 -10  -6  -8  138.39   11.80
  10   6   8  145.39   10.80
  10   6   8  155.08   13.20
  10   6   8  146.19   19.70
  10   6   8  133.69   11.80
  10   6   8  156.38   11.40
   2  -7  -8  204.48   19.10
   2  -7  -8  158.98   17.60
   2  -7  -8  184.98   18.10
   2  -7  -8  157.38   17.50
  -2   7   8  175.58   18.00
  -2   7   8  179.08   18.80
  -2   7   8  144.69   16.60
  -2   7   8  155.88   18.30
   1  -7  -8 1387.16   44.40
   1  -7  -8 1486.95   45.60
   1  -7  -8 1396.06   44.00
   1  -7  -8 1444.66   44.60
  -1   7   8 1353.76   43.90
  -1   7   8 1365.66   43.70
  -1   7   8 1403.56   43.50
  -1   7   8 1412.46   45.80
   0  -7  -8   60.59   12.50
   0  -7  -8   96.19   12.60
   0  -7  -8   66.19   12.90
   0  -7  -8   82.59   13.60
   0   7   8   93.09   12.70
   0   7   8   85.19   12.90
   0   7   8   77.79   13.90
   0   7   8  101.19   13.50
  -1  -7  -8  424.76   22.70
  -1  -7  -8  449.36   21.50
  -1  -7  -8  432.46   22.60
  -1  -7  -8  463.75   23.50
   1   7   8  468.85   22.80
   1   7   8  440.46   21.80
   1   7   8  425.86   21.90
   1   7   8  457.45   24.00
  -2  -7  -8   81.99   11.40
  -2  -7  -8   80.99   12.50
  -2  -7  -8   91.69   11.20
  -2  -7  -8   89.59   12.00
   2   7   8   75.59   11.20
   2   7   8   73.69   10.80
   2   7   8   76.39   10.80
   2   7   8  100.19   12.60
  -3  -7  -8  192.18   16.80
  -3  -7  -8  159.08   13.80
  -3  -7  -8  187.38   15.60
   3   7   8  172.88   13.60
   3   7   8  189.58   16.00
   3   7   8  180.08   14.70
  -4  -7  -8   16.70    9.30
  -4  -7  -8   59.49    9.80
  -4  -7  -8   34.30   10.10
  -4  -7  -8   55.99    9.40
   4   7   8   32.00    9.20
   4   7   8   31.60    8.70
   4   7   8   34.50    8.80
   4   7   8   39.80    8.90
  -5  -7  -8  193.38   15.80
  -5  -7  -8  193.28   17.10
  -5  -7  -8  223.38   17.30
  -5  -7  -8  218.38   15.80
  -5  -7  -8  202.88   14.50
   5   7   8  268.07   16.30
   5   7   8  200.78   16.10
   5   7   8  189.78   15.10
   5   7   8  219.38   15.20
  -6  -7  -8  220.48   16.00
  -6  -7  -8  242.68   17.40
  -6  -7  -8  232.18   17.80
  -6  -7  -8  217.98   14.50
   6   7   8  219.38   16.30
   6   7   8  219.78   15.80
   6   7   8  228.18   15.20
   6   7   8  214.38   16.10
  -7  -7  -8  337.17   18.70
  -7  -7  -8  370.26   17.20
  -7  -7  -8  353.46   20.30
   7   7   8  386.96   18.40
   7   7   8  345.67   18.50
   7   7   8  324.57   17.10
   7   7   8  349.37   18.60
  -8  -7  -8  397.26   20.10
  -8  -7  -8  427.06   18.80
  -8  -7  -8  416.36   22.50
  -8  -7  -8  421.96   20.10
   8   7   8  377.86   19.50
   8   7   8  400.16   19.10
   8   7   8  414.46   19.30
   8   7   8  438.66   18.60
  -9  -7  -8   10.30    9.40
  -9  -7  -8    7.20    8.90
  -9  -7  -8    7.80    8.30
  -9  -7  -8    1.60    9.10
   9   7   8    5.60    8.40
   9   7   8   -0.20    8.00
   9   7   8    7.20    8.20
   9   7   8    5.30    8.40
 -10  -7  -8    1.30    9.40
 -10  -7  -8   22.60    8.70
 -10  -7  -8   14.70    9.70
  10   7   8   21.50    9.60
  10   7   8   14.60    9.20
  10   7   8   16.30    8.70
  10   7   8   27.60    9.30
   1  -8  -8   10.70   13.60
   1  -8  -8    8.30   13.40
   1  -8  -8   17.30   13.50
   1  -8  -8   16.90   14.40
  -1   8   8   15.50   14.40
  -1   8   8    5.60   13.00
  -1   8   8   20.00   13.70
  -1   8   8   27.00   14.80
   0  -8  -8  151.48   16.50
   0  -8  -8  136.69   15.70
   0  -8  -8  124.79   25.10
   0  -8  -8  136.99   16.00
   0   8   8  127.79   16.00
   0   8   8  106.19   16.90
   0   8   8  115.29   15.10
   0   8   8  134.19   14.80
  -1  -8  -8   22.10   11.60
  -1  -8  -8   32.50   12.30
  -1  -8  -8   17.20   11.40
  -1  -8  -8   40.40   12.50
   1   8   8   14.90   11.50
   1   8   8   31.50   12.20
   1   8   8   10.30   13.20
  -2  -8  -8   12.80   10.90
  -2  -8  -8   30.00   11.20
  -2  -8  -8   25.30   10.70
  -2  -8  -8    8.50   10.00
   2   8   8   12.50   10.00
   2   8   8   30.40   11.70
   2   8   8   10.60   10.40
   2   8   8   15.40   10.30
  -3  -8  -8  593.64   26.80
  -3  -8  -8  563.44   24.50
  -3  -8  -8  557.54   25.40
  -3  -8  -8  609.84   25.80
   3   8   8  555.14   24.70
   3   8   8  591.14   26.40
   3   8   8  597.84   24.30
   3   8   8  594.04   25.40
  -4  -8  -8  291.97   20.10
  -4  -8  -8  281.97   19.80
  -4  -8  -8  326.37   19.80
  -4  -8  -8  307.77   21.50
   4   8   8  301.97   19.30
   4   8   8  291.27   19.30
   4   8   8  279.47   18.50
   4   8   8  298.27   20.70
  -5  -8  -8  342.57   22.10
  -5  -8  -8  387.06   20.50
  -5  -8  -8  401.16   21.20
  -5  -8  -8  372.26   19.10
   5   8   8  356.76   19.30
   5   8   8  405.36   20.80
   5   8   8  433.36   21.10
   5   8   8  393.66   21.30
  -6  -8  -8  299.57   23.00
  -6  -8  -8  358.66   19.30
  -6  -8  -8  337.27   20.00
  -6  -8  -8  323.47   20.80
   6   8   8  335.97   19.30
   6   8   8  338.87   19.40
   6   8   8  315.47   18.50
   6   8   8  311.97   19.60
  -7  -8  -8  289.37   19.90
  -7  -8  -8  289.07   20.80
  -7  -8  -8  327.17   19.90
   7   8   8  329.57   19.80
   7   8   8  311.37   17.80
   7   8   8  322.37   19.00
   7   8   8  339.07   19.50
  -8  -8  -8  301.77   21.30
  -8  -8  -8  267.67   19.50
  -8  -8  -8  304.47   19.70
   8   8   8  308.97   19.70
   8   8   8  323.17   19.00
   8   8   8  300.37   17.90
   8   8   8  294.27   19.20
  -9  -8  -8  277.97   21.00
  -9  -8  -8  311.37   19.00
  -9  -8  -8  271.57   17.70
  -9  -8  -8  291.97   20.10
   9   8   8  276.87   19.20
   9   8   8  297.97   19.30
   9   8   8  275.47   18.80
   9   8   8  252.57   17.80
 -10  -8  -8  619.94   25.10
 -10  -8  -8  637.44   26.30
 -10  -8  -8  635.54   27.20
 -10  -8  -8  582.24   23.70
  10   8   8  651.03   24.40
  10   8   8  621.04   25.40
  10   8   8  629.34   25.50
  10   8   8  639.84   26.20
   0  -9  -8   30.40   14.40
   0  -9  -8   61.69   15.90
   0  -9  -8   11.20   13.70
   0  -9  -8   74.99   16.80
   0   9   8   58.69   15.70
   0   9   8   71.69   16.60
   0   9   8   45.90   14.80
   0   9   8   50.79   15.10
  -1  -9  -8  216.68   18.80
  -1  -9  -8  200.18   18.40
  -1  -9  -8  176.88   18.50
   1   9   8  163.18   17.00
   1   9   8  212.28   18.60
   1   9   8  177.28   18.40
   1   9   8  188.78   18.60
  -2  -9  -8   68.79   14.30
  -2  -9  -8   63.39   13.30
  -2  -9  -8   71.69   14.00
  -2  -9  -8   81.69   14.90
   2   9   8   88.39   15.30
   2   9   8   67.79   14.00
   2   9   8   68.69   15.50
   2   9   8   58.39   13.10
  -3  -9  -8   19.80   12.30
  -3  -9  -8   13.40   11.90
  -3  -9  -8   26.50   11.90
  -3  -9  -8   26.80   11.60
   3   9   8   31.40   12.20
   3   9   8   18.60   11.10
   3   9   8   27.40   10.90
   3   9   8   40.70   12.10
  -4  -9  -8   53.99   11.60
  -4  -9  -8   68.09   13.70
  -4  -9  -8   68.29   12.50
   4   9   8   60.79   12.40
   4   9   8   58.39   12.10
   4   9   8   68.29   12.40
   4   9   8   80.49   14.10
  -5  -9  -8  806.42   30.50
  -5  -9  -8  824.22   30.80
  -5  -9  -8  795.22   33.00
  -5  -9  -8  868.01   31.40
   5   9   8  839.62   30.90
   5   9   8  857.51   31.30
   5   9   8  830.32   30.00
   5   9   8  869.31   32.20
  -6  -9  -8  317.17   20.60
  -6  -9  -8  300.77   21.20
  -6  -9  -8  315.07   23.60
  -6  -9  -8  320.07   20.50
   6   9   8  315.27   21.20
   6   9   8  305.27   21.00
   6   9   8  324.77   21.50
   6   9   8  330.47   20.10
  -7  -9  -8   53.19   12.80
  -7  -9  -8   61.29   11.80
  -7  -9  -8   70.59   12.00
  -7  -9  -8   80.79   12.20
  -7  -9  -8   76.99   11.80
   7   9   8   54.49   11.70
   7   9   8   52.39   12.40
   7   9   8   75.49   12.60
   7   9   8   57.19   11.90
  -8  -9  -8   27.10   12.40
  -8  -9  -8   19.40   10.10
  -8  -9  -8   16.00   12.20
  -8  -9  -8   12.30   10.80
  -8  -9  -8   16.80   11.40
   8   9   8   11.40   11.10
   8   9   8   25.90   11.40
   8   9   8   15.50   10.50
   8   9   8    9.90   11.00
  -9  -9  -8  270.47   21.90
  -9  -9  -8  272.87   20.10
  -9  -9  -8  302.17   21.20
  -9  -9  -8  239.68   21.60
   9   9   8  312.17   20.10
   9   9   8  319.47   21.80
   9   9   8  268.77   22.40
   9   9   8  307.47   21.70
  -2 -10  -8   19.00   14.80
  -2 -10  -8   30.00   14.20
  -2 -10  -8   26.20   14.00
  -2 -10  -8   45.30   20.10
   2  10   8   26.40   14.80
   2  10   8   18.90   14.20
   2  10   8   11.60   15.30
   2  10   8   48.60   15.30
  -3 -10  -8  873.31   34.70
  -3 -10  -8  894.71   35.60
  -3 -10  -8  892.01   36.40
  -3 -10  -8  873.91   36.10
  -3 -10  -8  916.91   35.00
   3  10   8  931.81   35.20
   3  10   8  974.30   35.40
   3  10   8  882.61   36.80
   3  10   8  826.72   34.90
  -4 -10  -8  158.78   16.90
  -4 -10  -8  132.59   14.60
  -4 -10  -8  127.79   15.80
  -4 -10  -8  128.49   15.90
  -4 -10  -8  108.99   15.60
   4  10   8  150.98   16.10
   4  10   8  119.79   15.70
   4  10   8  118.69   15.60
   4  10   8  126.69   16.30
  -5 -10  -8  339.47   24.00
  -5 -10  -8  337.87   23.70
  -5 -10  -8  321.77   21.70
  -5 -10  -8  338.87   25.70
  -5 -10  -8  366.16   25.50
   5  10   8  363.36   23.80
   5  10   8  327.07   23.50
   5  10   8  352.96   25.50
   5  10   8  357.86   24.00
  -6 -10  -8    1.40   22.50
  -6 -10  -8   25.00   12.20
  -6 -10  -8    9.30   13.40
  -6 -10  -8    5.70   12.00
   6  10   8    8.50   11.80
   6  10   8    4.80   11.60
   6  10   8   22.20   12.20
   6  10   8   42.70   11.90
  -7 -10  -8  741.33   30.00
  -7 -10  -8  720.13   32.70
  -7 -10  -8  760.82   29.20
  -7 -10  -8  745.33   30.90
  -7 -10  -8  760.72   30.70
   7  10   8  681.13   29.90
   7  10   8  678.43   31.20
   7  10   8  699.33   32.70
   7  10   8  762.22   31.50
  -8 -10  -8  477.55   27.50
  -8 -10  -8  460.55   25.20
  -8 -10  -8  437.66   25.20
  -8 -10  -8  442.46   24.10
  -8 -10  -8  398.66   25.10
   8  10   8  423.56   25.60
   8  10   8  412.16   26.30
   8  10   8  461.25   24.50
   8  10   8  427.96   26.30
   2   8  -9   20.70   16.90
   2   8  -9   17.60   18.20
   2   8  -9    6.20   16.50
   2   8  -9   18.70   15.20
  -2  -8   9    9.30   14.20
  -2  -8   9   14.80   14.80
   1   8  -9   88.69   16.60
   1   8  -9   51.49   17.00
   1   8  -9  100.19   19.10
   1   8  -9   85.39   11.90
   1   8  -9   87.19   18.20
   1   8  -9   74.39   16.20
  -1  -8   9   71.49   16.30
  -1  -8   9   85.79   15.20
  -1  -8   9   95.39   24.50
  -1  -8   9   85.49   17.90
  -1  -8   9   62.29   18.60
   0   8  -9   60.39   16.30
   0   8  -9   51.49   10.30
   0   8  -9   81.69   19.80
   0   8  -9   54.69   15.10
   0   8  -9   17.00   16.10
   0   8  -9   42.50   15.70
   0  -8   9   34.70   13.50
   0  -8   9   50.89   22.20
   0  -8   9   76.29   18.70
   0  -8   9   73.09   14.80
   4   7  -9  766.32   37.90
   4   7  -9  711.53   39.90
   4   7  -9  804.22   36.50
   4   7  -9  750.62   36.20
  -4  -7   9  768.42   36.10
  -4  -7   9  797.52   40.50
  -4  -7   9  827.42   35.50
  -4  -7   9  796.32   38.50
   3   7  -9  447.76   32.20
   3   7  -9  490.95   32.30
   3   7  -9  415.86   26.70
   3   7  -9  481.05   28.50
  -3  -7   9  401.56   30.00
  -3  -7   9  441.36   27.80
  -3  -7   9  468.75   32.90
  -3  -7   9  449.56   33.30
  -3  -7   9  444.26   26.10
   2   7  -9   60.79   15.20
   2   7  -9   80.49   17.20
   2   7  -9   58.59   15.70
   2   7  -9   36.50   13.90
   2   7  -9   68.79   15.60
  -2  -7   9   29.60   12.40
  -2  -7   9   65.69   19.10
  -2  -7   9   45.90   17.30
  -2  -7   9   96.49   15.50
  -2  -7   9   46.50   16.30
   1   7  -9  117.39   13.40
   1   7  -9  147.49   17.80
   1   7  -9  138.79   18.00
   1   7  -9  170.48   16.70
   1   7  -9  150.48   18.20
   1   7  -9  165.48   17.70
  -1  -7   9  140.89   18.90
  -1  -7   9  138.19   16.00
  -1  -7   9  159.78   16.80
  -1  -7   9  170.98   18.70
   0   7  -9  217.28   18.60
   0   7  -9  222.78   19.90
   0   7  -9  211.58   20.50
   0   7  -9  226.18   18.80
   0   7  -9  179.68   16.70
   0   7  -9  163.08   18.20
   0  -7   9  185.08   16.50
   0  -7   9  209.38   18.70
   0  -7   9  203.18   19.70
   0  -7   9  181.68   25.60
   0  -7   9  190.08   16.90
  -1   7  -9  339.97   29.00
  -1   7  -9  362.66   25.10
  -1   7  -9  364.96   24.50
  -1   7  -9  389.56   22.80
  -1   7  -9  384.06   19.10
  -1   7  -9  382.16   24.80
   1  -7   9  359.46   26.70
   1  -7   9  347.27   21.70
   1  -7   9  344.97   22.70
   1  -7   9  344.67   24.60
   1  -7   9  379.26   37.60
  -2   7  -9   19.10   16.40
  -2   7  -9   16.50   12.80
  -2   7  -9   15.70   11.20
  -2   7  -9   25.80   12.30
  -2   7  -9   38.50    9.30
  -2   7  -9   21.60   12.50
   2  -7   9   18.50   14.10
   2  -7   9   -9.90   20.70
   2  -7   9   46.20   13.30
   2  -7   9    9.80   10.80
   2  -7   9   11.30   10.90
  -3   7  -9  144.19   14.70
  -3   7  -9  116.79   14.90
  -3   7  -9  166.98   21.70
  -3   7  -9  112.79   14.30
  -3   7  -9  130.59   15.40
   3  -7   9  139.79   26.30
   3  -7   9  129.99   13.90
   3  -7   9  132.19   14.10
   3  -7   9  131.39   15.00
   3  -7   9  124.19   16.30
   5   6  -9   58.69   20.10
   5   6  -9   66.39   18.40
   5   6  -9   92.79   20.30
   5   6  -9   77.19   17.40
  -5  -6   9   72.39   18.90
  -5  -6   9   51.59   16.70
  -5  -6   9   30.70   20.20
  -5  -6   9   94.59   18.30
   4   6  -9   99.79   17.10
   4   6  -9   78.99   19.10
   4   6  -9  106.49   17.10
   4   6  -9  108.89   18.90
  -4  -6   9   93.29   16.00
  -4  -6   9  112.59   19.30
  -4  -6   9  126.09   19.80
  -4  -6   9   74.89   15.40
  -4  -6   9   94.19   18.60
   3   6  -9   23.80   15.30
   3   6  -9   24.00   13.10
   3   6  -9   16.00   14.80
   3   6  -9   36.90   13.80
  -3  -6   9   22.50   12.30
  -3  -6   9   44.90   15.90
  -3  -6   9   12.60   14.80
  -3  -6   9   36.10   13.10
  -3  -6   9   27.10   14.60
   2   6  -9  180.78   18.40
   2   6  -9  212.18   18.10
  -2  -6   9  243.28   21.10
  -2  -6   9  214.28   19.60
  -2  -6   9  207.88   21.90
  -2  -6   9  175.58   18.50
  -2  -6   9  202.18   17.30
   1   6  -9  233.88   20.80
   1   6  -9  306.67   24.50
   1   6  -9  275.57   23.20
   1   6  -9  287.97   22.70
  -1  -6   9  253.77   20.60
  -1  -6   9  268.27   21.40
  -1  -6   9  313.27   24.30
  -1  -6   9  312.17   29.00
  -1  -6   9  260.07   19.10
   0   6  -9   21.20   12.20
   0   6  -9   16.50    9.50
   0   6  -9   55.19   12.10
   0   6  -9   40.20   16.10
   0   6  -9   17.70   10.40
   0   6  -9   39.20   13.30
   0  -6   9   22.50   11.10
   0  -6   9   41.90   13.10
   0  -6   9   22.10   10.30
   0  -6   9   45.40   13.30
   0  -6   9   31.90   17.30
  -1   6  -9   21.70   11.60
  -1   6  -9   18.60    9.10
  -1   6  -9   12.60   12.80
  -1   6  -9    0.60   10.90
   1  -6   9    5.00    9.50
   1  -6   9   29.60   12.70
   1  -6   9   18.50   11.90
   1  -6   9   24.80    9.90
  -2   6  -9   55.29   15.40
  -2   6  -9   88.39   11.90
  -2   6  -9   62.89   10.30
  -2   6  -9   54.89   11.30
   2  -6   9   78.19   11.30
   2  -6   9   87.69   11.30
   2  -6   9   86.09   21.20
   2  -6   9   72.69   12.80
   2  -6   9   85.59   14.00
  -3   6  -9   11.90   14.60
  -3   6  -9    5.50   10.00
  -3   6  -9    6.20   10.00
  -3   6  -9   12.60    9.90
  -3   6  -9  -17.00    8.40
   3  -6   9   -2.20   10.80
   3  -6   9   17.30    9.50
   3  -6   9    9.10   10.40
   3  -6   9    5.50    8.90
   3  -6   9   -9.10   19.30
  -4   6  -9   22.20   10.00
  -4   6  -9   49.99   10.60
  -4   6  -9   18.70   17.00
  -4   6  -9   38.50   10.80
   4  -6   9   33.30    9.30
   4  -6   9   27.40   11.40
   4  -6   9   33.20   11.00
   4  -6   9   47.20   10.20
   4  -6   9   60.69   23.70
   5   5  -9   27.00   15.70
   5   5  -9  -15.40   17.70
   5   5  -9    1.90   15.10
   5   5  -9    3.70   16.80
  -5  -5   9   33.30   18.30
  -5  -5   9   26.10   15.10
  -5  -5   9   38.20   18.30
  -5  -5   9   20.30   15.20
   4   5  -9  314.27   29.40
   4   5  -9  316.57   25.20
   4   5  -9  295.07   26.40
   4   5  -9  267.17   25.20
  -4  -5   9  294.47   23.50
  -4  -5   9  368.86   28.50
  -4  -5   9  304.67   25.10
  -4  -5   9  340.97   27.80
  -4  -5   9  400.76   24.40
   3   5  -9   30.70   12.70
   3   5  -9   42.20   14.20
   3   5  -9   49.60   13.90
   3   5  -9   19.80   14.70
  -3  -5   9   48.20   13.20
  -3  -5   9   42.30   12.40
  -3  -5   9   64.89   15.20
  -3  -5   9   42.20   14.00
  -3  -5   9   54.59   15.80
   2   5  -9  306.37   22.90
   2   5  -9  319.07   24.80
   2   5  -9  320.37   21.30
  -2  -5   9  325.97   25.20
  -2  -5   9  339.47   22.00
  -2  -5   9  318.87   26.00
  -2  -5   9  300.27   24.20
  -2  -5   9  303.07   20.20
   1   5  -9    0.80    9.20
   1   5  -9    2.60   10.90
   1   5  -9   14.20   11.90
  -1  -5   9   -0.20   11.80
  -1  -5   9   -9.60    9.30
  -1  -5   9   -3.40    9.30
  -1  -5   9  -20.30   12.30
  -1  -5   9   -7.90   10.70
   0   5  -9   14.20   11.00
   0   5  -9   13.30   10.50
   0   5  -9   39.80   13.30
   0   5  -9   30.80   10.30
   0  -5   9   29.90   14.90
   0  -5   9   26.90    9.70
   0  -5   9   13.80   11.50
   0  -5   9   20.00   12.10
   0  -5   9   22.30    9.20
  -1   5  -9  126.69   12.50
  -1   5  -9  116.39   12.80
  -1   5  -9   95.99   14.30
  -1   5  -9  109.29   13.50
  -1   5  -9  102.39   12.00
   1  -5   9  118.99   14.20
   1  -5   9  113.49   11.80
   1  -5   9  111.89   18.50
   1  -5   9  136.19   14.00
   1  -5   9  114.89   11.40
  -2   5  -9  397.16   19.70
  -2   5  -9  315.27   18.20
  -2   5  -9  373.86   19.70
  -2   5  -9  378.66   20.10
  -2   5  -9  357.66   25.00
   2  -5   9  372.76   18.60
   2  -5   9  382.56   20.50
   2  -5   9  393.16   18.30
   2  -5   9  377.66   22.70
  -3   5  -9  223.68   16.60
  -3   5  -9  221.78   16.20
  -3   5  -9  180.58   17.50
  -3   5  -9  233.08   17.20
  -3   5  -9  259.47   17.00
   3  -5   9  266.67   17.40
   3  -5   9  243.38   15.80
   3  -5   9  230.98   19.00
   3  -5   9  223.58   15.40
  -4   5  -9    5.70   10.50
  -4   5  -9    7.60    8.70
  -4   5  -9    6.20    8.70
  -4   5  -9   -4.10    8.90
  -4   5  -9   -6.10   13.70
  -4   5  -9   10.50    8.80
   4  -5   9   18.90    8.00
   4  -5   9    7.70    8.70
   4  -5   9   15.40   10.00
   4  -5   9   15.10    7.90
  -5   5  -9    0.90   14.30
  -5   5  -9    6.30    8.20
  -5   5  -9    0.80    8.30
  -5   5  -9   12.30    8.50
   5  -5   9  -15.80    7.50
   5  -5   9   -2.70    8.60
   5  -5   9   10.00   11.80
   5  -5   9    1.40    7.70
   5  -5   9   22.00   20.10
   5   4  -9   69.09   18.30
   5   4  -9   38.10   17.10
   5   4  -9   47.90   14.60
   5   4  -9   35.60   15.00
  -5  -4   9   46.40   15.70
  -5  -4   9   39.60   13.80
  -5  -4   9   46.60   17.00
  -5  -4   9   25.60   17.20
  -5  -4   9   33.40   11.10
   4   4  -9  117.89   17.00
   4   4  -9  103.39   15.90
   4   4  -9   91.59   15.50
   4   4  -9   71.99   16.50
  -4  -4   9   66.79   15.20
  -4  -4   9   71.69   15.70
  -4  -4   9   97.09   15.00
  -4  -4   9   83.09   13.10
  -4  -4   9  103.49   15.40
   3   4  -9  199.28   17.90
   3   4  -9  185.58   16.80
   3   4  -9  159.48   17.90
   3   4  -9  186.08   17.10
  -3  -4   9  242.78   23.10
  -3  -4   9  179.28   17.00
  -3  -4   9  211.58   20.80
  -3  -4   9  197.38   18.10
  -3  -4   9  186.78   16.50
   2   4  -9  282.97   21.90
   2   4  -9  306.67   20.40
   2   4  -9  248.68   22.50
  -2  -4   9  296.87   23.50
  -2  -4   9  352.06   21.40
  -2  -4   9  316.67   20.30
  -2  -4   9  316.27   21.30
  -2  -4   9  299.27   23.50
   1   4  -9   78.29   12.10
   1   4  -9   91.99   13.80
   1   4  -9   68.19   11.10
  -1  -4   9   84.29   13.70
  -1  -4   9  106.69   15.10
  -1  -4   9   98.39   13.50
  -1  -4   9   91.49   11.90
  -1  -4   9   94.99   11.70
   0   4  -9  268.97   19.40
   0   4  -9  259.07   18.30
   0   4  -9  271.17   18.10
   0   4  -9  258.57   18.90
   0  -4   9  252.67   19.40
   0  -4   9  242.78   16.80
   0  -4   9  279.97   18.70
   0  -4   9  234.58   17.00
   0  -4   9  266.67   23.40
  -1   4  -9  149.99   13.60
  -1   4  -9  200.58   15.90
  -1   4  -9  156.38   13.70
  -1   4  -9  150.38   13.40
   1  -4   9  154.08   14.00
   1  -4   9  159.38   14.00
   1  -4   9  174.28   14.60
   1  -4   9  144.39   12.60
   1  -4   9  171.58   18.50
  -2   4  -9  302.77   18.00
  -2   4  -9  290.07   18.60
  -2   4  -9  292.17   17.10
   2  -4   9  311.57   16.40
   2  -4   9  298.67   16.50
   2  -4   9  323.57   18.50
   2  -4   9  323.57   25.90
   2  -4   9  310.07   19.90
  -3   4  -9   59.79    9.70
  -3   4  -9   53.99    9.30
  -3   4  -9   70.49   10.00
  -3   4  -9   68.89    9.90
  -3   4  -9   62.19   10.60
   3  -4   9   57.59    9.00
   3  -4   9   61.89   10.20
   3  -4   9   49.80    9.50
   3  -4   9   59.59    9.10
   3  -4   9  106.09   18.40
  -4   4  -9  628.44   22.40
  -4   4  -9  605.84   22.20
  -4   4  -9  671.53   25.30
  -4   4  -9  651.63   22.40
   4  -4   9  635.94   23.60
   4  -4   9  638.04   21.90
   4  -4   9  681.53   22.30
  -5   4  -9  637.44   24.80
  -5   4  -9  564.24   19.70
  -5   4  -9  588.34   20.30
   5  -4   9  550.24   22.40
   5  -4   9  573.84   21.40
   5  -4   9  594.44   20.50
   5  -4   9  589.44   19.50
  -6   4  -9   -1.60    6.90
  -6   4  -9    5.50    4.90
  -6   4  -9   13.00    6.20
   6  -4   9    7.50    5.30
   6  -4   9  -14.60   19.10
   6  -4   9   10.60    6.80
   6  -4   9    7.90    4.90
   6  -4   9    7.90    6.40
   6   3  -9   -8.90   18.10
   6   3  -9   -3.50   15.00
   6   3  -9    6.10   18.60
   6   3  -9   -4.10   14.30
  -6  -3   9    6.80   17.40
  -6  -3   9   -8.00   17.30
  -6  -3   9    5.80   14.60
   5   3  -9   40.20   15.80
   5   3  -9   23.60   13.50
   5   3  -9   35.60   16.20
  -5  -3   9   22.70   16.20
  -5  -3   9   31.50   10.30
  -5  -3   9   22.70   12.80
  -5  -3   9   52.09   15.60
  -5  -3   9    7.00   21.50
   4   3  -9  112.19   16.90
   4   3  -9  112.19   15.00
   4   3  -9  102.89   16.30
   4   3  -9  109.19   15.00
  -4  -3   9   97.29   13.00
  -4  -3   9  111.49   16.50
  -4  -3   9   90.79   17.10
  -4  -3   9   96.99   13.90
  -4  -3   9   92.09   16.30
   3   3  -9   35.00   12.80
   3   3  -9   34.40   12.80
   3   3  -9   25.50   11.70
   3   3  -9   41.30   12.30
  -3  -3   9   21.60   14.10
  -3  -3   9   25.50   12.60
  -3  -3   9   35.40   11.40
  -3  -3   9   13.40   10.70
  -3  -3   9   16.50   12.20
   2   3  -9    2.90   10.40
   2   3  -9    2.30   10.50
   2   3  -9    2.80    9.80
   2   3  -9   17.30   10.40
  -2  -3   9   -9.30   10.50
  -2  -3   9  -14.30   13.70
  -2  -3   9  -24.70    8.30
  -2  -3   9    0.70   10.40
  -2  -3   9   -6.80   10.90
   1   3  -9   44.70   11.10
   1   3  -9   41.30   10.10
   1   3  -9   22.30   10.20
  -1  -3   9   65.89   12.20
  -1  -3   9   36.90   12.10
  -1  -3   9   43.20    9.50
  -1  -3   9   47.30   11.00
   0   3  -9  623.04   24.40
   0   3  -9  641.64   25.10
   0   3  -9  600.34   24.20
   0   3  -9  606.74   25.20
   0  -3   9  642.54   25.00
   0  -3   9  638.74   29.10
   0  -3   9  638.14   26.00
   0  -3   9  611.74   23.50
   0  -3   9  546.45   24.80
  -1   3  -9  163.88   14.90
  -1   3  -9  175.08   15.80
  -1   3  -9  143.59   12.50
  -1   3  -9  156.88   14.60
   1  -3   9  164.98   15.10
   1  -3   9  195.48   17.60
   1  -3   9  139.29   15.80
   1  -3   9  163.98   14.20
   1  -3   9  199.28   17.10
  -2   3  -9  268.57   16.30
  -2   3  -9  273.17   16.50
  -2   3  -9  248.88   16.30
  -2   3  -9  264.07   18.10
   2  -3   9  255.07   15.20
   2  -3   9  265.77   17.70
   2  -3   9  252.57   23.50
   2  -3   9  281.87   16.60
   2  -3   9  260.17   15.20
  -3   3  -9   14.70    7.70
  -3   3  -9   12.40    8.10
  -3   3  -9   12.90    7.50
  -3   3  -9   -1.30    8.30
  -3   3  -9    0.30    7.10
   3  -3   9   -0.90    6.70
   3  -3   9    5.50    7.80
   3  -3   9    8.40    6.80
   3  -3   9    0.90    8.30
   3  -3   9    4.50   13.10
  -4   3  -9  422.26   17.10
  -4   3  -9  439.36   17.50
  -4   3  -9  436.66   17.30
  -4   3  -9  463.15   21.30
  -4   3  -9  402.36   17.90
   4  -3   9  441.66   17.40
   4  -3   9  410.16   17.20
   4  -3   9  446.66   16.90
   4  -3   9  424.86   18.50
  -5   3  -9    0.30    6.60
  -5   3  -9   -5.90    5.70
  -5   3  -9    1.30    8.50
   5  -3   9    2.50    5.60
   5  -3   9    5.00    6.00
   5  -3   9    0.90    6.30
   5  -3   9   -8.30    6.80
  -6   3  -9  126.89   13.40
  -6   3  -9  105.49    9.40
  -6   3  -9  109.59    9.10
   6  -3   9  110.59    9.30
   6  -3   9  122.49   10.00
   6  -3   9  111.39    6.90
   6  -3   9  100.89    6.70
   6  -3   9  103.99   20.90
   7  -3   9    4.40   20.20
   6   2  -9   75.59   19.50
   6   2  -9   98.99   19.10
   6   2  -9   84.09   16.80
   6   2  -9   65.89   16.00
  -6  -2   9   91.69   20.40
  -6  -2   9   72.79   18.60
  -6  -2   9   89.89   17.10
  -6  -2   9   73.09   15.90
   5   2  -9  533.05   30.10
   5   2  -9  561.94   32.40
   5   2  -9  517.75   27.20
  -5  -2   9  590.74   27.60
  -5  -2   9  595.04   31.70
  -5  -2   9  518.95   22.10
  -5  -2   9  549.54   31.90
  -5  -2   9  552.54   29.90
   4   2  -9  735.53   31.10
   4   2  -9  856.51   32.70
   4   2  -9  775.72   33.20
   4   2  -9  775.82   33.90
  -4  -2   9  786.42   33.80
  -4  -2   9  759.42   27.90
  -4  -2   9  769.52   29.80
  -4  -2   9  779.32   32.80
  -4  -2   9  765.62   32.00
   3   2  -9  323.87   22.70
   3   2  -9  272.87   22.80
   3   2  -9  328.97   20.80
  -3  -2   9  247.18   18.60
  -3  -2   9  283.97   22.50
  -3  -2   9  255.47   20.90
  -3  -2   9  276.57   21.00
  -3  -2   9  284.07   19.50
   2   2  -9  726.83   28.70
   2   2  -9  687.83   26.90
   2   2  -9  740.03   28.10
   2   2  -9  731.13   29.10
  -2  -2   9  690.73   26.40
  -2  -2   9  717.33   29.20
  -2  -2   9  692.63   31.10
  -2  -2   9  742.83   28.00
  -2  -2   9  729.23   28.10
   1   2  -9   21.70   10.20
   1   2  -9   47.10   10.20
   1   2  -9   52.49   10.30
   1   2  -9   26.70    8.80
  -1  -2   9   39.00   10.10
  -1  -2   9   51.59   11.50
  -1  -2   9   36.30    8.90
  -1  -2   9   58.09   11.90
  -1  -2   9   46.90   10.50
   0   2  -9  202.68   16.90
   0   2  -9  188.68   15.80
   0   2  -9  196.18   15.60
   0   2  -9  207.48   16.60
   0  -2   9  234.48   17.50
   0  -2   9  216.58   19.20
   0  -2   9  196.58   15.10
   0  -2   9  210.88   15.80
  -1   2  -9   54.99    9.70
  -1   2  -9   46.90    9.00
  -1   2  -9   64.29    9.70
  -1   2  -9   55.09    9.50
   1  -2   9   66.19   10.40
   1  -2   9   47.30   12.70
   1  -2   9   61.89    9.20
   1  -2   9   51.79    8.60
   1  -2   9   41.20    9.30
  -2   2  -9  801.62   26.70
  -2   2  -9  834.72   26.50
  -2   2  -9  851.01   26.60
  -2   2  -9  829.42   29.80
   2  -2   9  831.12   27.60
   2  -2   9  829.22   32.60
   2  -2   9  869.31   27.10
   2  -2   9  842.72   25.70
  -3   2  -9  608.64   24.70
  -3   2  -9  607.84   20.70
  -3   2  -9  603.74   20.80
  -3   2  -9  602.14   21.00
  -3   2  -9  610.74   21.00
   3  -2   9  558.94   28.80
   3  -2   9  592.34   21.90
   3  -2   9  609.24   21.10
   3  -2   9  637.24   20.40
   3  -2   9  590.34   22.20
  -4   2  -9   59.69   10.50
  -4   2  -9   71.69    7.90
  -4   2  -9   55.89    7.70
   4  -2   9   65.39   20.40
   4  -2   9   65.89    7.20
   4  -2   9   73.59    8.10
   4  -2   9   63.89    7.80
   4  -2   9   55.39    8.60
  -5   2  -9   80.29    7.10
  -5   2  -9   70.39    7.30
  -5   2  -9   72.09    6.80
  -5   2  -9   63.99    7.50
  -5   2  -9   57.89   10.20
   5  -2   9   70.69    8.20
   5  -2   9   71.99    7.30
   5  -2   9   77.29    7.40
   5  -2   9   82.19    6.70
  -6   2  -9   25.80    4.90
  -6   2  -9    7.80    4.50
  -6   2  -9    2.40    8.90
   6  -2   9   15.40    5.40
   6  -2   9    6.60   15.10
   6  -2   9    9.90    4.60
   7  -2   9   10.10   16.00
   8  -2   9   98.19   22.60
   6   1  -9  126.19   17.20
   6   1  -9  108.19   17.60
   6   1  -9  161.38   20.70
   6   1  -9  133.59   20.60
  -6  -1   9   98.89   17.90
  -6  -1   9   99.19    8.40
  -6  -1   9  144.99   19.00
  -6  -1   9   94.89   19.60
  -6  -1   9  139.49   21.60
   5   1  -9   -4.90   14.10
   5   1  -9    4.90   12.40
   5   1  -9   14.20   15.20
   5   1  -9   27.70   13.80
  -5  -1   9   15.20   13.90
  -5  -1   9   19.80   16.00
  -5  -1   9   17.70   13.00
  -5  -1   9   -5.40   13.80
  -5  -1   9   14.30    9.80
   4   1  -9    4.40   12.90
   4   1  -9   11.10   13.00
   4   1  -9    0.20   11.60
   4   1  -9   17.70   11.60
  -4  -1   9   10.90    9.90
  -4  -1   9    9.10   12.50
  -4  -1   9   16.30   13.00
  -4  -1   9   -6.40   11.30
  -4  -1   9    7.50   11.20
   3   1  -9  409.76   24.70
   3   1  -9  389.66   21.70
   3   1  -9  380.16   23.60
   3   1  -9  420.76   21.50
  -3  -1   9  435.96   20.70
  -3  -1   9  373.36   20.40
  -3  -1   9  363.16   22.80
  -3  -1   9  421.66   24.90
  -3  -1   9  398.96   22.70
   2   1  -9  265.07   19.50
   2   1  -9  353.06   22.00
   2   1  -9  280.67   18.40
  -2  -1   9  330.27   19.40
  -2  -1   9  319.97   17.90
  -2  -1   9  299.17   21.00
  -2  -1   9  310.97   20.40
  -2  -1   9  275.37   19.80
   1   1  -9   -1.10    7.80
   1   1  -9    4.30    9.10
   1   1  -9    1.80    8.50
  -1  -1   9    8.70    9.00
  -1  -1   9   -3.20    8.90
  -1  -1   9    8.00    9.50
  -1  -1   9    9.40   10.90
  -1  -1   9    3.30    8.70
   0   1  -9    8.90    8.00
   0   1  -9   13.10    8.70
   0   1  -9   17.90    7.80
   0  -1   9   15.60    8.80
   0  -1   9   28.60    8.50
   0  -1   9   16.90    9.90
   0  -1   9   14.60    7.50
   0  -1   9   27.00    9.30
  -1   1  -9   66.29    9.30
  -1   1  -9   70.59    9.30
  -1   1  -9   69.19    9.40
   1  -1   9   59.29    9.30
   1  -1   9   54.09    9.40
   1  -1   9   56.99    8.70
   1  -1   9   58.99   11.70
   1  -1   9   47.80    8.60
  -2   1  -9  317.67   15.90
  -2   1  -9  328.77   15.70
  -2   1  -9  307.37   15.90
   2  -1   9  335.07   15.70
   2  -1   9  296.87   20.40
   2  -1   9  317.77   16.40
   2  -1   9  299.47   16.40
   2  -1   9  334.77   15.00
  -3   1  -9  188.28   12.30
  -3   1  -9  142.59   11.90
  -3   1  -9  139.29   12.00
  -3   1  -9  183.58   12.00
  -3   1  -9  152.68   13.50
   3  -1   9  147.79   15.40
   3  -1   9  163.08   12.00
   3  -1   9  188.88   14.10
   3  -1   9  151.88   11.90
   3  -1   9  172.58   11.40
  -4   1  -9    5.30    6.30
  -4   1  -9    5.50    6.10
  -4   1  -9   -1.90    9.00
  -4   1  -9    3.70    5.90
  -4   1  -9    7.10    5.80
   4  -1   9   -3.80   11.20
   4  -1   9   -1.40    5.90
   4  -1   9    2.00    6.50
   4  -1   9    9.60    5.20
   4  -1   9    0.70    6.30
  -5   1  -9   66.99    6.50
  -5   1  -9   53.69    6.00
  -5   1  -9   67.89    6.90
  -5   1  -9   59.69   11.40
   5  -1   9   54.89    6.70
   5  -1   9   69.89    7.80
   5  -1   9   68.79   19.10
   5  -1   9   55.89    5.70
  -6   1  -9  855.61   21.30
  -6   1  -9  868.31   30.40
  -6   1  -9  828.12   21.00
   6  -1   9  825.32   36.90
   6  -1   9  838.72   22.00
  -7   1  -9  507.95   24.70
   7  -1   9  446.36   31.40
   8  -1   9   73.49   19.10
   5   0  -9  528.15   29.20
   5   0  -9  639.94   29.90
   5   0  -9  591.04   30.20
   5   0  -9  615.74   33.40
  -5   0   9  556.64   31.10
  -5   0   9  572.14   31.10
  -5   0   9  542.85   27.40
  -5   0   9  536.65   22.10
  -5   0   9  565.84   32.80
   4   0  -9  170.98   17.30
   4   0  -9  193.08   17.10
   4   0  -9  213.48   18.30
   4   0  -9  186.88   16.30
  -4   0   9  196.78   16.90
  -4   0   9  191.28   18.60
  -4   0   9  163.28   16.10
  -4   0   9  179.48   17.60
  -4   0   9  190.38   17.30
   3   0  -9   -2.30   10.80
   3   0  -9  -12.10    8.90
   3   0  -9    6.40    9.80
   3   0  -9   22.80   11.40
  -3   0   9    5.60   10.50
  -3   0   9  -14.20   10.60
  -3   0   9    1.00   11.20
  -3   0   9    2.40    9.00
  -3   0   9   -1.30    9.80
   2   0  -9    9.10   10.20
   2   0  -9    4.60    8.90
   2   0  -9  -13.70    9.10
   2   0  -9    7.60    9.80
  -2   0   9   -1.10    9.60
  -2   0   9    5.70   10.30
  -2   0   9   -4.30    8.60
  -2   0   9    5.00   10.40
  -2   0   9   20.70    9.50
   1   0  -9   78.09   10.60
   1   0  -9   89.49   11.80
   1   0  -9   84.39   10.70
   1   0  -9   74.19   10.80
  -1   0   9   70.69   11.50
  -1   0   9   81.49   11.10
  -1   0   9   85.79   11.30
  -1   0   9   75.49   10.60
   0   0  -9   38.70    8.90
   0   0  -9   40.50    9.20
   0   0  -9   51.59    9.40
   0   0  -9   38.10    8.70
   0   0   9   64.89   10.00
   0   0   9   45.60    9.90
   0   0   9   39.80    9.80
   0   0   9   39.20    9.00
   0   0   9   38.80    8.50
  -1   0  -9  277.67   15.30
  -1   0  -9  250.37   15.40
  -1   0  -9  282.57   15.80
  -1   0  -9  284.97   15.70
   1   0   9  307.87   16.10
   1   0   9  278.77   15.20
   1   0   9  284.77   19.20
   1   0   9  300.77   17.00
   1   0   9  305.27   16.10
  -2   0  -9  385.76   17.20
  -2   0  -9  376.96   16.70
  -2   0  -9  375.76   16.90
  -2   0  -9  316.37   20.90
   2   0   9  379.16   15.90
   2   0   9  397.66   17.60
   2   0   9  401.26   17.30
   2   0   9  393.06   17.00
  -3   0  -9  355.66   15.30
  -3   0  -9  352.16   15.20
  -3   0  -9  326.87   15.30
  -3   0  -9  323.07   14.70
  -3   0  -9  299.27   18.80
   3   0   9  329.47   15.00
   3   0   9  337.47   14.40
   3   0   9  357.76   15.60
   3   0   9  360.86   21.60
   3   0   9  328.97   18.90
  -4   0  -9  885.51   25.40
  -4   0  -9  951.30   31.00
  -4   0  -9  857.71   25.00
  -4   0  -9  907.51   25.20
  -4   0  -9  879.01   25.40
   4   0   9  890.11   26.20
   4   0   9  882.71   25.60
   4   0   9  897.11   25.50
   4   0   9  849.32   24.60
   4   0   9  917.41   33.50
  -5   0  -9   53.09    6.60
  -5   0  -9   49.99    6.30
  -5   0  -9   49.90    5.90
   5   0   9   45.90    7.10
   5   0   9   59.69    6.50
   5   0   9   48.40    8.00
   5   0   9   44.70   12.80
   5   0   9   49.00    5.50
  -6   0  -9  481.25   12.40
  -6   0  -9  484.25   22.80
  -6   0  -9  474.05   13.70
  -6   0  -9  415.26   13.50
  -6   0  -9  481.95   14.20
   6   0   9  472.85   13.90
   6   0   9  476.25   13.20
   6   0   9  470.45   12.70
   6   0   9  477.05   14.90
   6   0   9  461.55   28.30
  -7   0  -9   55.79   11.30
   7   0   9   46.40   15.00
   8   0   9 1113.89   44.60
   9   0   9  186.98   24.10
   9   0   9  175.08   19.30
   5  -1  -9    8.50   15.50
   5  -1  -9  -10.80   13.70
   5  -1  -9   -3.40   12.30
   5  -1  -9  -21.10   15.00
  -5   1   9   18.30   13.70
  -5   1   9   -3.70   12.50
  -5   1   9   17.50   15.50
  -5   1   9    8.20    9.90
  -5   1   9   22.60   16.30
   4  -1  -9   67.79   13.80
   4  -1  -9   73.99   13.30
   4  -1  -9   87.19   16.20
   4  -1  -9   56.39   14.20
  -4   1   9   87.59   14.00
  -4   1   9   98.89   15.30
  -4   1   9   83.69   16.00
  -4   1   9   74.19   15.00
   3  -1  -9  181.78   19.80
   3  -1  -9  150.28   14.10
   3  -1  -9  155.58   15.20
   3  -1  -9  165.28   15.30
  -3   1   9  168.08   15.80
  -3   1   9  158.68   21.30
  -3   1   9  172.48   15.50
  -3   1   9  197.68   16.60
   2  -1  -9   24.60    9.70
   2  -1  -9   41.60   15.70
   2  -1  -9   33.90   10.20
   2  -1  -9   33.20   10.70
  -2   1   9   45.10   11.10
  -2   1   9   24.50    9.70
  -2   1   9   41.30   11.10
  -2   1   9   21.90   10.50
   1  -1  -9 1086.29   33.50
   1  -1  -9 1053.79   32.70
   1  -1  -9  929.21   39.50
   1  -1  -9 1097.39   33.90
  -1   1   9 1065.39   33.60
  -1   1   9  829.42   41.70
  -1   1   9 1086.89   34.20
  -1   1   9 1070.59   33.80
   0  -1  -9  750.52   25.30
   0  -1  -9  728.73   29.60
   0  -1  -9  698.23   25.30
   0  -1  -9  747.63   26.20
   0   1   9  744.93   26.40
   0   1   9  740.73   26.10
   0   1   9  727.83   25.10
   0   1   9  684.73   26.40
  -1  -1  -9  136.49   11.40
  -1  -1  -9  148.19   12.50
  -1  -1  -9  138.49   12.50
  -1  -1  -9  136.79   11.30
   1   1   9  153.68   14.00
   1   1   9  140.19   11.70
   1   1   9  149.39   11.90
   1   1   9  115.69   10.60
  -2  -1  -9   97.49   11.50
  -2  -1  -9   98.29    9.80
  -2  -1  -9   92.49    9.90
  -2  -1  -9  118.39   10.10
   2   1   9  103.09   10.20
   2   1   9  114.29   10.60
   2   1   9  114.49    9.80
   2   1   9  110.69    9.80
  -3  -1  -9  890.51   31.40
  -3  -1  -9  860.91   26.60
  -3  -1  -9  943.01   26.90
  -3  -1  -9  967.70   27.10
   3   1   9  911.91   27.50
   3   1   9  887.41   27.00
   3   1   9  934.61   27.30
   3   1   9  925.91   31.90
   3   1   9  851.41   26.20
  -4  -1  -9 1704.23   43.60
  -4  -1  -9 1820.12   44.20
  -4  -1  -9 1677.73   48.80
  -4  -1  -9 1819.42   44.20
  -4  -1  -9 1724.33   43.80
   4   1   9 1735.93   44.10
   4   1   9 1724.43   43.50
   4   1   9 1858.81   44.50
   4   1   9 1869.01   50.99
   4   1   9 1727.13   44.40
  -5  -1  -9   38.00    6.00
  -5  -1  -9   28.90    6.10
  -5  -1  -9   50.59    6.90
  -5  -1  -9   33.70    6.00
   5   1   9   29.80    5.20
   5   1   9   35.00    5.80
   5   1   9   41.00    6.50
   5   1   9   40.60    6.90
   5   1   9   21.00   11.60
  -6  -1  -9  299.77   11.00
  -6  -1  -9  288.47   11.80
  -6  -1  -9  316.57   19.00
  -6  -1  -9  302.47   10.70
  -6  -1  -9  301.47   11.00
   6   1   9  287.87   12.40
   6   1   9  295.07   10.70
   6   1   9  278.47   11.20
   6   1   9  286.97   23.20
   6   1   9  294.17   11.30
  -7  -1  -9    6.60    9.00
   7   1   9   10.60   12.80
  -8  -1  -9  130.09   14.70
   8   1   9  115.79   18.60
   9   1   9    5.40   17.10
   9   1   9    5.50   14.20
   5  -2  -9  105.29   16.70
   5  -2  -9  113.19   19.20
   5  -2  -9  101.69   17.70
   5  -2  -9  108.09   16.00
  -5   2   9  157.08   20.30
  -5   2   9   83.49   17.90
  -5   2   9  114.29   17.50
  -5   2   9  104.89   17.40
   4  -2  -9   19.20   13.20
   4  -2  -9   67.89   14.70
   4  -2  -9   48.60   15.30
   4  -2  -9   28.30   12.90
  -4   2   9   41.90   13.30
  -4   2   9   43.20   14.80
  -4   2   9   48.20   14.20
  -4   2   9   23.70   15.10
   3  -2  -9  117.39   14.40
   3  -2  -9  117.19   18.60
   3  -2  -9   96.79   13.40
   3  -2  -9  142.89   15.40
  -3   2   9   94.19   14.90
  -3   2   9  124.89   14.30
  -3   2   9  126.99   14.70
  -3   2   9  113.59   16.40
   2  -2  -9    7.70    9.50
   2  -2  -9    4.10   13.80
   2  -2  -9   13.10    9.10
   2  -2  -9   29.60   11.40
  -2   2   9    5.90   10.50
  -2   2   9   42.30   11.10
  -2   2   9    6.10    9.70
  -2   2   9   25.40   11.40
   1  -2  -9  667.33   26.10
   1  -2  -9  664.33   25.30
   1  -2  -9  650.43   26.10
   1  -2  -9  625.94   33.80
  -1   2   9  660.73   26.30
  -1   2   9  703.63   27.00
  -1   2   9  646.44   25.40
  -1   2   9  565.74   31.60
   0  -2  -9    3.10    7.20
   0  -2  -9    1.80    8.10
   0  -2  -9    8.00    9.50
   0  -2  -9    9.00    8.40
   0   2   9   11.30    8.10
   0   2   9    7.20    8.80
   0   2   9   14.50    8.50
   0   2   9   12.20    8.90
  -1  -2  -9 1353.16   37.90
  -1  -2  -9 1348.67   39.00
  -1  -2  -9 1276.07   37.90
  -1  -2  -9 1358.26   38.40
   1   2   9 1327.67   37.90
   1   2   9 1371.26   38.70
   1   2   9 1380.36   39.00
   1   2   9 1394.96   39.20
  -2  -2  -9  484.25   19.60
  -2  -2  -9  536.35   20.60
  -2  -2  -9  542.35   20.50
  -2  -2  -9  519.05   19.90
   2   2   9  519.45   20.60
   2   2   9  526.85   19.70
   2   2   9  500.45   20.20
   2   2   9  543.65   20.80
  -3  -2  -9   35.70    7.70
  -3  -2  -9   43.00    8.10
  -3  -2  -9   42.20    9.30
   3   2   9   42.40    8.00
   3   2   9   40.80    8.40
   3   2   9   50.49    7.80
   3   2   9   30.60    7.10
  -4  -2  -9   48.20    7.20
  -4  -2  -9   39.60    9.40
  -4  -2  -9   31.00    7.30
  -4  -2  -9   43.80    6.90
  -4  -2  -9   43.10    7.80
   4   2   9   58.99    6.90
   4   2   9   54.09    8.10
   4   2   9   49.90    8.10
   4   2   9   41.90    6.90
  -5  -2  -9 1120.59   29.50
  -5  -2  -9  915.11   42.50
  -5  -2  -9 1109.29   29.00
  -5  -2  -9 1083.69   29.30
  -5  -2  -9 1100.29   29.20
   5   2   9 1109.29   29.70
   5   2   9 1117.09   29.40
   5   2   9 1143.29   37.00
   5   2   9 1076.09   28.70
   5   2   9 1054.69   29.90
  -6  -2  -9  577.24   24.40
  -6  -2  -9  556.84   17.10
  -6  -2  -9  570.04   17.70
  -6  -2  -9  572.44   17.40
   6   2   9  573.64   27.50
   6   2   9  574.84   18.30
   6   2   9  567.54   16.60
   6   2   9  530.95   18.00
  -7  -2  -9   24.70    4.70
  -7  -2  -9   17.30    9.40
  -7  -2  -9   22.70    5.30
  -7  -2  -9   28.40    3.70
  -7  -2  -9   23.60    3.50
   7   2   9   15.90   13.20
   7   2   9   22.40    4.20
   7   2   9   25.70    5.60
   7   2   9   28.20    4.00
  -8  -2  -9   13.60   10.30
   8   2   9   10.50   14.30
   9   2   9   -3.10   14.70
  10   2   9  -26.40   16.90
  10   2   9   -3.40   16.60
   4  -3  -9  123.59   18.10
   4  -3  -9   95.59   16.90
   4  -3  -9   87.19   15.70
   4  -3  -9  109.99   16.90
  -4   3   9  110.49   16.50
  -4   3   9  102.19   17.30
  -4   3   9   93.79   16.80
  -4   3   9   95.79   18.70
   3  -3  -9 1152.18   41.90
   3  -3  -9 1148.59   39.00
   3  -3  -9 1190.18   40.90
  -3   3   9 1223.98   41.70
  -3   3   9 1176.48   40.60
  -3   3   9 1197.28   39.20
  -3   3   9 1243.78   41.50
   2  -3  -9  238.38   18.80
   2  -3  -9  251.87   20.30
   2  -3  -9  196.38   17.40
   2  -3  -9  222.28   19.40
  -2   3   9  252.57   22.10
  -2   3   9  225.08   20.40
  -2   3   9  216.58   19.10
  -2   3   9  251.47   22.40
   1  -3  -9  437.36   22.70
   1  -3  -9  417.26   21.80
   1  -3  -9  435.16   23.80
   1  -3  -9  473.15   22.80
  -1   3   9  429.36   21.10
  -1   3   9  492.35   22.80
  -1   3   9  483.15   23.30
  -1   3   9  438.06   23.60
   0  -3  -9   25.80    9.50
   0  -3  -9   31.10    9.50
   0  -3  -9   30.30    9.40
   0  -3  -9   30.60    8.30
   0   3   9   19.50    9.20
   0   3   9   11.90    9.10
   0   3   9   19.80    9.10
   0   3   9   35.50    9.30
  -1  -3  -9  552.14   21.40
  -1  -3  -9  548.85   21.80
  -1  -3  -9  545.45   22.20
  -1  -3  -9  561.64   23.00
   1   3   9  556.24   22.40
   1   3   9  546.55   21.40
   1   3   9  586.04   23.30
   1   3   9  571.54   22.60
  -2  -3  -9   39.30    7.90
  -2  -3  -9   49.40    8.60
  -2  -3  -9   47.10    9.20
  -2  -3  -9   45.50    8.60
   2   3   9   47.00    8.50
   2   3   9   48.70    8.60
   2   3   9   39.90    8.30
   2   3   9   50.69    8.80
  -3  -3  -9   50.79    7.70
  -3  -3  -9   44.80    8.30
  -3  -3  -9   37.00    8.30
  -3  -3  -9   43.80    7.20
   3   3   9   51.49    8.10
   3   3   9   26.40    7.50
   3   3   9   38.20    8.30
   3   3   9   50.89    8.10
  -4  -3  -9  108.29    9.50
  -4  -3  -9   99.29    9.60
  -4  -3  -9   93.09    8.80
  -4  -3  -9   88.89   11.30
   4   3   9  108.89    9.50
   4   3   9  102.89    9.10
   4   3   9   97.09    9.50
   4   3   9  100.29    9.50
  -5  -3  -9  569.04   18.80
  -5  -3  -9  559.74   18.90
  -5  -3  -9  556.34   20.80
  -5  -3  -9  529.85   18.80
   5   3   9  569.14   19.20
   5   3   9  554.04   18.30
   5   3   9  529.05   20.80
   5   3   9  533.55   19.00
  -6  -3  -9  283.27   13.30
  -6  -3  -9  313.27   13.70
  -6  -3  -9  292.87   12.90
  -6  -3  -9  290.77   19.10
  -6  -3  -9  306.27   13.50
   6   3   9  288.87   13.20
   6   3   9  298.47   12.60
   6   3   9  263.07   13.40
   6   3   9  255.97   14.00
  -7  -3  -9   31.60    5.90
  -7  -3  -9   29.20    5.50
  -7  -3  -9   32.40    6.00
  -7  -3  -9   34.70   10.00
  -7  -3  -9   35.50    6.40
   7   3   9   34.40    6.00
   7   3   9   31.00   13.50
   7   3   9   33.70    6.60
   7   3   9   30.90    5.50
   7   3   9   30.00    6.40
  -8  -3  -9   -1.90    9.50
  -8  -3  -9    9.40    5.00
  -8  -3  -9    3.20    4.60
   8   3   9   10.30   14.00
   8   3   9    5.00    4.70
   8   3   9    8.90    5.30
   9   3   9  467.85   31.40
  10   3   9  586.84   34.30
  10   3   9  589.84   35.60
   4  -4  -9   51.79   15.10
   4  -4  -9   28.70   15.60
   4  -4  -9   56.39   18.10
   4  -4  -9   71.69   18.70
  -4   4   9   75.39   18.40
  -4   4   9   56.69   17.80
  -4   4   9   59.89   16.60
  -4   4   9   35.70   15.40
   3  -4  -9  -14.70   13.80
   3  -4  -9  -18.40   12.50
   3  -4  -9    3.50   12.00
   3  -4  -9   -4.10   14.00
  -3   4   9    5.60   12.70
  -3   4   9   12.80   12.50
  -3   4   9   10.90   14.50
  -3   4   9   -3.90   13.80
   2  -4  -9  200.28   17.90
   2  -4  -9  218.78   19.00
   2  -4  -9  175.08   17.00
   2  -4  -9  169.08   16.60
  -2   4   9  203.68   17.60
  -2   4   9  207.98   18.00
  -2   4   9  209.08   18.60
  -2   4   9  164.28   17.20
   1  -4  -9  208.08   19.50
   1  -4  -9  204.28   16.30
   1  -4  -9  196.78   16.40
   1  -4  -9  217.58   18.20
  -1   4   9  200.18   16.70
  -1   4   9  211.48   17.30
  -1   4   9  191.08   15.90
  -1   4   9  172.68   15.80
   0  -4  -9  118.29   12.40
   0  -4  -9  101.09   12.10
   0  -4  -9   81.29   11.90
   0  -4  -9  103.29   12.30
   0   4   9  115.39   13.30
   0   4   9   97.69   11.60
   0   4   9  127.29   13.50
  -1  -4  -9  281.67   18.70
  -1  -4  -9  279.97   17.60
  -1  -4  -9  276.47   16.80
  -1  -4  -9  272.87   16.60
   1   4   9  259.37   16.40
   1   4   9  276.67   18.30
   1   4   9  252.57   16.70
   1   4   9  256.77   17.90
  -2  -4  -9  287.77   16.80
  -2  -4  -9  286.77   17.30
  -2  -4  -9  276.97   15.20
  -2  -4  -9  273.97   16.40
   2   4   9  255.97   17.90
   2   4   9  282.57   17.00
   2   4   9  297.57   16.50
  -3  -4  -9   23.40    7.90
  -3  -4  -9    7.30    7.30
  -3  -4  -9    1.50    6.40
  -3  -4  -9    4.80    6.80
   3   4   9    5.20    7.00
   3   4   9   -1.70    6.50
   3   4   9   16.80    6.80
   3   4   9   11.90    7.10
  -4  -4  -9    0.20    8.10
  -4  -4  -9  -12.40    5.90
  -4  -4  -9   -3.80    8.20
  -4  -4  -9    2.50    6.80
  -4  -4  -9   -3.10    5.90
   4   4   9   -0.20    7.40
   4   4   9   -2.30    6.40
   4   4   9    2.20    6.10
   4   4   9  -11.50    6.00
  -5  -4  -9  533.55   19.40
  -5  -4  -9  539.35   18.40
  -5  -4  -9  552.84   19.40
  -5  -4  -9  538.55   18.70
   5   4   9  530.25   19.10
   5   4   9  522.35   19.80
   5   4   9  462.25   21.60
   5   4   9  533.15   18.70
  -6  -4  -9  329.67   14.40
  -6  -4  -9  344.27   14.20
  -6  -4  -9  360.06   20.40
  -6  -4  -9  332.77   15.00
  -6  -4  -9  339.27   15.40
   6   4   9  333.67   14.90
   6   4   9  312.27   14.60
   6   4   9  306.17   14.80
   6   4   9  337.17   14.40
  -7  -4  -9  270.97   12.80
  -7  -4  -9  278.07   12.50
  -7  -4  -9  273.17   13.60
  -7  -4  -9  285.17   19.70
  -7  -4  -9  271.07   13.90
   7   4   9  250.67   12.90
   7   4   9  250.67   12.90
   7   4   9  261.47   13.40
  -8  -4  -9  486.65   15.60
  -8  -4  -9  460.75   15.90
  -8  -4  -9  464.35   24.70
  -8  -4  -9  463.45   15.60
   8   4   9  441.96   15.70
   8   4   9  442.56   16.20
   8   4   9  451.95   15.10
  -9  -4  -9   12.90    5.50
  -9  -4  -9   13.00    5.50
   9   4   9   16.10   14.80
   9   4   9   20.60    5.30
   9   4   9   22.70    5.70
  10   4   9   28.90   17.10
   3  -5  -9   77.09   17.40
   3  -5  -9   43.10   14.60
   3  -5  -9   44.70   16.80
   3  -5  -9   16.60   14.00
  -3   5   9   26.60   14.40
  -3   5   9   48.60   14.70
  -3   5   9   31.90   15.80
  -3   5   9    3.20   15.60
   2  -5  -9   48.50   13.60
   2  -5  -9   36.90   14.00
   2  -5  -9   45.70   14.70
   2  -5  -9   50.39   13.30
  -2   5   9   46.30   12.60
  -2   5   9   58.99   14.20
  -2   5   9   35.30   13.60
  -2   5   9   44.60   13.90
   1  -5  -9   13.80   11.20
   1  -5  -9   19.90   10.50
   1  -5  -9   46.00   11.70
   1  -5  -9   20.60   11.90
  -1   5   9   37.40   12.20
  -1   5   9   10.70   12.10
  -1   5   9   33.60   11.70
   0  -5  -9   69.59   11.70
   0  -5  -9  125.09   14.10
   0  -5  -9   82.49   13.00
   0   5   9   75.19   12.00
   0   5   9   64.39   12.20
   0   5   9   58.09   12.40
  -1  -5  -9   28.40    9.70
  -1  -5  -9   19.80    9.20
  -1  -5  -9   33.20    9.60
  -1  -5  -9   25.90    9.70
   1   5   9   27.20    9.60
   1   5   9   25.50   10.80
   1   5   9   21.40    8.90
  -2  -5  -9  696.73   25.00
  -2  -5  -9  687.13   25.50
  -2  -5  -9  778.82   27.10
  -2  -5  -9  704.53   25.90
   2   5   9  669.33   25.60
   2   5   9  698.13   25.60
   2   5   9  713.03   25.50
   2   5   9  711.43   26.50
  -3  -5  -9 2077.79   52.69
  -3  -5  -9 2030.30   54.19
  -3  -5  -9 2086.79   53.19
  -3  -5  -9 2008.90   53.69
   3   5   9 2057.49   53.29
   3   5   9 2064.69   53.79
   3   5   9 2072.09   52.89
  -4  -5  -9  165.38   14.30
  -4  -5  -9  158.58   13.50
  -4  -5  -9  163.18   15.00
  -4  -5  -9  151.98   14.90
  -4  -5  -9  164.68   12.70
   4   5   9  167.98   14.00
   4   5   9  182.78   14.20
   4   5   9  165.88   18.60
   4   5   9  172.28   13.40
  -5  -5  -9  588.24   24.40
  -5  -5  -9  464.15   27.10
  -5  -5  -9  556.34   20.10
  -5  -5  -9  569.44   20.90
   5   5   9  579.04   21.00
   5   5   9  566.54   20.80
   5   5   9  582.84   20.30
  -6  -5  -9   75.99    9.60
  -6  -5  -9   73.79    8.60
  -6  -5  -9   60.19    7.90
  -6  -5  -9   67.09    8.80
  -6  -5  -9   67.99   11.80
   6   5   9   81.39    8.90
   6   5   9   58.09    8.60
   6   5   9   75.29    9.20
   6   5   9   66.49    8.50
  -7  -5  -9 1938.21   49.20
  -7  -5  -9 1957.70   48.00
  -7  -5  -9 2027.80   48.40
  -7  -5  -9 1895.51   49.10
  -7  -5  -9 1910.21   54.09
   7   5   9 1980.10   48.70
   7   5   9 1969.90   48.90
   7   5   9 1916.01   47.90
   7   5   9 1965.20   49.50
  -8  -5  -9  264.17   21.00
  -8  -5  -9  285.67   13.80
  -8  -5  -9  268.67   13.80
  -8  -5  -9  290.87   14.80
  -8  -5  -9  278.17   15.40
   8   5   9  268.27   14.60
   8   5   9  270.27   14.90
   8   5   9  271.07   13.50
   8   5   9  287.07   14.50
  -9  -5  -9  315.67   14.00
  -9  -5  -9  328.87   14.80
  -9  -5  -9  321.57   14.20
  -9  -5  -9  362.46   24.00
   9   5   9  311.37   13.60
   9   5   9  330.67   14.80
   9   5   9  346.27   14.70
   9   5   9  344.17   15.40
 -10  -5  -9  128.19    9.80
 -10  -5  -9  118.49   11.10
  10   5   9  129.99   10.10
  10   5   9   91.29   18.10
  10   5   9  132.29   11.40
   2  -6  -9  225.68   20.30
   2  -6  -9  226.58   20.20
   2  -6  -9  241.08   20.80
   2  -6  -9  226.98   19.90
  -2   6   9  203.48   19.70
  -2   6   9  201.18   19.30
  -2   6   9  288.57   26.60
  -2   6   9  216.88   20.60
   1  -6  -9  654.33   28.90
   1  -6  -9  675.93   30.70
   1  -6  -9  702.13   31.20
   1  -6  -9  639.24   28.90
  -1   6   9  670.73   31.10
  -1   6   9  649.54   29.10
  -1   6   9  669.83   28.90
   0  -6  -9   40.40   11.50
   0  -6  -9   43.70   11.90
   0  -6  -9   12.30   11.40
   0  -6  -9   26.80   11.90
   0   6   9   40.70   11.00
   0   6   9   33.40   13.30
   0   6   9   27.50   11.70
   0   6   9   38.40   12.00
  -1  -6  -9  565.84   31.40
  -1  -6  -9  708.33   27.20
  -1  -6  -9  707.93   28.80
  -1  -6  -9  666.03   27.70
   1   6   9  684.03   27.40
   1   6   9  662.03   26.80
   1   6   9  686.03   27.00
  -2  -6  -9   59.59   11.40
  -2  -6  -9   53.89   10.60
  -2  -6  -9   59.99   10.80
   2   6   9   54.39   11.00
   2   6   9   57.69   12.50
   2   6   9   51.09    9.90
   2   6   9   56.49   10.20
  -3  -6  -9  645.04   24.60
  -3  -6  -9  632.54   26.20
  -3  -6  -9  621.74   24.30
   3   6   9  622.64   25.70
   3   6   9  634.74   24.20
   3   6   9  657.03   24.00
   3   6   9  661.33   24.90
  -4  -6  -9   92.19   10.30
  -4  -6  -9   86.69   11.50
  -4  -6  -9   82.49   10.80
  -4  -6  -9   81.69   10.90
   4   6   9   73.99   10.10
   4   6   9   93.99   10.90
   4   6   9   95.19   11.10
   4   6   9   81.69   10.60
  -5  -6  -9 1221.78   37.70
  -5  -6  -9 1228.58   36.60
  -5  -6  -9 1296.97   35.70
  -5  -6  -9 1248.18   39.70
   5   6   9 1334.87   36.70
   5   6   9 1232.98   37.20
   5   6   9 1282.37   36.70
   5   6   9 1337.27   36.40
  -6  -6  -9  362.46   17.40
  -6  -6  -9  413.76   18.80
  -6  -6  -9  366.16   21.60
   6   6   9  364.16   17.20
   6   6   9  351.06   18.20
   6   6   9  350.06   17.90
   6   6   9  363.66   18.10
  -7  -6  -9    1.90    8.50
  -7  -6  -9   16.40    8.30
  -7  -6  -9   -8.70    9.10
  -7  -6  -9    2.20    7.40
   7   6   9   10.10    7.80
   7   6   9    1.00    7.40
   7   6   9   11.20    7.70
   7   6   9   -1.70    7.60
  -8  -6  -9   23.60    7.90
  -8  -6  -9   25.20    9.10
  -8  -6  -9   20.10   11.00
  -8  -6  -9   16.50    8.90
   8   6   9   41.20    9.00
   8   6   9   10.20    8.20
   8   6   9   18.70    7.80
   8   6   9   26.10    8.50
  -9  -6  -9  116.99   11.60
  -9  -6  -9  140.79   13.00
  -9  -6  -9  104.39   14.60
  -9  -6  -9  131.39   10.70
  -9  -6  -9  114.09   11.00
   9   6   9  117.99   10.80
   9   6   9  126.29   10.20
   9   6   9  125.69   10.80
   9   6   9  126.29   11.30
 -10  -6  -9   81.19    9.60
 -10  -6  -9   85.59    8.90
 -10  -6  -9   89.29    9.30
 -10  -6  -9   88.79    9.60
  10   6   9   82.79    8.70
  10   6   9   92.59    9.90
  10   6   9   97.49    9.40
  10   6   9   89.29   10.30
   1  -7  -9   51.59   15.20
   1  -7  -9   85.39   16.80
   1  -7  -9   43.40   14.90
   1  -7  -9   59.19   15.20
  -1   7   9   47.80   15.20
  -1   7   9   49.60   14.90
  -1   7   9   37.60   13.60
  -1   7   9   35.60   14.80
   0  -7  -9 1037.50   38.40
   0  -7  -9 1044.30   37.10
   0  -7  -9 1003.30   37.40
   0  -7  -9 1053.69   37.00
   0   7   9 1039.60   37.50
   0   7   9 1085.69   38.90
   0   7   9  959.30   35.50
   0   7   9 1026.80   36.90
  -1  -7  -9  483.85   24.10
  -1  -7  -9  491.45   26.00
  -1  -7  -9  525.95   26.20
  -1  -7  -9  543.75   26.00
   1   7   9  502.85   27.20
   1   7   9  555.74   26.00
   1   7   9  484.15   25.60
   1   7   9  500.35   24.40
  -2  -7  -9   52.99   20.00
  -2  -7  -9   48.80   12.90
  -2  -7  -9   75.59   12.00
  -2  -7  -9   55.69   12.50
   2   7   9   68.59   12.20
   2   7   9   77.19   12.70
   2   7   9   82.99   12.40
   2   7   9   81.19   12.50
  -3  -7  -9   69.69   12.50
  -3  -7  -9   89.99   12.40
  -3  -7  -9   47.40   11.90
   3   7   9   69.99   11.90
   3   7   9   80.69   11.60
   3   7   9   66.39   11.60
  -4  -7  -9  239.68   18.20
  -4  -7  -9  233.28   20.30
  -4  -7  -9  213.08   16.60
  -4  -7  -9  195.38   16.80
   4   7   9  249.48   18.10
   4   7   9  246.28   16.90
   4   7   9  217.18   18.60
   4   7   9  232.28   17.70
  -5  -7  -9  314.07   17.80
  -5  -7  -9  304.77   18.90
  -5  -7  -9  313.07   21.40
  -5  -7  -9  293.97   20.50
  -5  -7  -9  294.77   18.80
   5   7   9  310.27   19.00
   5   7   9  295.97   18.70
   5   7   9  317.97   18.30
   5   7   9  276.57   18.30
  -6  -7  -9   31.10   10.70
  -6  -7  -9   42.30    9.70
  -6  -7  -9   50.69   11.00
  -6  -7  -9   34.60   10.70
   6   7   9   31.70    9.20
   6   7   9   42.20   10.10
   6   7   9   41.20    9.70
   6   7   9   48.80    9.50
  -7  -7  -9  197.68   18.10
  -7  -7  -9  209.98   17.40
  -7  -7  -9  202.48   16.30
  -7  -7  -9  178.58   17.00
   7   7   9  222.08   16.10
   7   7   9  204.78   16.70
   7   7   9  229.98   17.10
   7   7   9  196.48   16.90
  -8  -7  -9    6.80    8.60
  -8  -7  -9   18.50   10.20
  -8  -7  -9   -1.90    9.90
  -8  -7  -9   13.60   11.50
   8   7   9   13.40    8.60
   8   7   9   -0.30    9.10
   8   7   9    4.80    8.70
   8   7   9   -1.10    8.80
  -9  -7  -9   37.40   13.20
  -9  -7  -9   38.60   10.00
  -9  -7  -9   32.70   10.50
  -9  -7  -9   58.39   11.30
   9   7   9   43.90    9.50
   9   7   9   32.90    9.90
   9   7   9   48.10    9.70
   9   7   9   32.80   10.10
   0  -8  -9  -10.90   14.00
   0  -8  -9   21.20   14.20
   0  -8  -9   -4.20   13.80
   0  -8  -9  -12.40   14.20
   0   8   9   12.50   14.50
   0   8   9   19.00   14.30
   0   8   9   15.90   14.20
   0   8   9    4.00   13.40
  -1  -8  -9   27.80   13.50
  -1  -8  -9    4.20   12.60
  -1  -8  -9   31.50   13.40
  -1  -8  -9   21.10   12.60
   1   8   9   18.70   13.10
   1   8   9    5.60   12.20
   1   8   9   18.00   12.60
   1   8   9    4.00   12.50
  -2  -8  -9   40.80   12.00
  -2  -8  -9   49.40   13.40
  -2  -8  -9   54.69   12.80
  -2  -8  -9   38.60   12.50
   2   8   9   52.79   13.30
   2   8   9   52.89   13.30
   2   8   9   49.40   12.60
   2   8   9   54.19   13.20
  -3  -8  -9  292.97   24.10
  -3  -8  -9  318.17   22.30
  -3  -8  -9  356.46   23.20
   3   8   9  324.47   21.60
   3   8   9  374.46   24.40
   3   8   9  359.26   22.40
   3   8   9  356.16   21.70
  -4  -8  -9  385.16   24.00
  -4  -8  -9  373.86   24.40
  -4  -8  -9  402.36   22.50
  -4  -8  -9  414.06   23.20
   4   8   9  414.46   23.80
   4   8   9  354.36   21.30
   4   8   9  391.46   22.90
   4   8   9  381.96   21.50
  -5  -8  -9  137.89   14.90
  -5  -8  -9  149.29   14.10
  -5  -8  -9  166.98   14.50
  -5  -8  -9  116.39   14.50
   5   8   9  156.58   14.50
   5   8   9  174.78   14.60
   5   8   9  158.88   15.00
   5   8   9  131.09   14.40
  -6  -8  -9    9.90    9.90
  -6  -8  -9   16.00   12.00
  -6  -8  -9   27.20   10.90
  -6  -8  -9    5.20   11.30
  -6  -8  -9   31.10   11.40
   6   8   9   -2.40    9.70
   6   8   9   17.70    9.30
   6   8   9   23.90   10.20
   6   8   9   16.80   10.30
  -7  -8  -9   43.50   12.10
  -7  -8  -9   35.00   11.30
  -7  -8  -9   51.29   10.70
  -7  -8  -9   66.19   13.10
   7   8   9   58.29   10.90
   7   8   9   49.60   12.00
   7   8   9   58.99   11.30
   7   8   9   48.80   10.50
  -8  -8  -9  174.08   16.60
  -8  -8  -9  148.19   13.70
  -8  -8  -9  165.78   15.20
  -8  -8  -9  133.29   13.50
  -8  -8  -9  125.09   13.90
   8   8   9  118.99   13.90
   8   8   9  162.18   14.80
   8   8   9  154.88   14.30
   8   8   9  136.69   13.30
  -9  -8  -9  353.86   20.90
  -9  -8  -9  408.96   26.10
  -9  -8  -9  339.47   20.80
  -9  -8  -9  335.47   22.70
  -9  -8  -9  332.37   22.10
   9   8   9  332.17   21.70
   9   8   9  373.86   21.10
   9   8   9  376.76   20.70
   9   8   9  335.37   20.90
  -1  -9  -9   45.70   14.90
  -1  -9  -9   25.30   15.40
  -1  -9  -9   41.40   15.80
  -1  -9  -9   75.39   17.10
   1   9   9   47.00   15.70
   1   9   9   50.89   16.40
   1   9   9   69.49   15.20
   1   9   9   50.79   14.90
  -2  -9  -9   69.39   15.00
  -2  -9  -9   57.69   14.50
  -2  -9  -9   67.19   15.60
  -2  -9  -9   33.20   14.80
   2   9   9   15.70   13.70
   2   9   9   73.29   15.40
   2   9   9   68.79   15.40
   2   9   9   58.09   14.70
  -3  -9  -9   91.59   13.90
  -3  -9  -9  101.89   15.50
  -3  -9  -9   94.39   14.90
  -3  -9  -9   99.69   15.50
   3   9   9  115.69   15.50
   3   9   9  124.99   16.20
   3   9   9  103.49   15.80
   3   9   9  124.69   15.60
  -4  -9  -9   34.80   13.30
  -4  -9  -9    5.40   13.20
  -4  -9  -9   27.10   13.90
  -4  -9  -9   32.60   13.00
  -4  -9  -9   14.50   12.90
   4   9   9   30.60   13.00
   4   9   9   21.00   12.30
   4   9   9   15.30   12.10
   4   9   9   22.40   12.10
  -5  -9  -9   17.10   12.10
  -5  -9  -9   15.10   11.80
  -5  -9  -9   28.10   13.00
  -5  -9  -9   34.10   13.20
   5   9   9   -6.30   10.90
   5   9   9   19.40   11.50
   5   9   9    4.00   11.70
   5   9   9   14.90   11.90
  -6  -9  -9  363.46   22.10
  -6  -9  -9  368.66   23.20
  -6  -9  -9  323.77   22.60
  -6  -9  -9  309.57   24.80
  -6  -9  -9  342.77   23.60
   6   9   9  313.47   21.70
   6   9   9  362.16   23.10
   6   9   9  336.47   24.20
   6   9   9  323.87   22.50
  -7  -9  -9  419.66   23.50
  -7  -9  -9  455.05   23.60
  -7  -9  -9  427.56   24.30
  -7  -9  -9  441.16   26.10
  -7  -9  -9  473.55   25.30
   7   9   9  471.45   24.80
   7   9   9  455.95   25.50
   7   9   9  433.66   23.40
   7   9   9  432.46   24.60
  -8  -9  -9   25.10   15.20
  -8  -9  -9    9.80   12.40
  -8  -9  -9   13.90   12.00
  -8  -9  -9   -5.40   11.60
  -8  -9  -9   12.30   11.10
   8   9   9   30.10   12.40
   8   9   9   27.30   12.90
   8   9   9   26.10   11.40
   8   9   9   20.70   12.10
  -4 -10  -9  491.75   28.90
  -4 -10  -9  505.45   27.90
  -4 -10  -9  507.85   29.20
  -4 -10  -9  514.65   28.40
  -4 -10  -9  487.85   30.70
   4  10   9  481.25   26.90
   4  10   9  452.95   28.10
   4  10   9  533.85   29.00
   4  10   9  486.35   30.10
  -5 -10  -9   55.29   14.70
  -5 -10  -9   59.69   15.80
  -5 -10  -9   57.19   16.20
  -5 -10  -9   63.19   14.10
  -5 -10  -9   61.19   14.20
   5  10   9   71.49   15.10
   5  10   9   46.80   14.10
   5  10   9   53.39   15.60
   5  10   9   74.19   13.90
  -6 -10  -9  296.07   25.50
  -6 -10  -9  347.07   24.20
  -6 -10  -9  283.17   23.30
  -6 -10  -9  268.07   24.10
  -6 -10  -9  312.57   27.50
   6  10   9  285.27   25.60
   6  10   9  314.77   24.50
   6  10   9  296.07   23.40
   6  10   9  298.87   25.20
   1   7 -10    3.00   15.10
   1   7 -10   11.50   15.00
   1   7 -10   -8.90   16.20
   1   7 -10   21.00   15.20
   1   7 -10   22.60   13.20
  -1  -7  10   -2.00   16.00
  -1  -7  10    2.80   13.80
  -1  -7  10   28.00   17.80
  -1  -7  10   14.30   21.90
  -1  -7  10   51.99   14.40
   0   7 -10  172.78   17.90
   0   7 -10  129.29   14.50
   0   7 -10  164.58   21.30
   0   7 -10  127.99   17.80
   0   7 -10  119.29   18.60
   0   7 -10  109.59   17.90
   0  -7  10  132.09   16.30
   0  -7  10  137.99   20.40
   0  -7  10  142.39   16.80
   0  -7  10  101.49   25.20
   3   6 -10   19.20   15.30
   3   6 -10   14.90   18.60
   3   6 -10   27.00   17.10
   3   6 -10   33.20   15.00
  -3  -6  10    5.90   14.90
  -3  -6  10   18.20   17.60
  -3  -6  10   47.20   15.10
  -3  -6  10   31.10   17.70
  -3  -6  10   30.90   18.20
   2   6 -10  150.58   17.50
   2   6 -10  106.79   19.00
   2   6 -10   83.09   17.50
   2   6 -10  106.09   17.90
  -2  -6  10  128.39   19.80
  -2  -6  10  118.69   21.10
  -2  -6  10  132.79   16.50
  -2  -6  10  106.39   19.10
   1   6 -10   92.39   15.40
   1   6 -10   68.59   16.90
   1   6 -10  104.39   17.10
   1   6 -10   78.89   17.40
  -1  -6  10   77.39   15.70
  -1  -6  10   92.49   15.20
  -1  -6  10  104.29   18.40
  -1  -6  10   77.29   17.80
  -1  -6  10   85.09   31.70
   0   6 -10  482.15   25.70
   0   6 -10  537.35   30.10
   0   6 -10  519.25   25.90
   0   6 -10  554.94   29.10
   0   6 -10  526.45   28.10
   0  -6  10  454.95   25.80
   0  -6  10  513.75   27.00
   0  -6  10  541.35   29.70
   0  -6  10  544.05   32.30
  -1   6 -10  110.59   15.90
  -1   6 -10   93.79   14.50
  -1   6 -10  116.29   13.60
  -1   6 -10  117.49   16.30
  -1   6 -10  101.89   14.90
   1  -6  10  128.59   23.90
   1  -6  10   79.09   13.60
   1  -6  10   83.99   13.90
   1  -6  10  144.99   16.70
   1  -6  10  118.39   17.60
  -2   6 -10    2.20   12.40
  -2   6 -10    2.10   12.00
  -2   6 -10    5.00   15.70
  -2   6 -10   22.70   12.40
  -2   6 -10   23.40   11.30
  -2   6 -10   20.10   13.30
   2  -6  10   -3.70   14.00
   2  -6  10   -5.40   21.40
   2  -6  10   15.70   13.10
   2  -6  10   20.70   11.30
   2  -6  10   11.80   10.60
  -3   6 -10   15.60   12.00
  -3   6 -10   36.10   13.90
  -3   6 -10   41.70   12.30
  -3   6 -10   55.79   11.80
  -3   6 -10   35.90   17.20
  -3   6 -10   31.10   12.20
   3  -6  10   23.50   11.10
   3  -6  10   31.80   13.00
   3  -6  10   20.90   23.90
   3  -6  10   29.80   14.00
   3  -6  10   60.99   11.90
   4   5 -10   33.70   16.50
   4   5 -10    2.60   18.20
   4   5 -10   10.20   15.50
   4   5 -10   21.40   18.40
  -4  -5  10   26.00   15.60
  -4  -5  10   48.80   19.60
  -4  -5  10   18.70   15.70
  -4  -5  10   16.80   17.40
  -4  -5  10   24.60   16.20
   3   5 -10  133.09   16.80
   3   5 -10   96.89   16.70
   3   5 -10  153.48   20.10
   3   5 -10  162.18   20.50
  -3  -5  10  118.39   17.50
  -3  -5  10  118.99   17.70
  -3  -5  10  150.98   20.00
  -3  -5  10  133.19   18.40
  -3  -5  10  114.39   18.60
   2   5 -10   23.30   13.80
   2   5 -10   37.10   15.90
   2   5 -10   41.50   14.80
  -2  -5  10   40.40   16.20
  -2  -5  10   51.49   17.30
  -2  -5  10    8.60   13.60
  -2  -5  10   17.50   16.00
  -2  -5  10   31.90   13.40
   1   5 -10  158.38   17.50
   1   5 -10  184.48   17.30
   1   5 -10  163.38   18.80
  -1  -5  10  155.98   15.30
  -1  -5  10  184.08   19.40
  -1  -5  10  187.08   21.10
  -1  -5  10  188.78   17.00
  -1  -5  10  183.98   18.70
   0   5 -10   40.00   13.00
   0   5 -10   15.90   12.80
   0   5 -10    3.80   11.80
   0   5 -10   38.10   11.70
   0  -5  10   23.30   14.40
   0  -5  10   39.30   11.80
   0  -5  10   41.40   11.20
   0  -5  10   46.30   15.00
   0  -5  10   23.00   16.60
  -1   5 -10  246.28   21.50
  -1   5 -10  234.48   20.20
  -1   5 -10  281.57   22.10
  -1   5 -10  272.57   22.80
   1  -5  10  270.07   21.50
   1  -5  10  299.37   24.40
   1  -5  10  271.17   20.10
   1  -5  10  281.37   19.80
  -2   5 -10  100.69   13.50
   2  -5  10   67.19   12.00
   2  -5  10   89.89   14.60
   2  -5  10  110.19   12.30
   2  -5  10  100.49   21.00
   2  -5  10   96.09   13.90
  -3   5 -10    1.20   10.00
  -3   5 -10   -1.00   10.30
  -3   5 -10    1.50   10.30
  -3   5 -10  -20.10    9.70
   3  -5  10   -0.50    9.70
   3  -5  10    9.50   11.30
   3  -5  10    5.30    9.50
   3  -5  10   -9.00   10.70
   3  -5  10  -10.70   19.10
  -4   5 -10   73.79   12.70
  -4   5 -10   80.59   11.90
  -4   5 -10   59.69   11.20
  -4   5 -10   80.89   11.90
   4  -5  10   79.19   11.30
   4  -5  10   48.80   21.20
   4  -5  10   74.89   12.60
   4  -5  10   73.29   11.80
   4  -5  10   67.79   10.70
  -5   5 -10  101.59   11.00
  -5   5 -10  106.09   13.90
   5  -5  10   67.59   10.90
   5  -5  10   84.59   10.80
   5  -5  10  120.39   25.70
   4   4 -10   34.80   17.30
   4   4 -10   38.40   16.30
   4   4 -10   48.00   15.50
   4   4 -10   31.10   17.00
  -4  -4  10   33.80   13.90
  -4  -4  10   22.90   18.20
  -4  -4  10    9.50   14.10
  -4  -4  10   40.90   15.00
  -4  -4  10   -2.60   16.70
   3   4 -10    7.70   14.70
   3   4 -10   -3.60   12.20
   3   4 -10   -4.30   14.40
   3   4 -10    3.20   12.00
  -3  -4  10   -6.60   14.20
  -3  -4  10    8.00   23.90
  -3  -4  10    3.60   13.10
  -3  -4  10    4.80   12.50
  -3  -4  10   11.20   14.80
   2   4 -10   28.30   14.20
   2   4 -10   -3.10   13.10
   2   4 -10    5.60   12.60
  -2  -4  10    0.40   13.40
  -2  -4  10   -3.10   13.50
  -2  -4  10    6.80   13.00
  -2  -4  10   17.00   11.50
  -2  -4  10   12.40   14.50
   1   4 -10  377.06   23.50
   1   4 -10  361.66   25.70
   1   4 -10  411.66   25.30
  -1  -4  10  382.76   23.60
  -1  -4  10  420.66   29.60
  -1  -4  10  435.56   38.00
  -1  -4  10  395.76   21.40
  -1  -4  10  374.46   27.00
   0   4 -10  146.29   14.60
   0   4 -10  143.09   15.30
   0   4 -10  138.49   15.20
   0  -4  10  134.09   15.00
   0  -4  10  133.29   16.10
   0  -4  10  131.59   14.00
   0  -4  10  166.68   19.10
   0  -4  10  139.79   13.90
  -1   4 -10   69.09   12.60
  -1   4 -10   54.69   14.10
  -1   4 -10   57.29   11.70
   1  -4  10   47.10   13.10
   1  -4  10   63.29   11.80
   1  -4  10   68.09   12.90
   1  -4  10   68.19   11.30
   1  -4  10   82.29   17.40
  -2   4 -10   82.99   12.50
  -2   4 -10   77.79   12.00
   2  -4  10   56.19   12.80
   2  -4  10   49.80   10.30
   2  -4  10   88.79   11.50
   2  -4  10   68.69   12.30
  -3   4 -10  108.99   12.70
  -3   4 -10  141.59   15.20
  -3   4 -10  129.09   13.00
  -3   4 -10  116.99   12.10
  -3   4 -10  144.69   14.10
   3  -4  10  168.68   14.40
   3  -4  10  144.29   12.30
   3  -4  10  128.09   14.10
   3  -4  10  132.79   12.20
  -4   4 -10  468.15   20.50
  -4   4 -10  436.76   20.20
  -4   4 -10  451.75   22.80
  -4   4 -10  422.46   20.70
  -4   4 -10  429.66   20.80
   4  -4  10  413.86   19.90
   4  -4  10  435.86   19.10
   4  -4  10  460.05   22.60
   4  -4  10  477.05   38.50
   4  -4  10  405.86   19.40
  -5   4 -10   50.79   11.90
  -5   4 -10   59.59    9.30
  -5   4 -10   50.99    9.80
   5  -4  10   49.90    8.70
   5  -4  10   43.90    9.30
   5  -4  10   82.99   10.90
   5  -4  10   84.39   22.70
  -6   4 -10  879.11   25.00
  -6   4 -10  848.42   23.20
  -6   4 -10  870.71   23.30
   6  -4  10  864.21   23.20
   6  -4  10  855.71   25.30
   6  -4  10  871.81   47.90
   6  -4  10  841.32   25.30
   6  -4  10  840.02   23.40
   5   3 -10   -3.00   15.20
   5   3 -10   -3.70   18.10
   5   3 -10  -13.40   18.10
   5   3 -10    1.00   15.60
  -5  -3  10  -20.20   18.10
  -5  -3  10  -25.00   11.30
  -5  -3  10   34.60   19.00
  -5  -3  10   24.60   16.50
  -5  -3  10   12.60   15.30
   4   3 -10   26.20   16.40
   4   3 -10   30.30   17.30
   4   3 -10   33.40   14.20
  -4  -3  10   39.10   14.40
  -4  -3  10   29.10   13.20
  -4  -3  10   15.80   14.40
  -4  -3  10   25.80   17.10
  -4  -3  10   43.60   16.90
   3   3 -10  103.89   14.40
   3   3 -10   72.69   14.20
   3   3 -10  100.39   16.70
   3   3 -10  122.49   17.40
  -3  -3  10   85.49   17.00
  -3  -3  10   84.79   16.60
  -3  -3  10   97.09   15.30
  -3  -3  10  100.99   15.00
  -3  -3  10   77.49   15.00
   2   3 -10  232.18   22.30
   2   3 -10  258.57   24.00
  -2  -3  10  254.67   21.30
  -2  -3  10  237.18   19.80
  -2  -3  10  249.08   19.80
  -2  -3  10  207.88   18.20
   1   3 -10   13.00   11.30
   1   3 -10    4.50   11.40
   1   3 -10   19.50   10.90
  -1  -3  10   -4.30   12.20
  -1  -3  10   10.20   10.50
  -1  -3  10    7.90    9.70
  -1  -3  10   19.50   12.20
  -1  -3  10    6.10   13.60
   0   3 -10    6.20    9.30
   0   3 -10  -11.00   10.20
   0   3 -10   -0.20   11.20
   0  -3  10    1.00    9.00
   0  -3  10    1.00   10.20
   0  -3  10   -8.50   10.90
   0  -3  10   -2.80    8.80
   0  -3  10   21.30   14.20
  -1   3 -10  635.34   25.50
  -1   3 -10  635.84   25.90
  -1   3 -10  660.83   26.40
   1  -3  10  668.93   25.40
   1  -3  10  672.83   32.60
   1  -3  10  635.64   27.50
   1  -3  10  660.03   24.60
   1  -3  10  661.83   27.00
  -2   3 -10  762.62   27.70
  -2   3 -10  732.83   27.00
   2  -3  10  768.92   26.00
   2  -3  10  751.22   26.60
   2  -3  10  771.02   35.40
   2  -3  10  801.42   29.20
   2  -3  10  767.02   27.80
  -3   3 -10   41.70    9.00
  -3   3 -10   25.40   10.20
  -3   3 -10   50.79   10.10
  -3   3 -10   29.40    9.90
   3  -3  10   27.90    9.80
   3  -3  10   40.20    8.90
   3  -3  10   37.10    8.70
   3  -3  10   25.50   18.30
   3  -3  10   26.60   10.50
  -4   3 -10   29.50    9.40
  -4   3 -10   37.90   10.50
  -4   3 -10   37.90    8.90
   4  -3  10   29.80    8.20
   4  -3  10   35.30   10.40
   4  -3  10   34.30    9.20
   4  -3  10   33.80    8.60
  -5   3 -10   67.79   11.80
  -5   3 -10   81.79    9.80
  -5   3 -10   78.59    8.10
   5  -3  10   61.79    8.20
   5  -3  10   72.29   10.40
   5  -3  10   63.39    8.90
  -6   3 -10  161.68   15.80
  -6   3 -10  133.59   11.10
  -6   3 -10  152.28   11.40
  -6   3 -10  156.88   10.00
   6  -3  10  110.09    8.90
   6  -3  10  135.99   11.10
   6  -3  10  143.09    9.60
   6  -3  10  102.39   23.70
   6  -3  10  140.79   12.10
   7  -3  10   34.00   24.30
   5   2 -10   -2.50   14.40
   5   2 -10   37.40   18.90
   5   2 -10   58.59   18.90
   5   2 -10   35.40   14.80
  -5  -2  10   36.50   17.80
  -5  -2  10   52.89   18.70
  -5  -2  10  -12.10   15.50
  -5  -2  10   17.80   11.90
  -5  -2  10   39.50   15.60
   4   2 -10  185.18   19.70
   4   2 -10  200.18   18.00
   4   2 -10  216.98   20.50
  -4  -2  10  173.78   20.10
  -4  -2  10  211.38   18.90
  -4  -2  10  181.28   18.80
  -4  -2  10  194.78   16.10
  -4  -2  10  208.18   20.30
   3   2 -10  681.03   32.70
   3   2 -10  699.93   29.30
   3   2 -10  708.83   31.20
  -3  -2  10  705.33   29.50
  -3  -2  10  634.64   28.30
  -3  -2  10  758.62   33.50
  -3  -2  10  699.23   30.90
  -3  -2  10  718.13   30.50
   2   2 -10  -14.70   11.00
   2   2 -10   20.60   12.00
   2   2 -10   24.10   12.80
  -2  -2  10   14.80   11.80
  -2  -2  10   20.80   10.50
  -2  -2  10   31.50   13.00
  -2  -2  10    5.60    9.90
  -2  -2  10    9.00   12.80
   1   2 -10 1565.64   45.90
   1   2 -10 1503.05   44.70
  -1  -2  10 1438.06   48.60
  -1  -2  10 1529.85   46.10
  -1  -2  10 1507.45   44.40
  -1  -2  10 1427.76   43.00
  -1  -2  10 1565.54   45.40
   0   2 -10  126.69   12.90
   0   2 -10  118.89   13.40
   0  -2  10  138.89   14.40
   0  -2  10  134.49   12.60
   0  -2  10  139.09   13.60
   0  -2  10  134.89   16.00
   0  -2  10  126.19   12.50
  -1   2 -10  705.53   26.80
  -1   2 -10  738.13   27.70
  -1   2 -10  726.23   26.70
   1  -2  10  733.53   26.90
   1  -2  10  761.42   32.60
   1  -2  10  735.53   25.50
   1  -2  10  725.33   26.30
   1  -2  10  738.23   28.50
  -2   2 -10   13.20    9.20
   2  -2  10    2.80   12.40
   2  -2  10   14.10    9.40
   2  -2  10    4.40    9.00
   2  -2  10   10.80    7.80
   2  -2  10   10.70    8.00
  -3   2 -10 1303.07   37.50
  -3   2 -10 1401.56   37.50
  -3   2 -10 1338.57   41.40
  -3   2 -10 1329.77   37.50
   3  -2  10 1359.66   37.90
   3  -2  10 1257.27   39.60
   3  -2  10 1374.66   37.10
   3  -2  10 1378.86   46.70
   3  -2  10 1309.77   38.70
  -4   2 -10  697.23   23.80
  -4   2 -10  717.63   22.90
  -4   2 -10  691.23   23.40
  -4   2 -10  685.83   23.50
  -4   2 -10  716.33   28.10
   4  -2  10  681.33   24.70
   4  -2  10  730.73   22.50
   4  -2  10  688.53   22.90
   4  -2  10  676.33   23.50
  -5   2 -10   -3.80    6.60
  -5   2 -10    9.00    6.60
  -5   2 -10   17.00   10.10
  -5   2 -10    7.40    7.50
   5  -2  10    1.60    6.60
   5  -2  10    3.90    6.50
   5  -2  10    0.30    7.60
  -6   2 -10   19.80    6.30
  -6   2 -10   24.30    4.60
  -6   2 -10   20.10    5.00
  -6   2 -10   21.70   11.10
  -6   2 -10   15.30    9.60
   6  -2  10   13.70   17.40
   6  -2  10   14.80    5.50
   6  -2  10   15.30    5.90
   6  -2  10   13.30    6.90
   6  -2  10   20.50    4.50
  -7   2 -10   81.09   13.70
   7  -2  10   61.69   22.50
   5   1 -10  417.96   34.10
   5   1 -10  441.26   28.80
   5   1 -10  450.55   33.20
   5   1 -10  463.35   29.20
  -5  -1  10  500.75   30.90
  -5  -1  10  483.55   33.90
  -5  -1  10  433.16   23.00
  -5  -1  10  464.95   29.30
  -5  -1  10  481.65   33.50
   4   1 -10   14.80   15.40
   4   1 -10    3.90   18.20
   4   1 -10   17.00   12.40
   4   1 -10   12.00   15.10
  -4  -1  10   -6.40   14.10
  -4  -1  10   13.10   14.10
  -4  -1  10   -6.00   14.80
  -4  -1  10   27.10   11.70
  -4  -1  10    7.10   12.30
   3   1 -10  108.29   14.40
   3   1 -10   87.79   13.90
   3   1 -10   80.09   14.70
   3   1 -10  108.39   16.30
  -3  -1  10  110.69   21.90
  -3  -1  10  102.09   15.20
  -3  -1  10   85.69   13.80
  -3  -1  10   91.89   14.20
  -3  -1  10   86.19   16.00
   2   1 -10  177.78   15.80
   2   1 -10  192.58   16.90
   2   1 -10  143.19   20.40
   2   1 -10  193.78   16.80
  -2  -1  10  181.28   17.30
  -2  -1  10  158.18   15.80
  -2  -1  10  196.98   17.10
  -2  -1  10  175.48   15.60
  -2  -1  10  215.58   20.40
   1   1 -10  540.55   26.00
   1   1 -10  493.35   23.10
   1   1 -10  494.95   24.00
  -1  -1  10  516.95   26.00
  -1  -1  10  516.45   29.60
  -1  -1  10  504.85   23.80
  -1  -1  10  494.95   22.60
  -1  -1  10  524.55   27.60
   0   1 -10   59.19    9.80
   0   1 -10   63.39   11.50
   0   1 -10   96.79   12.30
   0  -1  10   72.49   10.90
   0  -1  10   70.69   10.80
   0  -1  10   74.79   13.60
   0  -1  10   76.59   12.70
   0  -1  10   83.89   12.10
  -1   1 -10   19.90    9.00
  -1   1 -10   21.70    9.10
  -1   1 -10   29.70    9.90
  -1   1 -10   37.80   10.10
   1  -1  10   33.90    8.70
   1  -1  10   38.70   12.70
   1  -1  10   27.00    9.70
   1  -1  10   22.80    8.20
   1  -1  10   19.90   10.20
  -2   1 -10    6.30   13.10
  -2   1 -10   11.50    9.40
  -2   1 -10   33.50    9.00
  -2   1 -10   20.30    8.80
   2  -1  10   41.90    8.30
   2  -1  10   15.00    9.10
   2  -1  10    6.00   12.10
   2  -1  10    9.70    8.70
   2  -1  10   18.80    7.90
  -3   1 -10   21.60    8.00
  -3   1 -10   14.80    8.10
  -3   1 -10   13.30    7.40
  -3   1 -10   12.40    9.90
  -3   1 -10    0.00    7.60
   3  -1  10    0.20    8.80
   3  -1  10   22.70   12.90
   3  -1  10   27.20    8.50
   3  -1  10   12.00    7.30
   3  -1  10    9.20    7.10
  -4   1 -10   22.00    8.20
  -4   1 -10   21.60    7.40
  -4   1 -10   26.80    7.40
  -4   1 -10   32.90    7.50
  -4   1 -10   28.30    9.70
   4  -1  10   19.50    8.70
   4  -1  10   22.10    6.90
   4  -1  10   20.00    8.40
   4  -1  10   31.40    7.40
   4  -1  10   27.20   15.10
  -5   1 -10   -1.40    9.60
  -5   1 -10    0.80    6.70
  -5   1 -10    2.70    6.70
  -5   1 -10    1.80    5.90
   5  -1  10    2.30    7.70
   5  -1  10    8.30    6.20
   5  -1  10    4.20    6.90
   5  -1  10    5.90    6.00
  -6   1 -10   11.80   10.30
  -6   1 -10   11.10    4.90
  -6   1 -10    5.50    4.30
  -6   1 -10   11.10    5.70
  -6   1 -10   12.80    5.60
   6  -1  10   14.20    6.50
   6  -1  10    3.60    5.20
   6  -1  10    4.30    5.20
   6  -1  10    1.00    4.10
  -7   1 -10  408.26   25.10
   7  -1  10  406.66   34.30
   8  -1  10  532.85   39.50
   4   0 -10  445.26   29.80
   4   0 -10  515.15   32.10
   4   0 -10  455.25   25.80
   4   0 -10  473.55   27.60
  -4   0  10  446.56   30.70
  -4   0  10  464.05   23.20
  -4   0  10  475.95   29.60
  -4   0  10  456.95   25.90
  -4   0  10  438.66   31.00
   3   0 -10  296.77   23.40
   3   0 -10  393.66   25.40
   3   0 -10  351.66   22.10
   3   0 -10  352.26   26.60
  -3   0  10  378.66   22.20
  -3   0  10  302.47   27.80
  -3   0  10  352.56   23.30
  -3   0  10  339.87   24.10
  -3   0  10  355.36   25.40
   2   0 -10   16.40   12.20
   2   0 -10    7.00    9.70
   2   0 -10   19.80   11.80
   2   0 -10   27.10   12.10
  -2   0  10   18.00   11.80
  -2   0  10   29.50   13.90
  -2   0  10   14.50   12.20
  -2   0  10   35.40   10.50
  -2   0  10   20.80   11.60
   1   0 -10   16.90   10.40
   1   0 -10    8.20   10.80
   1   0 -10   -1.80    9.70
   1   0 -10   10.10    9.80
  -1   0  10   10.80   10.80
  -1   0  10   17.20    9.20
  -1   0  10    2.40   10.40
  -1   0  10    1.50   11.00
  -1   0  10    1.30   10.80
   0   0 -10  421.06   20.10
   0   0 -10  436.76   22.10
   0   0 -10  440.76   22.30
   0   0  10  438.86   19.90
   0   0  10  455.05   22.20
   0   0  10  455.15   23.60
   0   0  10  426.06   22.60
   0   0  10  433.56   22.00
  -1   0 -10  431.76   21.30
  -1   0 -10  448.76   20.00
  -1   0 -10  457.55   20.10
  -1   0 -10  451.55   21.10
   1   0  10  416.16   19.20
   1   0  10  462.95   24.20
   1   0  10  419.16   21.40
   1   0  10  446.36   20.80
   1   0  10  448.46   20.40
  -2   0 -10  126.69   11.70
  -2   0 -10  104.69   11.00
  -2   0 -10  133.79   11.50
  -2   0 -10  135.89   11.80
   2   0  10  133.19   11.80
   2   0  10  114.89   11.20
   2   0  10  114.39   11.90
   2   0  10  124.59   15.20
  -3   0 -10  238.98   20.20
  -3   0 -10  251.07   15.60
  -3   0 -10  292.77   16.00
  -3   0 -10  279.57   16.20
  -3   0 -10  248.48   15.00
   3   0  10  313.37   23.30
   3   0  10  306.57   15.70
   3   0  10  268.37   14.70
   3   0  10  252.27   15.80
   3   0  10  276.47   17.10
  -4   0 -10  114.99   13.10
  -4   0 -10  113.59    9.70
  -4   0 -10  112.39    9.90
  -4   0 -10  110.79    9.80
  -4   0 -10  107.29   10.00
   4   0  10  102.19   15.50
   4   0  10  119.79   10.30
   4   0  10  106.99   10.70
   4   0  10  111.99    9.40
   4   0  10  102.99    9.20
  -5   0 -10   78.19    8.60
  -5   0 -10   98.49    9.00
  -5   0 -10   78.39   12.00
  -5   0 -10   92.59    8.60
  -5   0 -10  102.29    8.30
   5   0  10   78.79    9.40
   5   0  10  100.89    8.00
   5   0  10  103.69    9.00
   5   0  10  101.19    8.60
  -6   0 -10    2.90    6.20
  -6   0 -10    5.90    4.70
  -6   0 -10   11.20    5.50
  -6   0 -10   14.40    5.40
  -6   0 -10    7.30    9.70
   6   0  10    7.50    6.60
   6   0  10   10.60    4.60
   6   0  10    6.40    5.30
   6   0  10    2.70    5.60
  -7   0 -10  170.18   15.90
   7   0  10  144.09   20.60
  -8   0 -10   17.70   11.90
   8   0  10    2.70   19.60
   4  -1 -10  -31.30   15.50
   4  -1 -10    1.20   13.10
   4  -1 -10   12.50   13.60
   4  -1 -10    8.50   16.20
  -4   1  10   -2.40   16.00
  -4   1  10  -19.80   17.20
  -4   1  10    4.40   13.40
  -4   1  10    3.80   11.20
  -4   1  10   -6.10   16.20
   3  -1 -10  -29.60   11.30
   3  -1 -10    5.30   13.30
   3  -1 -10   14.10   13.20
   3  -1 -10    0.70   11.50
  -3   1  10    8.60   13.50
  -3   1  10   30.60   12.30
  -3   1  10   10.60   13.70
   2  -1 -10   63.99   13.10
   2  -1 -10   11.20   11.10
   2  -1 -10   17.10   11.10
   2  -1 -10   23.30   10.50
  -2   1  10   14.80   12.40
  -2   1  10   39.50   11.60
  -2   1  10   30.00   13.10
   1  -1 -10   58.59   11.30
   1  -1 -10   68.29   13.20
   1  -1 -10   60.59   11.70
   1  -1 -10   60.09   12.60
  -1   1  10   83.79   12.50
  -1   1  10   69.09   12.20
  -1   1  10   54.69   10.70
   0  -1 -10  342.77   20.60
   0  -1 -10  315.97   18.50
   0  -1 -10  292.57   20.10
   0   1  10  336.57   20.60
   0   1  10  338.77   18.50
   0   1  10  353.46   19.20
  -1  -1 -10 1535.65   43.70
  -1  -1 -10 1550.34   43.60
  -1  -1 -10 1564.64   43.00
  -1  -1 -10 1567.64   43.30
   1   1  10 1608.44   44.30
   1   1  10 1577.94   43.00
   1   1  10 1573.44   43.70
   1   1  10 1447.66   47.80
  -2  -1 -10   21.60    8.10
  -2  -1 -10   23.10    8.20
  -2  -1 -10   14.70    8.40
  -2  -1 -10   29.00    8.10
   2   1  10   16.70   11.20
   2   1  10   22.80   13.50
   2   1  10   24.90    9.00
   2   1  10    9.20    7.70
   2   1  10   22.50    8.80
  -3  -1 -10  433.46   18.90
  -3  -1 -10  480.95   18.70
  -3  -1 -10  452.65   19.30
   3   1  10  427.66   18.50
   3   1  10  466.45   24.80
   3   1  10  460.65   19.10
   3   1  10  445.56   18.80
   3   1  10  476.55   20.10
  -4  -1 -10  360.36   16.30
  -4  -1 -10  333.27   16.10
  -4  -1 -10  354.56   21.60
  -4  -1 -10  408.66   17.30
  -4  -1 -10  381.16   16.80
   4   1  10  357.66   16.70
   4   1  10  356.56   16.40
   4   1  10  404.66   24.40
   4   1  10  330.67   15.50
   4   1  10  360.46   17.80
  -5  -1 -10 2504.05   59.09
  -5  -1 -10 2574.24   59.79
  -5  -1 -10 2388.36   59.19
  -5  -1 -10 2499.65   66.39
  -5  -1 -10 2513.55   59.59
   5   1  10 2428.36   58.89
   5   1  10 2408.36   59.49
   5   1  10 2512.25   59.69
   5   1  10 2521.15   60.29
  -6  -1 -10  255.67   12.50
  -6  -1 -10  222.48   11.50
  -6  -1 -10  264.07   11.60
  -6  -1 -10  222.88   20.20
  -6  -1 -10  268.47   13.00
   6   1  10  237.78   12.50
   6   1  10  272.77   12.10
   6   1  10  274.97   14.10
   6   1  10  255.07   11.00
   6   1  10  329.17   35.80
  -7  -1 -10  412.86   13.10
  -7  -1 -10  411.16   12.70
  -7  -1 -10  377.86   23.80
   7   1  10  404.26   29.60
   7   1  10  411.36   13.00
   7   1  10  419.66   14.00
  -8  -1 -10   38.10   12.40
   8   1  10   53.69   18.80
   9   1  10  316.37   29.10
   4  -2 -10  288.47   24.00
   4  -2 -10  230.98   21.70
   4  -2 -10  256.67   21.30
   4  -2 -10  273.87   25.80
  -4   2  10  251.07   32.40
  -4   2  10  310.97   23.70
  -4   2  10  315.17   27.30
  -4   2  10  260.37   21.60
   3  -2 -10  239.18   20.40
   3  -2 -10  283.47   22.50
   3  -2 -10  284.37   22.50
  -3   2  10  267.87   24.70
  -3   2  10  295.67   26.60
  -3   2  10  281.57   22.30
   2  -2 -10   37.00   11.10
   2  -2 -10   26.30   11.30
   2  -2 -10   21.60   13.50
   2  -2 -10   10.10   12.10
  -2   2  10   50.19   12.00
  -2   2  10   -1.10   13.00
  -2   2  10   27.00   13.10
   1  -2 -10   17.50   11.60
   1  -2 -10   14.80   16.00
   1  -2 -10   11.30   10.50
   1  -2 -10    2.60   11.40
  -1   2  10   19.00   11.50
  -1   2  10   30.90   10.80
  -1   2  10   20.00   11.40
   0  -2 -10  359.86   18.80
   0  -2 -10  346.37   21.80
   0  -2 -10  348.07   20.80
   0  -2 -10  427.76   29.40
   0   2  10  310.37   19.40
   0   2  10  376.46   21.40
   0   2  10  342.37   21.60
  -1  -2 -10  485.15   24.70
  -1  -2 -10  452.65   21.90
  -1  -2 -10  423.86   19.60
  -1  -2 -10  487.45   22.70
   1   2  10  427.96   22.00
   1   2  10  493.15   22.50
   1   2  10  407.36   20.00
   1   2  10  385.06   30.10
  -2  -2 -10  165.98   14.40
  -2  -2 -10  189.78   15.80
  -2  -2 -10  178.68   13.60
  -2  -2 -10  199.58   15.00
   2   2  10  154.28   13.40
   2   2  10  178.68   16.20
   2   2  10  165.18   14.10
   2   2  10  204.18   16.40
  -3  -2 -10  814.92   26.70
  -3  -2 -10  880.31   26.90
  -3  -2 -10  870.01   27.20
  -3  -2 -10  786.52   27.00
   3   2  10  839.42   27.60
   3   2  10  765.62   29.40
   3   2  10  781.52   26.50
   3   2  10  882.31   27.50
  -4  -2 -10   10.00    7.00
  -4  -2 -10   24.40    7.90
  -4  -2 -10   11.90    7.40
  -4  -2 -10    0.60    7.00
  -4  -2 -10   13.50    9.80
   4   2  10    9.10    6.90
   4   2  10   -0.50    9.60
   4   2  10    9.90    8.10
   4   2  10   13.70    6.80
  -5  -2 -10  109.39    9.40
  -5  -2 -10  121.49   13.20
  -5  -2 -10  111.69    9.60
  -5  -2 -10  117.69    9.80
  -5  -2 -10  114.99    9.80
   5   2  10  102.79    9.20
   5   2  10  116.49   10.30
   5   2  10  120.39   11.10
   5   2  10  119.99   10.20
  -6  -2 -10  270.17   20.30
  -6  -2 -10  280.87   14.10
  -6  -2 -10  273.07   14.10
  -6  -2 -10  270.07   13.10
   6   2  10  261.47   26.20
   6   2  10  276.77   12.40
   6   2  10  268.97   14.70
   6   2  10  284.37   13.00
   6   2  10  258.67   13.90
  -7  -2 -10  701.33   19.90
  -7  -2 -10  700.73   18.30
  -7  -2 -10  686.83   19.30
  -7  -2 -10  624.34   18.50
  -7  -2 -10  668.93   28.50
   7   2  10  648.24   19.30
   7   2  10  713.13   34.90
   7   2  10  678.13   20.50
   7   2  10  641.04   18.10
   7   2  10  635.84   18.80
  -8  -2 -10   23.70   12.10
   8   2  10   28.90   17.50
   9   2  10   28.60   18.90
   3  -3 -10   87.59   16.10
   3  -3 -10   76.89   18.30
   3  -3 -10   62.29   16.20
   3  -3 -10   75.69   15.60
  -3   3  10   68.49   15.10
  -3   3  10   40.90   19.60
  -3   3  10  108.29   17.60
  -3   3  10   90.89   18.10
   2  -3 -10 1793.32   53.39
   2  -3 -10 1735.73   51.99
   2  -3 -10 1704.53   51.69
   2  -3 -10 1792.22   51.19
  -2   3  10 1841.52   53.19
  -2   3  10 1713.73   51.19
  -2   3  10 1697.63   52.69
  -2   3  10 1475.45   66.99
   1  -3 -10  495.45   23.70
   1  -3 -10  494.75   27.40
   1  -3 -10  486.35   24.20
   1  -3 -10  502.95   25.20
  -1   3  10  447.66   32.10
  -1   3  10  494.85   25.90
  -1   3  10  447.86   26.30
  -1   3  10  520.25   25.00
   0  -3 -10  310.47   20.70
   0  -3 -10  293.47   21.70
   0  -3 -10  253.67   18.20
   0  -3 -10  277.37   19.40
   0   3  10  257.17   23.10
   0   3  10  247.98   20.70
   0   3  10  252.17   18.50
   0   3  10  358.86   21.70
  -1  -3 -10  119.79   12.60
  -1  -3 -10  139.19   13.90
  -1  -3 -10  138.69   13.50
   1   3  10  107.49   12.30
   1   3  10  102.19   12.50
   1   3  10  106.89   12.60
   1   3  10  121.09   13.30
  -2  -3 -10  929.71   30.50
  -2  -3 -10  984.80   31.50
  -2  -3 -10  940.21   30.70
  -2  -3 -10  941.81   31.60
   2   3  10  946.71   31.10
   2   3  10  989.20   31.80
   2   3  10  958.40   31.20
   2   3  10  933.41   30.40
  -3  -3 -10 1147.99   33.70
  -3  -3 -10 1119.09   34.50
  -3  -3 -10 1119.39   34.00
  -3  -3 -10 1143.29   33.50
   3   3  10 1158.78   34.00
   3   3  10 1096.99   33.80
   3   3  10 1153.78   33.70
   3   3  10 1148.89   34.50
  -4  -3 -10   49.50    9.10
  -4  -3 -10   54.99    8.80
  -4  -3 -10   34.40   10.00
   4   3  10   37.50    8.10
   4   3  10   34.60    8.80
   4   3  10   44.70    9.30
  -5  -3 -10  268.67   15.20
  -5  -3 -10  281.17   15.40
  -5  -3 -10  278.27   15.10
  -5  -3 -10  308.47   20.90
  -5  -3 -10  277.67   15.70
   5   3  10  275.17   16.20
   5   3  10  275.47   14.80
   5   3  10  271.47   14.70
   5   3  10  253.17   15.80
  -6  -3 -10    5.70    7.10
  -6  -3 -10    2.60    6.70
  -6  -3 -10   11.10    7.10
  -6  -3 -10    8.40    9.80
  -6  -3 -10   -6.20    6.90
   6   3  10    7.10    7.40
   6   3  10   -8.40    5.90
   6   3  10    0.60    7.50
   6   3  10    5.00    6.20
  -7  -3 -10    2.50    9.80
  -7  -3 -10    3.40    7.10
  -7  -3 -10    1.40    6.10
  -7  -3 -10    4.20    6.20
   7   3  10    4.20    7.10
   7   3  10    4.20    6.00
   7   3  10  -10.70   13.10
   7   3  10    6.50    7.30
   7   3  10    8.90    6.00
  -8  -3 -10   23.20    6.40
  -8  -3 -10   19.10    6.10
  -8  -3 -10    4.30   10.40
  -8  -3 -10   12.70    4.30
   8   3  10   31.80   15.60
   8   3  10   12.20    5.20
   8   3  10   11.50    5.80
   8   3  10   20.30    6.70
   8   3  10    8.20    4.30
  -9  -3 -10   20.90   13.10
   9   3  10    1.60   18.70
   3  -4 -10   18.10   14.50
   3  -4 -10   16.20   17.90
   3  -4 -10    0.90   16.30
   3  -4 -10   -6.50   14.10
  -3   4  10  -34.70   16.30
  -3   4  10   12.00   15.70
  -3   4  10   21.10   16.70
  -3   4  10   31.50   15.70
   2  -4 -10  294.27   26.40
   2  -4 -10  219.58   33.40
   2  -4 -10  209.38   19.20
   2  -4 -10  274.57   22.70
  -2   4  10  249.18   21.00
  -2   4  10  246.28   21.20
  -2   4  10  293.57   25.30
  -2   4  10  234.08   21.80
   1  -4 -10   -9.40   10.80
   1  -4 -10   10.90   11.20
   1  -4 -10   23.00   13.00
   1  -4 -10   23.90   12.90
  -1   4  10    1.20   12.00
  -1   4  10   22.90   12.60
  -1   4  10   18.10   13.30
  -1   4  10   -0.60   11.00
   0  -4 -10  360.56   23.90
   0  -4 -10  388.76   22.10
   0  -4 -10  394.66   23.90
   0   4  10  382.36   22.20
   0   4  10  375.06   24.00
   0   4  10  362.96   21.70
   0   4  10  370.16   22.50
  -1  -4 -10  124.99   13.70
  -1  -4 -10  135.59   13.80
  -1  -4 -10  116.09   13.40
   1   4  10  139.09   14.00
   1   4  10  139.59   13.60
   1   4  10  138.19   16.50
   1   4  10  133.29   13.70
  -2  -4 -10   88.49   11.40
  -2  -4 -10   78.79   10.10
  -2  -4 -10   69.29   11.50
   2   4  10   87.99   11.20
   2   4  10   93.39   12.20
   2   4  10   78.49   11.10
  -3  -4 -10  227.28   15.80
  -3  -4 -10  202.18   17.10
  -3  -4 -10  195.78   16.40
  -3  -4 -10  220.48   16.70
   3   4  10  199.18   16.10
   3   4  10  219.48   17.20
   3   4  10  190.18   15.30
  -4  -4 -10   61.39   10.00
  -4  -4 -10   81.19   10.20
  -4  -4 -10   71.59   12.50
  -4  -4 -10   62.39    9.10
   4   4  10   61.09    9.80
   4   4  10   73.49   10.50
   4   4  10   54.29    9.20
  -5  -4 -10    4.20    7.60
  -5  -4 -10    9.20    7.80
  -5  -4 -10    3.70    7.20
  -5  -4 -10   -8.10    9.60
   5   4  10   15.10    7.90
   5   4  10   14.70    7.20
  -6  -4 -10  261.57   21.10
  -6  -4 -10  266.77   15.70
  -6  -4 -10  260.27   15.00
  -6  -4 -10  237.58   15.20
  -6  -4 -10  245.88   14.60
   6   4  10  266.07   14.70
  -7  -4 -10  540.95   20.00
  -7  -4 -10  560.84   20.10
  -7  -4 -10  547.75   19.50
  -7  -4 -10  523.75   20.00
  -7  -4 -10  532.55   26.80
   7   4  10  557.34   19.90
   7   4  10  525.75   19.50
   7   4  10  554.04   20.00
   7   4  10  569.54   19.50
  -8  -4 -10    2.90    6.40
  -8  -4 -10    0.50    6.60
  -8  -4 -10   15.00    7.30
  -8  -4 -10   10.50    8.40
  -8  -4 -10   13.30   10.90
   8   4  10    2.00    6.80
   8   4  10   -6.40    6.40
   8   4  10   26.20   14.70
   8   4  10    1.50    7.40
   8   4  10   11.20    7.60
  -9  -4 -10  339.27   13.30
  -9  -4 -10  344.37   26.40
   9   4  10  315.47   14.00
   9   4  10  383.96   32.80
   9   4  10  362.16   13.90
   2  -5 -10   13.30   16.40
   2  -5 -10  -26.60   12.30
   2  -5 -10   -3.70   13.70
   2  -5 -10   31.90   16.50
  -2   5  10   13.30   16.10
  -2   5  10  -13.40   15.00
  -2   5  10    4.20   13.50
  -2   5  10   20.90   14.70
   1  -5 -10   50.79   13.50
   1  -5 -10   66.89   16.40
   1  -5 -10   75.19   14.40
   1  -5 -10   75.19   15.60
  -1   5  10   83.59   15.20
  -1   5  10   60.99   15.70
  -1   5  10   48.40   14.40
  -1   5  10   60.09   14.80
   0  -5 -10   69.09   13.20
   0  -5 -10   56.29   13.10
   0  -5 -10   75.39   13.70
   0  -5 -10   71.19   13.40
   0   5  10   63.79   13.20
   0   5  10   50.59   13.30
   0   5  10   41.40   11.60
  -1  -5 -10   -5.90   10.90
  -1  -5 -10   20.20   10.70
  -1  -5 -10   14.40   10.50
  -1  -5 -10   21.50   11.20
   1   5  10   15.70   11.50
   1   5  10   31.40   10.70
   1   5  10   20.30   11.20
   1   5  10   28.70   11.40
  -2  -5 -10   -2.10   10.00
  -2  -5 -10   -0.60    8.80
  -2  -5 -10   -6.90    9.40
   2   5  10   18.40    9.70
   2   5  10   12.30    9.70
   2   5  10    1.30    9.50
  -3  -5 -10  137.89   12.70
  -3  -5 -10  115.59   12.30
  -3  -5 -10   85.69   11.70
   3   5  10  112.39   11.80
   3   5  10  114.79   12.00
   3   5  10  101.39   12.40
   3   5  10  131.29   13.00
  -4  -5 -10  612.54   23.60
  -4  -5 -10  599.74   22.70
  -4  -5 -10  570.24   28.60
  -4  -5 -10  606.44   25.40
  -4  -5 -10  598.44   23.30
   4   5  10  626.34   23.80
   4   5  10  609.14   23.80
   4   5  10  613.04   23.20
   4   5  10  588.94   23.70
  -5  -5 -10  322.37   18.10
  -5  -5 -10  288.37   16.50
  -5  -5 -10  238.08   21.30
   5   5  10  287.67   16.70
   5   5  10  281.07   16.90
   5   5  10  288.77   16.80
   5   5  10  300.97   17.60
  -6  -5 -10   13.30    7.70
  -6  -5 -10   21.30    9.10
  -6  -5 -10   28.10   11.50
  -6  -5 -10    9.10    8.80
   6   5  10   16.80    8.20
   6   5  10   15.40    7.90
   6   5  10   26.40    8.60
   6   5  10   19.00    8.10
  -7  -5 -10    7.20    8.20
  -7  -5 -10   19.70    8.80
  -7  -5 -10   12.20    7.60
  -7  -5 -10   -4.60   11.00
   7   5  10   17.10    8.30
   7   5  10   -0.30    7.40
   7   5  10   22.00    8.20
   7   5  10   12.30    7.90
  -8  -5 -10  592.94   22.40
  -8  -5 -10  623.84   21.50
  -8  -5 -10  597.34   21.10
  -8  -5 -10  644.64   29.40
   8   5  10  616.14   22.20
   8   5  10  610.04   21.70
   8   5  10  616.44   21.40
   8   5  10  592.54   20.80
  -9  -5 -10  557.04   19.40
  -9  -5 -10  547.05   19.30
  -9  -5 -10  527.55   19.10
  -9  -5 -10  556.14   18.90
  -9  -5 -10  554.24   30.20
   9   5  10  553.94   20.20
   9   5  10  565.24   19.30
   9   5  10  548.95   20.70
   1  -6 -10  214.58   19.60
   1  -6 -10  198.98   21.10
   1  -6 -10  228.28   20.90
   1  -6 -10  243.18   21.20
  -1   6  10  287.27   25.80
  -1   6  10  222.68   19.80
  -1   6  10  270.57   22.30
   0  -6 -10  760.62   32.50
   0  -6 -10  837.62   32.70
   0  -6 -10  825.22   34.00
   0  -6 -10  857.91   34.70
   0   6  10  828.22   34.30
   0   6  10  848.02   33.90
   0   6  10  827.22   33.60
  -1  -6 -10   28.00   11.30
  -1  -6 -10   62.39   13.80
  -1  -6 -10   25.20   12.40
  -1  -6 -10   45.00   12.80
   1   6  10   20.60   11.40
   1   6  10   58.19   13.00
   1   6  10   45.40   12.60
   1   6  10   52.79   12.80
  -2  -6 -10  522.55   24.40
  -2  -6 -10  596.14   26.60
  -2  -6 -10  539.35   27.10
   2   6  10  534.45   25.70
   2   6  10  574.54   26.00
   2   6  10  533.25   26.10
   2   6  10  526.05   25.00
  -3  -6 -10   -1.90   11.30
  -3  -6 -10    3.90   10.10
  -3  -6 -10   23.00    9.40
   3   6  10   20.80   10.30
   3   6  10   -4.20    9.40
   3   6  10   12.40   10.10
   3   6  10    3.30   10.00
  -4  -6 -10  928.61   30.80
  -4  -6 -10  854.71   29.90
  -4  -6 -10  834.82   34.10
  -4  -6 -10  904.31   32.10
   4   6  10  863.71   29.60
   4   6  10  891.21   30.70
   4   6  10  865.31   30.10
   4   6  10  869.81   30.90
  -5  -6 -10   91.09   11.60
  -5  -6 -10   69.69   12.80
  -5  -6 -10   87.89   12.40
  -5  -6 -10   78.69   11.70
   5   6  10   70.69   10.90
   5   6  10   61.09   11.00
   5   6  10   86.29   11.00
   5   6  10   71.09   11.10
  -6  -6 -10  766.52   26.40
  -6  -6 -10  790.82   27.50
  -6  -6 -10  775.32   31.30
   6   6  10  754.82   26.80
   6   6  10  727.63   25.90
   6   6  10  746.33   26.90
   6   6  10  714.43   26.80
  -7  -6 -10  505.75   20.90
  -7  -6 -10  513.75   22.70
  -7  -6 -10  524.45   20.90
  -7  -6 -10  507.15   27.20
  -7  -6 -10  513.05   22.20
   7   6  10  532.05   21.00
   7   6  10  519.25   21.80
   7   6  10  533.65   21.50
   7   6  10  502.05   21.90
  -8  -6 -10   18.60    9.00
  -8  -6 -10   31.80    9.90
  -8  -6 -10   18.00    9.90
  -8  -6 -10   22.30    8.70
  -8  -6 -10   29.60   12.60
   8   6  10   13.70    8.60
   8   6  10   22.90    9.00
   8   6  10   27.50    9.40
   8   6  10   18.70    9.20
  -9  -6 -10   95.49   10.40
  -9  -6 -10  124.69   12.30
  -9  -6 -10  121.29   12.00
  -9  -6 -10   92.19   16.50
  -9  -6 -10  110.39   10.60
   9   6  10   88.89   10.60
   9   6  10   87.19   11.00
   9   6  10   98.79   10.90
   9   6  10  107.69   10.70
   0  -7 -10  149.59   18.30
   0  -7 -10  189.48   19.60
   0  -7 -10  157.48   22.20
   0  -7 -10  208.58   19.30
   0   7  10  215.88   20.00
   0   7  10  151.88   19.40
   0   7  10  180.68   19.50
  -1  -7 -10  341.87   24.00
  -1  -7 -10  356.86   26.50
  -1  -7 -10  288.67   23.20
  -1  -7 -10  322.67   25.30
   1   7  10  309.67   28.60
   1   7  10  308.97   25.20
   1   7  10  309.07   24.30
   1   7  10  341.37   24.00
  -2  -7 -10  851.31   32.80
  -2  -7 -10  892.71   33.20
  -2  -7 -10  825.22   34.90
  -2  -7 -10  868.91   33.50
   2   7  10  836.32   32.30
   2   7  10  847.32   34.70
   2   7  10  876.11   33.20
   2   7  10  869.91   32.20
  -3  -7 -10   -6.10   11.00
  -3  -7 -10   -5.10   11.60
  -3  -7 -10    2.80   11.30
   3   7  10    0.80   11.00
   3   7  10   22.30   11.30
   3   7  10    1.10   10.20
   3   7  10    8.10   10.30
  -4  -7 -10  136.19   15.90
  -4  -7 -10  105.29   16.10
  -4  -7 -10  134.79   14.20
  -4  -7 -10  143.39   14.20
   4   7  10  165.48   15.10
   4   7  10  149.39   14.10
   4   7  10  152.08   14.90
   4   7  10  135.49   14.30
  -5  -7 -10  155.88   14.20
  -5  -7 -10  157.28   16.50
  -5  -7 -10  163.38   15.70
  -5  -7 -10  164.98   14.50
   5   7  10  162.08   14.10
   5   7  10  184.88   15.30
   5   7  10  169.58   15.00
   5   7  10  170.18   14.50
  -6  -7 -10  350.46   21.40
  -6  -7 -10  352.06   23.10
  -6  -7 -10  393.96   24.70
   6   7  10  383.06   21.20
   6   7  10  384.16   20.80
   6   7  10  405.36   21.40
   6   7  10  413.66   22.10
  -7  -7 -10    2.40   10.60
  -7  -7 -10    2.90   11.70
  -7  -7 -10   -9.80    9.70
   7   7  10    1.30    9.90
   7   7  10   -0.10    9.00
   7   7  10  -13.90    9.40
   7   7  10   11.40    9.80
  -8  -7 -10   58.19   13.50
  -8  -7 -10   24.60   12.60
  -8  -7 -10   46.80   10.80
  -8  -7 -10   37.40   11.40
  -8  -7 -10   21.10   10.60
   8   7  10   20.30   10.50
   8   7  10   53.89   11.00
   8   7  10   42.80   11.00
   8   7  10   33.60   10.40
  -9  -7 -10   -4.60   13.70
  -9  -7 -10   -1.50   10.80
  -9  -7 -10  -11.50   11.20
  -9  -7 -10    1.50   10.20
  -9  -7 -10    9.60   10.00
   9   7  10    9.80   10.30
   9   7  10   -3.40    9.30
   9   7  10    7.90   10.00
   9   7  10   -6.00   10.00
  -1  -8 -10  147.49   19.20
  -1  -8 -10  100.49   17.50
  -1  -8 -10  123.59   18.90
  -1  -8 -10  106.59   16.90
   1   8  10   94.19   17.50
   1   8  10  113.19   17.60
   1   8  10  122.29   17.60
   1   8  10  126.69   18.00
  -2  -8 -10  303.07   24.80
  -2  -8 -10  267.67   23.70
  -2  -8 -10  280.77   25.90
  -2  -8 -10  296.67   23.20
   2   8  10  309.37   25.20
   2   8  10  290.57   23.20
   2   8  10  258.47   21.10
   2   8  10  304.87   24.50
  -3  -8 -10   70.29   14.00
  -3  -8 -10   69.19   14.50
  -3  -8 -10   68.09   14.20
  -3  -8 -10   67.19   15.80
   3   8  10   91.09   15.20
   3   8  10   59.29   13.30
   3   8  10   74.29   14.60
   3   8  10   69.99   14.60
  -4  -8 -10  595.44   29.60
  -4  -8 -10  514.85   28.20
  -4  -8 -10  512.55   29.60
  -4  -8 -10  556.04   27.70
   4   8  10  536.15   28.40
   4   8  10  533.75   26.70
   4   8  10  588.44   27.30
   4   8  10  518.85   26.90
  -5  -8 -10  204.38   16.20
  -5  -8 -10  185.98   16.70
  -5  -8 -10  171.38   18.10
  -5  -8 -10  197.38   18.00
  -5  -8 -10  186.98   16.70
   5   8  10  205.58   16.70
   5   8  10  205.28   17.20
   5   8  10  175.38   16.90
   5   8  10  198.28   16.10
  -6  -8 -10   37.70   12.90
  -6  -8 -10   51.59   12.30
  -6  -8 -10   47.70   11.80
  -6  -8 -10   34.80   11.60
  -6  -8 -10   53.79   13.80
   6   8  10   37.90   12.40
   6   8  10   55.09   12.80
   6   8  10   52.39   12.50
   6   8  10   61.89   12.40
  -7  -8 -10   34.20   13.00
  -7  -8 -10   52.99   11.80
  -7  -8 -10   46.00   12.90
  -7  -8 -10   47.80   13.10
  -7  -8 -10   64.39   12.70
   7   8  10   46.90   12.30
   7   8  10   40.20   11.70
   7   8  10   38.40   12.50
   7   8  10   55.19   12.70
  -8  -8 -10  -10.40   12.40
  -8  -8 -10   -6.00   11.50
  -8  -8 -10  -20.20   11.40
  -8  -8 -10   -3.00   11.20
  -8  -8 -10    0.10   11.00
   8   8  10    3.40   12.00
   8   8  10   -5.70   10.40
   8   8  10   -3.10   10.60
   8   8  10   -7.50   11.20
  -3  -9 -10  -25.20   12.60
  -3  -9 -10   -1.00   13.10
  -3  -9 -10   -1.40   15.10
  -3  -9 -10  -10.10   13.00
   3   9  10    8.40   13.80
   3   9  10   -5.50   14.90
   3   9  10   -4.20   14.30
   3   9  10    9.80   14.00
  -4  -9 -10  112.49   16.00
  -4  -9 -10   79.79   16.30
  -4  -9 -10   80.99   15.10
  -4  -9 -10   74.99   16.60
  -4  -9 -10   78.89   16.90
   4   9  10   98.09   15.90
   4   9  10   98.59   16.50
   4   9  10   93.59   16.00
   4   9  10   79.99   15.80
  -5  -9 -10   50.29   15.50
  -5  -9 -10   36.90   14.80
  -5  -9 -10   46.30   14.00
  -5  -9 -10   51.79   14.10
  -5  -9 -10   27.80   14.50
   5   9  10   47.60   13.90
   5   9  10   28.40   13.60
   5   9  10   45.70   14.70
   5   9  10   58.79   14.30
  -6  -9 -10   51.29   14.50
  -6  -9 -10   14.30   13.40
  -6  -9 -10   40.10   13.50
  -6  -9 -10   39.40   13.20
  -6  -9 -10   36.30   15.40
   6   9  10   28.30   13.50
   6   9  10   44.10   14.00
   6   9  10   33.50   14.30
   6   9  10   53.09   14.10
  -7  -9 -10   32.40   12.30
  -7  -9 -10   23.30   13.40
  -7  -9 -10   12.80   14.00
  -7  -9 -10   13.60   13.70
  -7  -9 -10   21.20   13.30
   7   9  10   11.40   12.50
   7   9  10    5.50   12.80
   7   9  10   14.20   12.60
   7   9  10    1.30   13.20
   2   5 -11    1.30   14.10
   2   5 -11   -9.00   17.50
   2   5 -11   37.60   17.30
   2   5 -11  -25.70   16.00
  -2  -5  11   37.00   18.60
  -2  -5  11    4.10   17.50
  -2  -5  11  -27.80   18.30
  -2  -5  11   18.40   15.70
  -2  -5  11   23.40   14.20
   1   5 -11   12.90   15.50
   1   5 -11   29.20   16.10
   1   5 -11   26.40   15.90
   1   5 -11  -14.20   15.80
  -1  -5  11   21.70   17.00
  -1  -5  11    6.30   13.30
  -1  -5  11   11.00   16.30
  -1  -5  11   23.90   14.30
   0   5 -11   68.49   16.70
   0   5 -11   88.99   15.40
   0   5 -11   83.69   17.50
   0   5 -11   84.39   16.20
   0  -5  11  119.69   18.80
   0  -5  11   82.19   18.30
   0  -5  11   83.39   15.10
   0  -5  11   56.69   14.60
   0  -5  11   28.60   27.90
  -1   5 -11   91.99   13.30
  -1   5 -11   95.49   16.50
  -1   5 -11   50.09   14.20
  -1   5 -11   92.69   15.90
  -1   5 -11   83.29   16.90
   1  -5  11  106.29   23.60
   1  -5  11   56.39   17.10
   1  -5  11   69.59   14.00
   1  -5  11   83.69   17.00
   1  -5  11   68.99   14.40
  -2   5 -11    8.50   13.70
  -2   5 -11   -5.40   12.70
  -2   5 -11   24.10   12.60
  -2   5 -11   -6.10   17.30
  -2   5 -11   10.20   13.10
   2  -5  11   38.50   23.10
   2  -5  11    5.60   12.00
   2  -5  11   -6.40   13.40
   2  -5  11   -1.00   14.30
   2  -5  11    1.00   10.80
  -3   5 -11    7.60   13.00
  -3   5 -11   18.70   12.00
  -3   5 -11   15.00   12.60
  -3   5 -11   16.20   12.20
  -3   5 -11   41.10   13.80
   3  -5  11   12.50   11.30
   3  -5  11   23.30   11.90
   3  -5  11   16.90   14.10
   3  -5  11   16.70   14.30
   3  -5  11    6.50   23.70
   3   4 -11  122.09   18.00
   3   4 -11  149.09   21.70
   3   4 -11  110.09   17.40
   3   4 -11  105.49   19.80
  -3  -4  11  101.39   17.50
  -3  -4  11  124.29   18.20
  -3  -4  11  105.59   18.40
  -3  -4  11  104.69   20.20
   2   4 -11  151.98   20.30
   2   4 -11  151.58   19.00
   2   4 -11  124.19   19.40
   2   4 -11  178.58   17.80
  -2  -4  11  127.29   16.70
  -2  -4  11  166.78   20.80
  -2  -4  11  155.78   20.90
  -2  -4  11  168.18   18.10
  -2  -4  11  124.59   20.50
   1   4 -11  400.96   30.70
   1   4 -11  320.57   31.10
   1   4 -11  418.46   32.50
   1   4 -11  441.16   28.20
  -1  -4  11  440.46   25.20
  -1  -4  11  499.85   27.00
  -1  -4  11  447.06   29.00
  -1  -4  11  420.26   34.30
  -1  -4  11  474.65   31.10
   0   4 -11  115.29   16.90
   0   4 -11  144.89   16.90
   0   4 -11  158.98   17.60
   0   4 -11  183.68   16.90
   0  -4  11  146.69   22.10
   0  -4  11  128.19   14.60
   0  -4  11  158.58   17.90
   0  -4  11  148.19   15.50
   0  -4  11  152.38   18.20
  -1   4 -11   88.49   13.60
  -1   4 -11   96.69   15.80
  -1   4 -11  104.69   15.40
  -1   4 -11  102.59   15.60
  -1   4 -11  123.39   15.50
   1  -4  11  106.99   16.40
   1  -4  11   92.19   13.60
   1  -4  11  128.19   16.00
   1  -4  11   96.29   12.90
  -2   4 -11    6.40   12.30
  -2   4 -11    2.20   11.50
  -2   4 -11   48.00   13.00
   2  -4  11   10.70   18.60
   2  -4  11    6.60    9.80
   2  -4  11   18.20   12.80
   2  -4  11    8.70   10.70
   2  -4  11    4.30   12.90
  -3   4 -11    5.40   10.50
  -3   4 -11    3.00   11.70
  -3   4 -11   -8.20   11.10
  -3   4 -11  -11.40   12.70
  -3   4 -11    9.70   11.90
   3  -4  11   17.10   20.90
   3  -4  11   -1.10    9.90
   3  -4  11   10.00   12.50
   3  -4  11    7.80   10.10
   3  -4  11    9.90   12.20
  -4   4 -11  107.69   14.40
  -4   4 -11  124.49   13.60
  -4   4 -11  133.99   13.60
  -4   4 -11  114.69   12.90
   4  -4  11  110.99   13.60
   4  -4  11  116.59   12.10
   4  -4  11  127.69   14.50
   4  -4  11  138.79   13.40
   4  -4  11  148.99   26.80
   3   3 -11   -1.90   13.50
   3   3 -11   11.30   14.40
   3   3 -11   -0.60   15.80
   3   3 -11   21.90   17.20
  -3  -3  11   41.00   18.50
  -3  -3  11   31.10   15.50
  -3  -3  11    3.50   14.10
  -3  -3  11   24.40   16.00
  -3  -3  11   21.70   14.40
   2   3 -11   17.70   16.30
   2   3 -11   33.30   15.20
   2   3 -11   -0.30   14.70
  -2  -3  11   10.40   15.10
  -2  -3  11    6.30   11.90
  -2  -3  11   26.40   16.30
  -2  -3  11   24.70   16.00
  -2  -3  11   15.20   13.70
   1   3 -11  137.69   17.60
   1   3 -11  128.39   15.70
  -1  -3  11  109.99   19.00
  -1  -3  11   98.19   14.80
  -1  -3  11  103.89   16.20
  -1  -3  11  102.59   13.60
  -1  -3  11  106.99   16.20
   0   3 -11    9.30   10.70
   0   3 -11   25.40   13.10
   0   3 -11  -36.50   17.00
   0   3 -11    3.90   11.70
   0  -3  11   10.90   10.90
   0  -3  11    6.60   10.50
   0  -3  11   -0.20   12.90
   0  -3  11   -6.10   13.30
   0  -3  11  -10.60   15.40
  -1   3 -11   44.20   12.40
  -1   3 -11   31.50   11.70
  -1   3 -11   39.30   12.50
   1  -3  11   38.20   13.70
   1  -3  11   59.79   11.30
   1  -3  11   18.30   12.50
   1  -3  11   58.09   11.70
   1  -3  11    5.30   16.30
  -2   3 -11  136.69   15.50
  -2   3 -11  149.29   14.40
   2  -3  11  156.38   16.10
   2  -3  11  159.48   13.60
   2  -3  11  198.08   16.90
   2  -3  11  172.28   15.70
  -3   3 -11  974.50   33.00
  -3   3 -11  946.41   35.50
   3  -3  11  991.60   30.60
   3  -3  11 1014.50   33.40
   3  -3  11  975.70   44.00
   3  -3  11  994.00   31.60
   3  -3  11 1012.80   35.00
  -4   3 -11  100.89   12.40
  -4   3 -11  139.89   13.80
  -4   3 -11  119.79   12.00
  -4   3 -11  117.89   12.20
  -4   3 -11  134.59   14.80
   4  -3  11  115.79   12.80
   4  -3  11  135.69   12.00
   4  -3  11  107.99   13.30
   4  -3  11  162.48   14.70
   4  -3  11   98.09   20.50
  -5   3 -11  105.39   11.50
  -5   3 -11  108.79   14.90
  -5   3 -11  112.19   11.70
  -5   3 -11   88.79   11.70
  -5   3 -11  102.69   10.10
   5  -3  11  101.69    9.90
   5  -3  11  109.29   11.00
   5  -3  11   97.59   11.70
   5  -3  11  104.59   12.60
   5  -3  11  103.49   23.30
  -6   3 -11    8.80    8.30
  -6   3 -11    2.40   11.20
  -6   3 -11   16.50    8.20
  -6   3 -11   13.00   12.80
  -6   3 -11   13.10    7.50
   6  -3  11   -8.40   22.20
   6  -3  11   24.30    7.90
   6  -3  11   14.60    8.50
   6  -3  11   26.40    7.30
   6  -3  11   15.60    7.40
   3   2 -11   76.49   15.20
   3   2 -11   89.99   17.90
   3   2 -11   70.89   17.80
   3   2 -11  113.49   16.00
  -3  -2  11  134.29   18.50
  -3  -2  11   99.59   16.20
  -3  -2  11  125.39   18.60
  -3  -2  11  128.29   17.90
   2   2 -11  340.07   24.20
   2   2 -11  386.66   27.90
   2   2 -11  333.87   27.70
  -2  -2  11  360.86   25.10
  -2  -2  11  371.06   26.20
  -2  -2  11  396.46   28.90
  -2  -2  11  368.56   27.20
  -2  -2  11  322.57   22.40
   1   2 -11   50.89   12.80
   1   2 -11   64.89   14.60
  -1  -2  11   95.69   14.00
  -1  -2  11   77.19   15.30
  -1  -2  11   43.00   12.30
  -1  -2  11   84.19   15.20
  -1  -2  11   19.90   15.50
   0   2 -11  213.58   18.50
   0   2 -11  265.97   22.60
   0  -2  11  222.38   19.90
   0  -2  11  211.08   20.50
   0  -2  11  247.98   19.10
   0  -2  11  269.77   24.00
   0  -2  11  241.88   20.70
  -1   2 -11  113.09   13.10
  -1   2 -11  119.39   14.50
   1  -2  11  105.99   14.10
   1  -2  11  112.09   18.70
   1  -2  11  131.09   13.60
   1  -2  11  117.99   12.70
   1  -2  11  135.99   15.50
  -2   2 -11  359.46   24.10
  -2   2 -11  338.77   20.10
   2  -2  11  397.06   29.60
   2  -2  11  342.47   21.40
   2  -2  11  351.86   18.90
   2  -2  11  342.27   19.40
   2  -2  11  336.77   23.00
  -3   2 -11  206.48   17.10
  -3   2 -11  178.28   15.00
  -3   2 -11  215.98   16.30
  -3   2 -11  185.48   16.60
   3  -2  11  209.88   16.20
   3  -2  11  206.48   17.90
   3  -2  11  195.18   15.70
   3  -2  11  179.18   15.90
  -4   2 -11  596.74   23.20
  -4   2 -11  593.04   28.10
  -4   2 -11  547.05   22.40
  -4   2 -11  621.84   22.40
  -4   2 -11  539.95   27.40
   4  -2  11  602.54   22.40
   4  -2  11  609.04   21.50
   4  -2  11  579.94   23.50
   4  -2  11  546.15   34.70
   4  -2  11  564.54   24.90
  -5   2 -11  648.54   21.30
  -5   2 -11  651.83   23.50
  -5   2 -11  617.04   22.20
  -5   2 -11  642.54   29.60
  -5   2 -11  636.24   24.40
   5  -2  11  646.84   22.00
   5  -2  11  603.84   23.00
   5  -2  11  626.44   21.30
   5  -2  11  611.54   24.50
  -6   2 -11   -8.90   12.20
  -6   2 -11    8.40    7.40
  -6   2 -11    7.20    7.90
  -6   2 -11   14.40    6.00
   6  -2  11    2.70    6.80
   6  -2  11    2.60    6.80
   6  -2  11   28.60   21.20
   6  -2  11    4.00    6.10
   6  -2  11    7.40    8.70
   3   1 -11  224.08   21.50
   3   1 -11  263.27   22.20
   3   1 -11  245.28   20.20
   3   1 -11  241.98   21.90
  -3  -1  11  249.97   21.90
  -3  -1  11  207.78   21.70
  -3  -1  11  220.38   19.70
  -3  -1  11  241.08   22.70
  -3  -1  11  201.08   18.90
   2   1 -11  139.29   17.60
   2   1 -11  210.68   17.80
   2   1 -11  165.48   16.10
   2   1 -11  178.68   18.30
  -2  -1  11  184.18   19.00
  -2  -1  11  142.19   15.80
  -2  -1  11  153.68   16.80
  -2  -1  11  186.58   18.10
  -2  -1  11  173.58   18.90
   1   1 -11   37.90   11.80
   1   1 -11   33.60   13.60
   1   1 -11   40.90   12.60
  -1  -1  11   25.20   13.20
  -1  -1  11   31.60   12.30
  -1  -1  11   32.70   10.90
  -1  -1  11   10.20   14.30
  -1  -1  11   25.20   13.00
   0   1 -11  912.41   31.80
   0   1 -11  923.91   33.10
   0   1 -11  907.71   33.80
   0  -1  11  946.11   35.10
   0  -1  11  980.10   33.10
   0  -1  11  890.41   31.20
   0  -1  11  952.80   33.50
   0  -1  11  916.51   35.80
  -1   1 -11  752.72   27.90
  -1   1 -11  763.62   28.90
  -1   1 -11  774.42   29.80
   1  -1  11  759.12   27.50
   1  -1  11  823.72   31.10
   1  -1  11  761.52   28.40
   1  -1  11  790.22   34.70
   1  -1  11  758.12   29.20
  -2   1 -11   12.60    8.90
  -2   1 -11   21.80   10.80
  -2   1 -11    5.50    9.30
   2  -1  11  -23.50   13.40
   2  -1  11    1.30    8.40
   2  -1  11   21.30   11.60
   2  -1  11   11.00    8.50
   2  -1  11    9.70   10.50
  -3   1 -11  101.89   12.00
  -3   1 -11  108.29   11.20
  -3   1 -11  107.29   11.60
  -3   1 -11  102.49   14.70
   3  -1  11   83.89   18.70
   3  -1  11  123.99   12.60
   3  -1  11  123.19   11.70
   3  -1  11  102.99   10.70
   3  -1  11  114.89   15.30
  -4   1 -11   45.90   10.50
  -4   1 -11   58.59    9.60
  -4   1 -11   72.79   13.70
  -4   1 -11   58.69   10.00
   4  -1  11   61.99   11.70
   4  -1  11   41.50    8.70
   4  -1  11   53.49   10.40
   4  -1  11   69.49    9.70
  -5   1 -11  130.99   10.10
  -5   1 -11  137.19   11.20
  -5   1 -11  135.79   11.80
  -5   1 -11  146.19   15.40
   5  -1  11  156.78   14.30
   5  -1  11  124.69   10.70
   5  -1  11  145.19   12.70
  -6   1 -11    0.50    5.90
  -6   1 -11    6.80    7.50
  -6   1 -11   -3.20    6.60
  -6   1 -11   -9.00   10.90
   6  -1  11   -3.50    5.70
   6  -1  11   -0.60    6.40
   6  -1  11  -10.20    6.50
   6  -1  11   13.80    8.50
  -7   1 -11   31.20   13.50
   7  -1  11   22.30    4.90
   7  -1  11   73.89   22.00
   7  -1  11   13.70    5.70
   3   0 -11   19.70   16.80
   3   0 -11   31.80   16.40
   3   0 -11   45.30   15.00
   3   0 -11   42.00   14.30
  -3   0  11   58.39   15.30
  -3   0  11   49.20   17.20
  -3   0  11   61.29   17.70
  -3   0  11   71.39   16.00
   2   0 -11  205.98   18.10
   2   0 -11  219.38   19.30
   2   0 -11  198.28   19.10
   2   0 -11  257.47   21.60
  -2   0  11  207.78   17.60
  -2   0  11  209.08   19.40
  -2   0  11  254.47   24.10
  -2   0  11  223.98   20.00
  -2   0  11  222.68   18.40
   1   0 -11    7.70   11.90
   1   0 -11   19.10   18.50
   1   0 -11    1.90   12.80
  -1   0  11  -14.50   13.50
  -1   0  11   10.30   12.80
  -1   0  11   -5.30   10.50
  -1   0  11  -11.70   11.90
  -1   0  11   14.80   11.30
   0   0 -11   42.90   12.60
   0   0 -11   36.10   12.00
   0   0 -11   23.60   10.50
   0   0  11   38.40   14.20
   0   0  11   26.20   10.80
   0   0  11   52.89   12.60
   0   0  11   21.30   10.40
   0   0  11   12.10   11.90
  -1   0 -11  165.08   14.80
  -1   0 -11  157.88   13.70
  -1   0 -11  142.89   16.70
  -1   0 -11  144.19   14.40
   1   0  11  146.79   13.50
   1   0  11  153.18   17.90
   1   0  11  158.08   14.70
   1   0  11  143.49   15.00
   1   0  11  156.18   13.50
  -2   0 -11  581.74   23.60
  -2   0 -11  576.44   23.70
  -2   0 -11  571.04   24.00
   2   0  11  579.04   25.20
   2   0  11  584.24   23.20
   2   0  11  586.34   30.10
   2   0  11  538.75   23.10
   2   0  11  533.75   23.60
  -3   0 -11  171.68   15.80
  -3   0 -11  201.28   16.60
  -3   0 -11  144.09   16.10
   3   0  11  178.78   16.30
   3   0  11  161.48   14.30
   3   0  11  174.78   19.00
   3   0  11  198.28   18.80
   3   0  11  165.08   15.30
  -4   0 -11   40.70    8.90
  -4   0 -11   50.19   10.10
  -4   0 -11   26.80   11.60
  -4   0 -11   20.80    8.70
   4   0  11   32.00    8.50
   4   0  11   30.90   10.10
   4   0  11   21.30    8.40
   4   0  11   34.90    9.70
  -5   0 -11  238.38   21.30
  -5   0 -11  181.78   14.20
  -5   0 -11  189.18   14.20
  -5   0 -11  186.58   15.10
   5   0  11  187.18   13.90
   5   0  11  190.48   16.40
   5   0  11  201.88   15.00
  -6   0 -11   80.79    8.30
  -6   0 -11  108.19   15.00
  -6   0 -11  113.09    9.90
  -6   0 -11  129.59   10.40
   6   0  11  117.49   10.90
   6   0  11  104.79    8.80
   6   0  11  102.69    9.40
   6   0  11  121.59   10.50
  -7   0 -11    7.20   12.20
  -7   0 -11   33.70    5.90
  -7   0 -11   31.90    6.00
   7   0  11   30.10    5.60
   7   0  11   31.20   19.90
   7   0  11   35.20    6.60
  -8   0 -11   -0.80   13.20
   8   0  11   34.30   21.30
   3  -1 -11   24.60   16.40
   3  -1 -11   17.20   16.40
   3  -1 -11   27.40   17.20
   3  -1 -11   21.70   13.90
  -3   1  11   32.10   13.60
  -3   1  11   31.60   14.00
  -3   1  11    6.30   16.00
  -3   1  11   54.09   15.40
  -3   1  11   48.70   17.30
   2  -1 -11  241.88   20.80
   2  -1 -11  217.18   20.00
   2  -1 -11  198.88   18.40
   2  -1 -11  206.78   19.60
  -2   1  11  203.08   18.70
  -2   1  11  249.28   23.60
  -2   1  11  274.27   21.00
  -2   1  11  187.68   19.40
  -2   1  11  221.48   32.90
   1  -1 -11  203.38   17.90
   1  -1 -11  177.98   16.80
   1  -1 -11  191.38   16.40
   1  -1 -11  155.88   17.10
  -1   1  11  180.18   17.60
  -1   1  11  163.58   16.30
  -1   1  11  162.48   17.10
  -1   1  11  166.98   17.30
  -1   1  11  169.58   15.40
   0  -1 -11    7.10   10.60
   0  -1 -11    5.80   11.60
   0  -1 -11  -11.50   10.50
   0   1  11    0.50   10.10
   0   1  11    1.10   10.10
   0   1  11    3.90   12.60
   0   1  11    2.70   11.60
   0   1  11   11.80   11.90
  -1  -1 -11  186.98   15.20
  -1  -1 -11  179.38   15.50
  -1  -1 -11  178.08   15.30
   1   1  11  210.28   18.40
   1   1  11  187.38   15.70
   1   1  11  190.48   15.60
   1   1  11  169.68   14.10
   1   1  11  179.08   15.20
  -2  -1 -11  370.76   19.80
  -2  -1 -11  362.96   20.40
  -2  -1 -11  404.66   21.40
  -2  -1 -11  395.06   21.20
   2   1  11  405.16   20.40
   2   1  11  391.36   19.50
   2   1  11  389.46   21.90
   2   1  11  388.06   20.60
   2   1  11  403.16   25.60
  -3  -1 -11   -1.20    8.20
  -3  -1 -11   14.30    9.30
   3   1  11   12.40    8.10
   3   1  11    9.20    8.80
   3   1  11    9.00    9.60
   3   1  11   22.00   13.40
   3   1  11   10.80    9.50
  -4  -1 -11  185.28   15.20
  -4  -1 -11  136.29   11.90
  -4  -1 -11  136.59   15.50
  -4  -1 -11  173.88   12.90
  -4  -1 -11  155.08   14.60
   4   1  11  147.99   14.20
   4   1  11  177.18   16.50
   4   1  11  169.28   19.00
   4   1  11  163.98   13.10
   4   1  11  128.99   11.40
  -5  -1 -11   60.79    9.50
  -5  -1 -11   64.09    9.90
  -5  -1 -11   61.39   12.80
  -5  -1 -11   58.49    9.00
   5   1  11   72.99   10.70
   5   1  11   76.09    9.20
   5   1  11   70.09    9.60
   5   1  11   68.39   10.90
  -6  -1 -11  921.41   35.30
  -6  -1 -11  918.91   27.50
  -6  -1 -11  933.01   26.00
   6   1  11  952.20   28.30
   6   1  11  912.31   26.60
   6   1  11  930.41   25.80
   6   1  11  847.12   31.30
  -7  -1 -11  277.07   12.30
  -7  -1 -11  275.77   11.10
  -7  -1 -11  231.68   19.20
  -7  -1 -11  263.27   23.50
   7   1  11  262.47   10.50
   7   1  11  269.17   11.50
   7   1  11  292.47   14.70
   7   1  11  282.77   12.20
   7   1  11  275.27   25.50
  -8  -1 -11   96.39   15.80
   8   1  11   70.09   21.90
   3  -2 -11   35.20   17.10
   3  -2 -11   10.90   15.00
   3  -2 -11   50.19   18.30
   3  -2 -11  -17.20   13.50
  -3   2  11   11.50   16.40
  -3   2  11   10.40   17.20
  -3   2  11   27.50   15.30
  -3   2  11    0.70   13.90
   2  -2 -11  286.17   24.80
   2  -2 -11  314.67   28.70
   2  -2 -11  223.68   20.40
   2  -2 -11  338.87   24.50
  -2   2  11  300.07   24.80
  -2   2  11  305.97   27.30
  -2   2  11  299.97   26.10
  -2   2  11  296.57   25.70
   1  -2 -11   30.10   13.90
   1  -2 -11   59.69   12.80
   1  -2 -11   44.10   14.50
   1  -2 -11   32.70   12.60
  -1   2  11   44.50   13.50
  -1   2  11   40.90   13.70
  -1   2  11   29.00   14.00
  -1   2  11   29.20   14.60
   0  -2 -11  118.99   15.20
   0  -2 -11  127.19   13.90
   0  -2 -11  122.69   15.50
   0   2  11  127.79   14.40
   0   2  11  144.19   16.10
   0   2  11  120.09   14.70
   0   2  11  143.39   16.10
  -1  -2 -11   47.30   10.60
  -1  -2 -11   35.00   11.70
  -1  -2 -11   68.29   12.80
   1   2  11   31.10   11.20
   1   2  11   63.29   11.80
   1   2  11   44.10   10.50
   1   2  11   52.79   11.90
  -2  -2 -11  739.73   28.00
  -2  -2 -11  775.22   28.80
  -2  -2 -11  752.72   27.20
  -2  -2 -11  754.12   28.60
   2   2  11  718.43   26.80
   2   2  11  725.73   27.80
   2   2  11  759.22   29.10
   2   2  11  773.52   28.30
  -3  -2 -11   52.49   11.30
  -3  -2 -11   58.79   10.60
  -3  -2 -11   52.19   10.30
   3   2  11   75.29   10.40
   3   2  11   79.89   11.50
   3   2  11   67.99   10.90
   3   2  11   68.99   11.10
  -4  -2 -11  297.77   18.00
  -4  -2 -11  334.27   18.50
  -4  -2 -11  283.07   22.30
  -4  -2 -11  317.37   17.80
   4   2  11  306.97   17.50
   4   2  11  392.96   25.60
   4   2  11  334.87   18.90
   4   2  11  352.36   17.40
   4   2  11  347.37   19.60
  -5  -2 -11  143.19   11.80
  -5  -2 -11  117.69   14.60
  -5  -2 -11  113.19   11.10
  -5  -2 -11  128.89   11.40
   5   2  11  128.99   10.80
   5   2  11  105.69   10.30
   5   2  11  121.19   11.70
   5   2  11  122.69   11.80
  -6  -2 -11   97.99   10.00
  -6  -2 -11  112.29   11.00
  -6  -2 -11  109.79    9.80
  -6  -2 -11  129.49   15.20
   6   2  11  108.79   11.10
   6   2  11  112.19   11.00
   6   2  11   92.59    9.90
   6   2  11  113.49    9.70
  -7  -2 -11   22.70    8.00
  -7  -2 -11   35.70    6.80
  -7  -2 -11   26.30    7.10
  -7  -2 -11   43.40   13.50
   7   2  11   32.20    8.50
   7   2  11   26.70    6.90
   7   2  11   29.50    6.90
   7   2  11   27.80    7.50
   7   2  11    0.50   18.00
  -8  -2 -11  143.39    9.00
  -8  -2 -11  131.29   16.50
  -8  -2 -11  137.29    9.10
   8   2  11  139.09   10.60
   8   2  11  144.69   23.60
   8   2  11  152.58    9.50
   2  -3 -11   38.20   15.40
   2  -3 -11   35.60   14.60
   2  -3 -11   26.30   16.30
   2  -3 -11   27.90   16.70
  -2   3  11   27.30   18.00
  -2   3  11   34.70   16.50
  -2   3  11   13.80   15.00
  -2   3  11   12.90   13.80
   1  -3 -11  797.62   32.00
   1  -3 -11  708.23   30.30
   1  -3 -11  791.32   35.20
   1  -3 -11  694.63   33.10
  -1   3  11  716.13   33.70
  -1   3  11  744.03   32.20
  -1   3  11  683.43   30.00
  -1   3  11  781.72   34.10
   0  -3 -11  561.34   29.60
   0  -3 -11  487.25   24.90
   0  -3 -11  526.95   26.30
   0  -3 -11  490.25   27.10
   0   3  11  467.95   24.50
   0   3  11  506.75   28.30
   0   3  11  545.75   26.50
   0   3  11  507.65   27.90
  -1  -3 -11  249.48   21.80
  -1  -3 -11  165.48   16.40
  -1  -3 -11  172.68   15.30
   1   3  11  195.38   17.20
   1   3  11  208.28   17.50
   1   3  11  232.78   19.40
  -2  -3 -11  144.89   14.90
  -2  -3 -11  150.78   13.70
  -2  -3 -11  183.58   16.00
   2   3  11  143.99   13.50
   2   3  11  134.69   14.00
   2   3  11  134.69   14.90
   2   3  11  147.29   15.10
  -3  -3 -11  750.72   30.90
  -3  -3 -11  753.62   27.00
  -3  -3 -11  733.23   27.70
  -3  -3 -11  733.33   28.20
   3   3  11  727.83   27.20
   3   3  11  737.03   28.20
   3   3  11  707.43   26.90
   3   3  11  741.73   28.60
  -4  -3 -11 1334.27   39.00
  -4  -3 -11 1405.06   39.10
  -4  -3 -11 1272.57   43.90
   4   3  11 1390.06   39.30
   4   3  11 1417.76   40.00
   4   3  11 1346.77   39.80
   4   3  11 1355.46   38.70
  -5  -3 -11   22.80    9.80
  -5  -3 -11   10.70    8.30
  -5  -3 -11   14.50    9.00
  -5  -3 -11    3.70   11.30
   5   3  11    7.10    9.40
   5   3  11   19.30    8.00
   5   3  11   12.70    9.70
   5   3  11   16.60    8.10
  -6  -3 -11  261.37   16.50
  -6  -3 -11  297.17   16.30
  -6  -3 -11  261.97   22.70
  -6  -3 -11  246.98   15.60
   6   3  11  256.87   15.10
   6   3  11  267.57   15.70
   6   3  11  248.68   17.50
   6   3  11  261.67   16.50
  -7  -3 -11    7.50    8.70
  -7  -3 -11   13.20    7.50
  -7  -3 -11   16.20   11.60
   7   3  11   25.50   17.00
   7   3  11   24.40    8.50
   7   3  11   23.60    9.00
   7   3  11    7.80    7.50
   7   3  11   23.90   10.30
  -8  -3 -11   64.59    8.00
  -8  -3 -11   96.09   15.60
  -8  -3 -11   75.79    8.50
   8   3  11   84.89    9.40
   8   3  11   71.79    6.90
   8   3  11   83.89    8.30
   8   3  11   65.09    7.50
   8   3  11   51.69   21.10
  -9  -3 -11   27.50   15.00
   9   3  11   62.79   21.80
   2  -4 -11   72.99   17.60
   2  -4 -11   79.09   20.10
   2  -4 -11   96.99   17.80
   2  -4 -11   95.09   20.00
  -2   4  11   86.09   17.60
  -2   4  11  102.09   19.90
  -2   4  11   63.59   16.30
  -2   4  11   89.59   19.60
   1  -4 -11  195.58   19.90
   1  -4 -11  217.88   21.20
   1  -4 -11  236.38   22.20
   1  -4 -11  171.38   17.90
  -1   4  11  241.38   20.00
  -1   4  11  204.18   20.00
  -1   4  11  223.98   21.20
  -1   4  11  260.67   22.20
   0  -4 -11  269.37   21.20
   0  -4 -11  282.87   22.60
   0  -4 -11  291.67   25.10
   0  -4 -11  270.27   21.00
   0   4  11  247.68   20.10
   0   4  11  332.17   26.00
   0   4  11  278.67   22.40
   0   4  11  269.87   25.60
  -1  -4 -11  210.68   17.10
  -1  -4 -11  183.48   17.50
  -1  -4 -11  191.48   18.10
   1   4  11  224.28   19.80
   1   4  11  222.78   20.90
   1   4  11  216.88   18.10
   1   4  11  247.18   22.30
  -2  -4 -11  587.34   27.60
  -2  -4 -11  551.04   25.10
  -2  -4 -11  597.84   27.30
   2   4  11  597.14   25.70
   2   4  11  597.04   26.60
   2   4  11  640.74   28.50
   2   4  11  581.14   26.60
  -3  -4 -11   90.99   12.50
  -3  -4 -11   85.89   12.80
  -3  -4 -11   86.09   12.50
   3   4  11   97.39   13.30
   3   4  11   74.79   11.70
   3   4  11   88.59   12.70
   3   4  11   78.99   11.60
  -4  -4 -11    4.30   12.40
  -4  -4 -11   -0.30    9.40
  -4  -4 -11   25.90   10.20
  -4  -4 -11   19.00   10.70
   4   4  11   13.60   10.50
   4   4  11   20.50    9.80
   4   4  11   21.20    9.40
   4   4  11   31.60   11.10
  -5  -4 -11   13.20    9.40
  -5  -4 -11   39.60   10.30
  -5  -4 -11   21.90    9.00
  -5  -4 -11   20.80   13.00
   5   4  11    8.90    8.00
   5   4  11   29.90    9.00
   5   4  11   23.00   10.10
   5   4  11   26.80   10.50
  -6  -4 -11   39.60    9.30
  -6  -4 -11   29.00    9.50
  -6  -4 -11   21.70   12.60
  -6  -4 -11   26.40    9.80
   6   4  11   31.70    8.30
   6   4  11   39.50    9.20
   6   4  11   33.00   10.00
   6   4  11   36.60   10.40
  -7  -4 -11  194.18   16.40
  -7  -4 -11  211.18   16.00
  -7  -4 -11  207.28   16.00
  -7  -4 -11  175.08   15.70
  -7  -4 -11  200.88   18.50
   7   4  11  189.68   15.00
   7   4  11  195.58   16.20
   7   4  11  218.28   15.10
   7   4  11  209.88   16.60
  -8  -4 -11  198.58   14.40
  -8  -4 -11  206.18   15.80
  -8  -4 -11  155.58   17.30
  -8  -4 -11  219.38   14.00
   8   4  11  196.88   14.50
   8   4  11  178.58   15.70
   8   4  11  164.88   16.50
   8   4  11  201.88   14.80
   8   4  11  221.58   24.10
  -9  -4 -11   -2.00   14.10
  -9  -4 -11    1.30    7.10
  -9  -4 -11   -1.60    7.30
   9   4  11   -4.50    4.90
   9   4  11    0.70    5.70
   9   4  11   -5.10    7.00
   9   4  11  -32.50   19.00
   9   4  11  -10.00    7.40
   1  -5 -11  218.68   21.60
   1  -5 -11  170.68   31.80
   1  -5 -11  203.48   22.00
   1  -5 -11  160.68   18.90
  -1   5  11  181.18   18.70
  -1   5  11  222.48   22.00
  -1   5  11  166.38   19.10
  -1   5  11  176.48   19.70
   0  -5 -11   -3.90   11.70
   0  -5 -11   22.70   15.00
   0  -5 -11  -11.60   11.80
   0  -5 -11   27.90   15.50
   0   5  11   13.30   13.80
   0   5  11   -6.40   14.70
   0   5  11    3.70   15.90
   0   5  11   -8.10   11.90
  -1  -5 -11  309.97   24.10
  -1  -5 -11  307.37   25.10
  -1  -5 -11  288.57   22.40
  -1  -5 -11  298.77   24.70
   1   5  11  296.07   23.80
   1   5  11  272.97   21.00
   1   5  11  326.97   24.30
   1   5  11  315.87   25.00
  -2  -5 -11    6.60   12.10
  -2  -5 -11  -25.60   10.10
  -2  -5 -11    5.00   11.70
   2   5  11   -1.90   10.30
   2   5  11  -25.10    9.70
   2   5  11    0.10   12.00
  -3  -5 -11   94.49   12.50
  -3  -5 -11  106.79   13.60
  -3  -5 -11   97.59   14.30
   3   5  11  108.69   13.90
   3   5  11   90.09   13.10
   3   5  11   97.19   12.70
  -4  -5 -11    2.30   13.20
  -4  -5 -11   17.90   10.30
  -4  -5 -11   -2.40    9.60
  -4  -5 -11  -12.40   10.40
   4   5  11   -8.80    9.50
   4   5  11   -4.60   10.10
   4   5  11   20.30    9.80
  -5  -5 -11    7.00   10.40
  -5  -5 -11    0.30   12.10
  -5  -5 -11    1.30   11.80
   5   5  11  -14.40    9.00
   5   5  11    7.00    9.00
   5   5  11   -1.80    9.90
  -6  -5 -11  125.99   16.70
  -6  -5 -11  186.48   14.80
  -6  -5 -11  187.28   14.70
   6   5  11  187.98   16.50
   6   5  11  159.38   13.50
  -7  -5 -11   35.60   10.40
  -7  -5 -11   55.29   13.70
  -7  -5 -11   31.90   10.00
  -7  -5 -11   30.90   10.80
  -7  -5 -11   37.90   10.80
   7   5  11   26.70    9.40
   7   5  11   12.90    8.60
  -8  -5 -11   18.30    9.50
  -8  -5 -11   17.90    9.30
  -8  -5 -11   27.30   10.10
  -8  -5 -11   11.40    9.90
  -8  -5 -11    2.60   13.20
   8   5  11   -0.90    8.90
   8   5  11    4.60    9.10
   8   5  11   21.30    9.70
   8   5  11   11.10    9.30
  -9  -5 -11   15.50   14.60
   9   5  11   22.50    9.00
   0  -6 -11  118.59   18.70
   0  -6 -11  141.39   18.60
   0  -6 -11  143.09   17.50
   0  -6 -11   93.49   17.60
   0   6  11  118.69   18.50
   0   6  11  164.98   19.80
   0   6  11  125.09   17.30
  -1  -6 -11  313.87   25.90
  -1  -6 -11  294.47   24.50
  -1  -6 -11  270.97   26.30
  -1  -6 -11  347.57   24.20
   1   6  11  330.67   27.40
   1   6  11  287.37   25.50
   1   6  11  336.37   26.50
   1   6  11  333.27   25.60
  -2  -6 -11   53.99   13.30
  -2  -6 -11   61.49   13.60
  -2  -6 -11   42.30   14.40
   2   6  11   52.79   13.60
   2   6  11   39.80   12.50
   2   6  11   54.19   14.90
  -3  -6 -11   76.49   14.40
  -3  -6 -11   64.79   14.70
  -3  -6 -11  100.19   14.30
   3   6  11   96.09   14.20
   3   6  11   78.69   13.00
   3   6  11   79.79   13.50
   3   6  11   71.79   13.90
  -4  -6 -11   -1.20   11.10
  -4  -6 -11   19.70   12.00
  -4  -6 -11   21.20   10.70
  -4  -6 -11    9.80   11.30
  -4  -6 -11   16.00   14.10
   4   6  11   19.90   11.50
   4   6  11   26.50   10.80
   4   6  11   19.30   11.50
   4   6  11   20.50   11.20
  -5  -6 -11  599.24   25.00
  -5  -6 -11  620.84   27.20
  -5  -6 -11  583.84   30.50
  -5  -6 -11  602.44   28.10
   5   6  11  586.44   26.00
   5   6  11  613.04   25.70
   5   6  11  628.74   26.50
   5   6  11  640.34   26.40
  -6  -6 -11  503.45   23.70
  -6  -6 -11  499.85   29.60
  -6  -6 -11  538.85   27.00
   6   6  11  567.24   24.20
   6   6  11  519.95   24.10
   6   6  11  523.45   24.40
   6   6  11  512.35   24.30
  -7  -6 -11  331.27   26.30
  -7  -6 -11  303.87   20.50
  -7  -6 -11  300.07   19.60
  -7  -6 -11  348.67   21.30
   7   6  11  322.87   19.90
   7   6  11  311.77   20.60
   7   6  11  323.57   20.00
   7   6  11  349.47   19.90
  -8  -6 -11  593.74   24.90
  -8  -6 -11  537.75   31.40
  -8  -6 -11  507.05   22.70
  -8  -6 -11  550.84   24.50
   8   6  11  534.25   24.00
   8   6  11  567.64   23.90
   8   6  11  540.75   23.10
   8   6  11  540.55   23.50
  -1  -7 -11   42.30   14.90
  -1  -7 -11   51.89   16.50
  -1  -7 -11   14.50   16.60
  -1  -7 -11   39.90   16.70
   1   7  11   13.90   16.50
   1   7  11   35.20   15.40
   1   7  11   39.50   15.40
  -2  -7 -11   10.20   14.60
  -2  -7 -11   -7.60   12.90
  -2  -7 -11   -2.50   13.00
  -2  -7 -11    2.10   15.10
   2   7  11  -10.70   13.10
   2   7  11  -15.60   13.50
   2   7  11    4.30   14.30
   2   7  11   -0.10   13.00
  -3  -7 -11  542.25   29.90
  -3  -7 -11  549.85   28.30
  -3  -7 -11  575.44   30.00
  -3  -7 -11  529.75   28.30
   3   7  11  549.54   28.40
   3   7  11  520.95   27.80
   3   7  11  540.35   29.20
   3   7  11  537.95   28.60
  -4  -7 -11  498.65   29.60
  -4  -7 -11  482.65   31.70
  -4  -7 -11  596.94   26.80
  -4  -7 -11  533.75   27.90
  -4  -7 -11  573.14   27.30
   4   7  11  514.25   27.00
   4   7  11  558.24   28.20
   4   7  11  551.64   26.60
   4   7  11  539.55   27.70
  -5  -7 -11    1.90   12.70
  -5  -7 -11   -7.10   13.80
  -5  -7 -11  -10.90   10.50
  -5  -7 -11    3.00   11.50
  -5  -7 -11    0.20   11.30
   5   7  11  -10.60   11.10
   5   7  11  -16.30   11.20
   5   7  11  -11.60   11.80
   5   7  11   15.20   12.20
  -6  -7 -11   11.00   13.10
  -6  -7 -11   15.80   11.30
  -6  -7 -11   42.80   12.80
  -6  -7 -11   -7.90   14.00
  -6  -7 -11   33.20   12.20
   6   7  11   38.00   12.50
   6   7  11   20.90   11.50
   6   7  11   22.70   12.00
   6   7  11   27.10   12.10
  -7  -7 -11   99.79   13.70
  -7  -7 -11   80.29   13.40
  -7  -7 -11   65.99   15.70
  -7  -7 -11   91.19   13.70
  -7  -7 -11   73.69   12.80
   7   7  11   79.09   13.80
   7   7  11   98.09   14.10
   7   7  11   62.29   12.60
   7   7  11   89.59   13.00
  -8  -7 -11  124.79   14.20
  -8  -7 -11  121.19   13.20
  -8  -7 -11   79.39   13.80
  -8  -7 -11   90.89   16.90
  -8  -7 -11  106.99   14.40
   8   7  11  112.89   14.00
   8   7  11   97.49   13.60
   8   7  11  117.49   13.50
   8   7  11  122.89   14.20
  -3  -8 -11  354.26   27.00
  -3  -8 -11  343.47   26.70
  -3  -8 -11  361.96   29.70
  -3  -8 -11  362.16   28.70
   3   8  11  396.26   27.60
   3   8  11  296.47   27.00
   3   8  11  391.76   29.50
   3   8  11  360.36   27.40
  -4  -8 -11   19.30   14.80
  -4  -8 -11    6.40   12.80
  -4  -8 -11    5.70   15.60
  -4  -8 -11   20.30   13.90
  -4  -8 -11   24.50   15.60
   4   8  11   19.90   14.60
   4   8  11   36.90   14.10
   4   8  11   41.30   14.10
   4   8  11   35.50   15.40
  -5  -8 -11  511.55   27.50
  -5  -8 -11  525.15   31.60
  -5  -8 -11  533.55   30.80
  -5  -8 -11  555.34   28.40
  -5  -8 -11  503.05   27.60
   5   8  11  540.55   29.30
   5   8  11  462.55   28.20
   5   8  11  519.05   27.30
   5   8  11  515.65   29.90
  -6  -8 -11  172.98   16.90
  -6  -8 -11  148.29   18.90
  -6  -8 -11  165.28   16.80
  -6  -8 -11  163.48   18.20
  -6  -8 -11  166.08   16.20
   6   8  11  200.18   17.90
   6   8  11  168.88   17.00
   6   8  11  181.88   17.40
   6   8  11  179.78   17.50
  -7  -8 -11    2.70   12.60
  -7  -8 -11   -1.50   14.80
  -7  -8 -11   -3.00   12.20
   7   8  11    9.10   12.80
   7   8  11  -12.20   11.80
   0   4 -12  481.35   32.40
   0   4 -12  574.54   30.70
   0   4 -12  565.64   28.20
   0   4 -12  503.85   31.80
   0  -4  12  550.24   35.40
   0  -4  12  535.45   32.20
   0  -4  12  526.95   29.70
   0  -4  12  535.45   41.10
   0  -4  12  543.65   28.30
  -1   4 -12   60.39   17.20
  -1   4 -12   94.39   15.80
  -1   4 -12   97.89   17.10
  -1   4 -12   86.89   18.30
  -1   4 -12  127.29   15.00
   1  -4  12  111.19   15.80
   1  -4  12   83.49   14.70
   1  -4  12  103.69   24.00
   1  -4  12   75.29   18.40
   1  -4  12   95.79   17.70
  -2   4 -12  -28.90   14.50
  -2   4 -12    2.20   12.70
  -2   4 -12    1.60   13.70
  -2   4 -12  -20.80   13.60
   2  -4  12    6.00   12.30
   2  -4  12   -0.10   14.80
   2  -4  12   13.00   15.70
   2  -4  12    6.00   12.10
   2  -4  12   -4.30   22.00
   1   3 -12    1.80   16.30
   1   3 -12   -9.30   13.30
   1   3 -12   -1.00   16.70
  -1  -3  12   -5.10   16.00
  -1  -3  12   16.10   17.10
  -1  -3  12   -0.40   12.60
  -1  -3  12   -6.20   18.30
  -1  -3  12   18.20   14.20
   0   3 -12  -11.00   15.30
   0   3 -12    7.80   13.10
   0   3 -12   10.60   15.60
   0  -3  12   31.40   15.50
   0  -3  12   18.00   16.60
   0  -3  12  -11.60   12.30
   0  -3  12   10.20   12.80
  -1   3 -12   24.20   14.90
  -1   3 -12   19.80   11.40
  -1   3 -12    0.90   14.60
   1  -3  12    9.00   15.80
   1  -3  12   21.60   12.60
   1  -3  12    8.60   12.20
   1  -3  12   -4.20   19.50
   1  -3  12   18.30   15.20
  -2   3 -12   30.90   14.20
  -2   3 -12   12.30   12.70
  -2   3 -12   35.30   12.50
  -2   3 -12   21.20   14.20
   2  -3  12    7.80   14.50
   2  -3  12   35.70   14.70
   2  -3  12   33.90   12.20
   2  -3  12    5.70   20.70
   2  -3  12   17.40   11.20
  -3   3 -12   18.70   13.40
  -3   3 -12   20.20   12.40
  -3   3 -12   22.00   14.00
  -3   3 -12   53.89   14.50
  -3   3 -12   54.69   12.50
   3  -3  12   31.90   14.50
   3  -3  12   21.60   11.20
   3  -3  12    9.00   13.20
   3  -3  12   16.60   10.50
   3  -3  12    4.90   20.50
  -4   3 -12  317.07   24.20
  -4   3 -12  281.17   25.30
  -4   3 -12  289.37   23.00
  -4   3 -12  282.67   20.50
  -4   3 -12  303.17   20.00
   4  -3  12  335.77   20.40
   4  -3  12  338.77   19.90
   4  -3  12  286.77   22.60
   4  -3  12  280.87   29.80
   4  -3  12  292.67   24.30
   2   2 -12   38.50   18.60
   2   2 -12    5.80   14.20
   2   2 -12   11.10   14.20
   2   2 -12    3.00   16.80
  -2  -2  12   25.30   14.20
  -2  -2  12  -16.10   17.50
  -2  -2  12  -29.90   14.60
  -2  -2  12   36.80   18.60
  -2  -2  12  -11.30   16.20
   1   2 -12  132.69   16.60
   1   2 -12   84.99   16.90
   1   2 -12   97.69   18.20
   1   2 -12  146.09   17.60
  -1  -2  12   78.69   16.00
  -1  -2  12  110.99   17.90
  -1  -2  12  120.19   20.60
  -1  -2  12  116.49   18.50
  -1  -2  12  108.99   15.30
   0   2 -12  201.88   17.20
   0   2 -12  177.18   18.20
   0   2 -12  196.28   18.90
   0   2 -12  189.58   19.90
   0  -2  12  207.68   20.40
   0  -2  12  189.58   24.20
   0  -2  12  199.18   17.00
   0  -2  12  188.98   17.70
   0  -2  12  197.38   19.20
  -1   2 -12    1.40   10.20
  -1   2 -12   -5.20   11.50
  -1   2 -12   -1.40   13.50
  -1   2 -12   15.10   13.70
   1  -2  12   -2.20   11.50
   1  -2  12   21.20   11.60
   1  -2  12    1.90   13.10
   1  -2  12   -5.80   14.90
  -2   2 -12   16.90   11.60
  -2   2 -12    5.80   12.00
  -2   2 -12   25.60   13.30
  -2   2 -12   23.30   13.90
   2  -2  12   43.60   19.90
   2  -2  12   24.70   13.00
   2  -2  12   -6.90    9.90
   2  -2  12   20.70   11.00
   2  -2  12   -2.90   14.00
  -3   2 -12   38.30   14.30
  -3   2 -12   38.90   13.50
  -3   2 -12   82.69   12.00
  -3   2 -12   40.30   11.70
  -3   2 -12   44.00   13.00
   3  -2  12   50.49   21.00
   3  -2  12   25.70   13.50
   3  -2  12   56.39   11.20
   3  -2  12   47.40   11.00
  -4   2 -12  255.17   18.50
  -4   2 -12  194.18   19.50
  -4   2 -12  262.47   18.90
  -4   2 -12  221.38   20.80
   4  -2  12  237.98   20.70
   4  -2  12  236.58   21.90
   4  -2  12  265.47   17.40
   4  -2  12  276.27   18.60
   4  -2  12  219.78   25.50
  -5   2 -12    2.50   10.10
  -5   2 -12   13.30   10.60
  -5   2 -12   12.10    9.70
  -5   2 -12   -7.30   13.50
   5  -2  12   -3.80   10.50
   5  -2  12    4.50    9.20
   5  -2  12    3.30   12.00
   5  -2  12    7.70    8.90
   5  -2  12   23.90   21.70
   2   1 -12  149.59   21.20
   2   1 -12  170.08   20.50
   2   1 -12  184.68   18.20
   2   1 -12  180.88   18.30
  -2  -1  12  175.68   20.70
  -2  -1  12  166.98   22.10
  -2  -1  12  182.08   18.70
  -2  -1  12  163.58   20.50
  -2  -1  12  178.08   18.50
   1   1 -12  126.19   16.00
   1   1 -12  117.49   17.40
   1   1 -12  138.59   19.30
   1   1 -12  139.39   16.40
  -1  -1  12  127.29   18.40
  -1  -1  12  134.99   20.40
  -1  -1  12  131.59   15.40
  -1  -1  12  153.58   17.40
  -1  -1  12  124.19   18.70
   0   1 -12   62.19   15.30
   0   1 -12   45.60   12.70
   0   1 -12   82.59   14.40
   0  -1  12   77.59   18.80
   0  -1  12   52.19   12.00
   0  -1  12   67.79   16.50
   0  -1  12   34.90   14.70
   0  -1  12   66.09   14.10
  -1   1 -12  858.61   32.60
  -1   1 -12  848.52   30.80
  -1   1 -12  856.61   32.80
  -1   1 -12  820.32   33.50
   1  -1  12  887.01   33.20
   1  -1  12  850.61   35.10
   1  -1  12  869.81   30.50
   1  -1  12  823.22   31.40
  -2   1 -12  934.01   34.50
  -2   1 -12  929.61   33.10
  -2   1 -12  976.30   32.70
   2  -1  12  958.10   31.40
   2  -1  12  891.71   32.60
   2  -1  12  875.41   31.90
   2  -1  12  998.10   35.60
  -3   1 -12   -3.60   10.10
  -3   1 -12   -9.60   12.90
  -3   1 -12    5.80    9.80
   3  -1  12   14.10   11.70
   3  -1  12    3.00    9.90
   3  -1  12   20.60    9.70
   3  -1  12   -5.10   17.60
   3  -1  12   28.20   13.00
  -4   1 -12   94.99   16.00
  -4   1 -12   93.99   13.20
  -4   1 -12  105.99   12.60
  -4   1 -12  111.99   12.10
   4  -1  12  112.49   14.20
   4  -1  12  103.29   11.40
   4  -1  12   86.79   11.90
   4  -1  12   93.29   13.30
   4  -1  12  115.49   22.30
  -5   1 -12   27.90   10.80
  -5   1 -12   27.10   13.70
  -5   1 -12   37.50   10.20
  -5   1 -12   23.50    9.50
  -5   1 -12   62.79   11.80
   5  -1  12   39.90   11.20
   5  -1  12   26.70    9.50
   5  -1  12   30.90   19.40
   5  -1  12   37.10   12.10
   5  -1  12   23.70    8.90
  -6   1 -12  112.99    9.90
  -6   1 -12  139.49   12.30
  -6   1 -12  151.38   11.80
  -6   1 -12  135.99   17.40
  -6   1 -12  114.49   11.30
   6  -1  12  126.09   11.00
   6  -1  12  139.39   25.30
   6  -1  12  121.89    9.90
   6  -1  12  117.79   11.20
   6  -1  12  151.58   13.30
   2   0 -12   69.39   18.70
   2   0 -12   83.49   16.40
   2   0 -12   72.09   14.70
   2   0 -12   83.69   18.90
  -2   0  12   76.59   19.40
  -2   0  12   49.30   18.30
  -2   0  12   59.89   16.10
  -2   0  12   37.60   17.00
  -2   0  12   63.29   15.90
   1   0 -12  322.77   26.60
   1   0 -12  354.46   24.60
   1   0 -12  333.47   25.90
   1   0 -12  332.47   28.60
  -1   0  12  329.87   25.30
  -1   0  12  320.57   28.40
  -1   0  12  353.06   29.10
  -1   0  12  338.07   25.90
  -1   0  12  333.77   24.50
   0   0 -12  165.88   18.40
   0   0 -12  154.18   16.40
   0   0 -12  166.28   16.90
   0   0  12  116.59   14.40
   0   0  12  143.19   19.70
   0   0  12  136.09   16.00
   0   0  12  137.39   17.00
   0   0  12  151.08   17.80
  -1   0 -12   85.49   12.70
  -1   0 -12   61.09   14.40
  -1   0 -12   45.40   13.20
  -1   0 -12   38.30   12.40
   1   0  12   51.89   12.10
   1   0  12   56.19   12.10
   1   0  12   41.60   17.70
   1   0  12   68.09   14.40
   1   0  12   67.79   14.60
  -2   0 -12   -0.30   14.00
  -2   0 -12   14.70   12.20
  -2   0 -12    6.50   10.70
  -2   0 -12    4.50   11.50
   2   0  12    0.20   10.60
   2   0  12    3.30   11.70
   2   0  12   35.80   13.50
   2   0  12   15.10   10.50
  -3   0 -12  195.18   17.70
  -3   0 -12  154.78   17.90
   3   0  12  210.28   17.10
   3   0  12  218.68   18.00
   3   0  12  187.98   17.30
   3   0  12  227.28   19.50
  -4   0 -12   63.19   11.80
  -4   0 -12   93.79   12.10
  -4   0 -12   52.99   15.70
  -4   0 -12   51.89   10.90
   4   0  12   64.09   13.20
   4   0  12   50.89   10.50
   4   0  12   86.49   11.80
   4   0  12   71.39   19.80
   4   0  12   77.59   12.50
  -5   0 -12    2.60   10.70
  -5   0 -12    9.10    9.40
  -5   0 -12  -10.30   12.00
  -5   0 -12    8.90    9.30
  -5   0 -12   -6.70   10.70
   5   0  12   16.50    9.10
   5   0  12   -1.90   10.40
   5   0  12    2.10   17.50
   5   0  12   -3.80    9.80
   5   0  12   -4.50    8.00
  -6   0 -12   74.29   10.90
  -6   0 -12   71.69   15.80
  -6   0 -12   81.29   10.50
  -6   0 -12   81.59    9.40
   6   0  12   76.59   21.90
   6   0  12   80.49   11.60
   6   0  12   45.20    8.30
   6   0  12   65.49    9.30
  -7   0 -12   58.29   16.20
  -7   0 -12   62.39    8.00
  -7   0 -12   53.99    8.60
   7   0  12   74.39    6.50
   7   0  12   74.79    7.40
   7   0  12   95.19   25.00
   7   0  12   71.99    9.40
   7   0  12   93.19    8.60
   2  -1 -12   27.40   15.00
   2  -1 -12   20.70   17.60
   2  -1 -12   15.70   14.30
   2  -1 -12   16.10   17.80
  -2   1  12   41.60   17.90
  -2   1  12   10.40   16.60
  -2   1  12   41.20   18.00
  -2   1  12   44.70   15.60
  -2   1  12    8.40   14.30
   1  -1 -12  490.95   28.60
   1  -1 -12  491.35   31.90
   1  -1 -12  535.25   27.60
   1  -1 -12  492.35   26.80
  -1   1  12  525.45   30.50
  -1   1  12  507.35   31.60
  -1   1  12  506.65   26.20
  -1   1  12  507.45   28.50
  -1   1  12  512.65   31.00
   0  -1 -12   82.09   14.60
   0  -1 -12  101.49   16.50
   0  -1 -12  100.89   16.30
   0   1  12   83.89   17.50
   0   1  12   87.69   13.60
   0   1  12   98.19   16.30
   0   1  12   99.49   14.70
   0   1  12  125.79   16.60
  -1  -1 -12   35.00   13.10
  -1  -1 -12   -4.80   10.30
  -1  -1 -12    7.80   12.30
   1   1  12   20.90   11.50
   1   1  12   17.40   15.80
   1   1  12   40.70   12.50
   1   1  12    8.40   13.50
   1   1  12    9.70   12.80
  -2  -1 -12   -7.50   10.80
  -2  -1 -12   -4.80   11.00
  -2  -1 -12   14.10   12.30
  -2  -1 -12  -17.90    9.30
   2   1  12    3.50   11.40
   2   1  12   20.50   11.00
   2   1  12   12.80   10.80
   2   1  12  -17.50   12.00
  -3  -1 -12   -4.20   10.20
  -3  -1 -12   -8.80   13.20
   3   1  12    7.30    9.80
   3   1  12    4.40   11.10
   3   1  12   -0.50   11.10
   3   1  12  -15.50    9.90
  -4  -1 -12   18.30   10.70
  -4  -1 -12    1.80   13.00
  -4  -1 -12   15.90   10.30
   4   1  12   30.40   17.50
   4   1  12   26.10   11.30
   4   1  12   15.30    9.30
   4   1  12   14.80    9.20
   4   1  12   17.00   11.50
  -5  -1 -12    2.40   10.30
  -5  -1 -12  -17.00    9.30
  -5  -1 -12    9.10   12.70
  -5  -1 -12  -11.20    9.70
  -5  -1 -12  -10.70    8.70
   5   1  12   -2.50   10.60
   5   1  12    2.30   10.10
   5   1  12    2.20    8.80
   5   1  12   12.00    8.40
   5   1  12    1.30   17.00
  -6  -1 -12   29.10   10.00
  -6  -1 -12   17.70   10.30
  -6  -1 -12   22.30    8.90
  -6  -1 -12   27.70    9.30
  -6  -1 -12   22.90   14.40
   6   1  12   12.50    8.20
   6   1  12   28.40    9.70
   6   1  12   21.20   10.80
   6   1  12   20.90   21.80
   6   1  12   19.90    8.20
  -7  -1 -12  241.38   15.90
  -7  -1 -12  330.77   27.10
  -7  -1 -12  278.97   14.80
  -7  -1 -12  272.67   14.60
  -7  -1 -12  290.27   16.20
   7   1  12  269.37   17.40
   7   1  12  286.07   14.90
   7   1  12  262.07   14.50
   7   1  12  221.08   27.20
   7   1  12  269.97   13.30
   1  -2 -12   79.39   15.30
   1  -2 -12   44.60   15.30
   1  -2 -12   42.90   14.20
   1  -2 -12   60.69   17.60
  -1   2  12   63.09   15.20
  -1   2  12   80.39   17.10
  -1   2  12   81.09   16.60
  -1   2  12   52.29   15.60
   0  -2 -12   93.19   15.70
   0  -2 -12   94.19   15.20
   0  -2 -12  120.49   16.20
   0  -2 -12  117.59   17.70
   0   2  12   96.89   16.40
   0   2  12  143.19   17.40
   0   2  12  132.49   15.80
   0   2  12  143.19   16.50
  -1  -2 -12   20.30   13.20
  -1  -2 -12    8.30   13.60
  -1  -2 -12   23.80   12.10
   1   2  12    8.50   12.30
   1   2  12   -2.90   12.10
   1   2  12   22.80   11.50
   1   2  12   -9.20   13.10
  -2  -2 -12    2.80   11.30
  -2  -2 -12   21.90   12.10
  -2  -2 -12   22.00   12.40
  -2  -2 -12   17.80   10.30
   2   2  12   24.50   12.80
   2   2  12   -2.70   12.60
   2   2  12   30.10   10.90
   2   2  12   16.80   11.50
  -3  -2 -12  648.94   28.30
  -3  -2 -12  677.43   27.60
   3   2  12  664.93   26.30
   3   2  12  695.43   28.90
   3   2  12  715.73   28.00
   3   2  12  687.33   26.90
  -4  -2 -12  273.87   19.00
  -4  -2 -12  216.98   20.20
  -4  -2 -12  255.57   19.00
   4   2  12  274.07   18.00
   4   2  12  302.67   26.80
   4   2  12  313.27   21.70
   4   2  12  278.07   18.90
   4   2  12  347.77   20.60
  -5  -2 -12  188.48   17.20
  -5  -2 -12  217.48   18.00
  -5  -2 -12  191.58   14.60
  -5  -2 -12  162.38   18.40
   5   2  12  183.38   16.00
   5   2  12  213.68   18.10
   5   2  12  212.18   25.30
   5   2  12  178.78   16.40
   5   2  12  211.58   19.10
  -6  -2 -12  355.36   27.20
  -6  -2 -12  345.57   18.50
  -6  -2 -12  385.06   19.90
  -6  -2 -12  387.16   20.00
  -6  -2 -12  373.56   18.90
   6   2  12  353.36   20.40
   6   2  12  361.06   19.30
   6   2  12  342.97   17.60
   6   2  12  345.07   18.00
  -7  -2 -12    4.20    8.70
  -7  -2 -12   23.40    8.30
  -7  -2 -12   15.50   13.90
  -7  -2 -12   16.80    9.40
   7   2  12   15.30    7.60
   7   2  12   13.00    9.80
   7   2  12   -0.50    8.20
   7   2  12   10.10    7.60
   7   2  12   29.90   21.80
   1  -3 -12    6.50   16.40
   1  -3 -12   11.40   14.20
   1  -3 -12   24.70   17.80
   1  -3 -12   10.50   14.20
  -1   3  12   -3.70   17.60
  -1   3  12   -3.10   14.20
  -1   3  12   26.00   16.90
  -1   3  12    9.00   14.90
   0  -3 -12  101.89   17.40
   0  -3 -12  114.49   17.00
   0  -3 -12   87.89   17.60
   0  -3 -12  110.69   16.20
   0   3  12  106.59   17.40
   0   3  12  128.99   18.70
   0   3  12   94.59   16.00
   0   3  12  123.39   16.20
  -1  -3 -12  575.14   30.70
  -1  -3 -12  505.95   28.60
   1   3  12  503.95   27.10
   1   3  12  509.95   26.60
   1   3  12  522.25   29.50
   1   3  12  567.24   29.30
  -2  -3 -12   49.20   13.70
  -2  -3 -12   34.70   13.90
  -2  -3 -12   32.50   13.80
  -2  -3 -12   67.09   12.80
   2   3  12   49.90   12.10
   2   3  12   46.10   13.00
   2   3  12   48.10   13.70
   2   3  12   16.60   13.80
  -3  -3 -12  182.58   16.20
  -3  -3 -12  176.18   16.30
  -3  -3 -12  172.28   15.90
  -3  -3 -12  177.18   15.60
   3   3  12  147.69   14.10
   3   3  12  163.68   16.10
   3   3  12  131.59   14.50
   3   3  12  160.88   16.30
  -4  -3 -12   50.49   12.10
  -4  -3 -12   23.30   13.60
   4   3  12   50.69   11.10
   4   3  12   46.90   12.70
   4   3  12   35.00   12.50
   4   3  12   48.80   10.70
  -5  -3 -12  831.32   35.70
  -5  -3 -12  843.52   30.00
  -5  -3 -12  818.82   29.60
  -5  -3 -12  840.42   29.30
   5   3  12  846.52   29.40
   5   3  12  778.92   29.90
   5   3  12  836.82   28.50
   5   3  12  830.02   28.80
  -6  -3 -12  121.59   12.80
  -6  -3 -12  119.19   12.40
  -6  -3 -12  111.39   12.30
  -6  -3 -12  131.19   16.90
   6   3  12  123.19   12.20
   6   3  12  131.69   12.20
   6   3  12  121.99   13.00
   6   3  12  133.69   13.30
  -7  -3 -12  201.08   17.30
  -7  -3 -12  226.68   16.60
  -7  -3 -12  148.39   18.20
  -7  -3 -12  183.78   13.70
  -7  -3 -12  156.18   12.80
   7   3  12  188.98   14.80
   7   3  12  185.58   16.80
   7   3  12  188.38   24.50
   7   3  12  229.58   15.70
   7   3  12  196.38   17.60
  -8  -3 -12   13.70   15.30
   8   3  12   37.20    8.80
   0  -4 -12  106.59   16.60
   0  -4 -12  137.69   19.60
   0  -4 -12  117.39   16.60
   0  -4 -12  129.09   20.40
   0   4  12   97.59   19.30
   0   4  12   92.79   17.20
   0   4  12  105.19   17.60
   0   4  12  129.39   19.90
  -1  -4 -12  471.05   25.60
  -1  -4 -12  439.16   28.60
  -1  -4 -12  437.56   31.20
  -1  -4 -12  447.16   28.20
   1   4  12  524.95   28.50
   1   4  12  468.05   25.70
   1   4  12  441.66   29.70
   1   4  12  393.56   29.50
  -2  -4 -12   18.00   13.40
  -2  -4 -12   26.40   14.90
  -2  -4 -12   15.00   12.90
   2   4  12    8.50   14.10
   2   4  12  -12.80   13.60
   2   4  12    2.50   12.20
   2   4  12  -10.40   10.90
  -3  -4 -12  620.74   28.00
  -3  -4 -12  594.84   29.30
  -3  -4 -12  581.64   28.80
  -3  -4 -12  583.44   26.20
   3   4  12  587.04   27.20
   3   4  12  601.74   28.40
   3   4  12  607.54   29.60
   3   4  12  540.55   25.80
  -4  -4 -12   60.49   13.00
  -4  -4 -12   34.70   15.90
  -4  -4 -12   51.79   12.90
  -4  -4 -12   66.29   13.50
   4   4  12   53.79   12.00
   4   4  12   64.09   11.90
   4   4  12   39.70   13.20
   4   4  12   41.60   13.20
  -5  -4 -12  132.19   13.90
  -5  -4 -12  100.49   16.70
  -5  -4 -12   95.19   17.20
  -5  -4 -12  134.99   14.00
   5   4  12  133.49   13.40
   5   4  12  138.29   15.20
   5   4  12   98.09   14.60
   5   4  12  120.89   13.30
  -6  -4 -12   42.30   12.20
  -6  -4 -12   37.80   11.50
  -6  -4 -12   36.20   15.20
  -6  -4 -12   36.40   11.40
   6   4  12   12.50    9.80
   6   4  12   35.30   11.60
   6   4  12   42.90   12.50
   6   4  12   23.80   10.40
  -7  -4 -12  216.48   18.70
  -7  -4 -12  180.98   19.60
  -7  -4 -12  214.38   18.90
  -7  -4 -12  232.58   17.40
   7   4  12  244.48   17.20
   7   4  12  191.78   17.40
   7   4  12  203.18   24.20
   7   4  12  208.88   19.30
   7   4  12  202.78   18.70
   8   4  12  101.09   11.40
  -1  -5 -12    3.00   13.80
  -1  -5 -12   34.80   14.80
  -1  -5 -12    4.80   16.70
  -1  -5 -12   -3.00   15.80
   1   5  12  -11.10   13.40
   1   5  12    2.10   15.50
   1   5  12    3.10   15.60
   1   5  12    4.30   13.80
  -2  -5 -12  208.28   20.10
  -2  -5 -12  178.38   19.20
  -2  -5 -12  210.28   18.90
  -2  -5 -12  200.88   18.60
   2   5  12  180.18   18.50
   2   5  12  192.88   18.20
   2   5  12  238.98   21.10
   2   5  12  229.28   20.40
  -3  -5 -12   75.19   15.20
  -3  -5 -12   99.39   14.80
  -3  -5 -12   81.89   15.90
  -3  -5 -12  106.59   15.70
   3   5  12   89.39   14.30
   3   5  12  105.59   16.40
   3   5  12   69.49   14.40
  -4  -5 -12    9.70   12.70
  -4  -5 -12    0.10   15.20
  -4  -5 -12   -2.20   12.30
  -4  -5 -12  -11.90   12.20
  -4  -5 -12  -16.10    9.80
   4   5  12  -11.10   12.70
   4   5  12    0.10   11.80
   4   5  12  -11.50   12.80
   4   5  12  -11.60   11.50
  -5  -5 -12    6.00   11.80
  -5  -5 -12   -9.30   13.50
  -5  -5 -12    6.90   11.90
   5   5  12    6.50   10.80
   5   5  12    3.80   12.00
   5   5  12   -3.50   12.00
   5   5  12   15.00   10.60
  -6  -5 -12  -14.30   10.80
  -6  -5 -12   29.60   12.10
  -6  -5 -12   -4.90   11.50
  -6  -5 -12    5.20   11.10
  -6  -5 -12    3.30   14.80
   6   5  12   -1.10   12.00
   6   5  12   10.40   10.70
   6   5  12   12.80   10.60
   6   5  12   24.30   12.00
  -7  -5 -12   82.89   13.10
  -7  -5 -12   71.89   12.80
  -7  -5 -12   26.50   15.50
  -7  -5 -12   84.99   13.10
  -7  -5 -12   73.89   13.30
   7   5  12   86.79   12.70
   7   5  12   66.49   13.40
   7   5  12   89.69   13.50
   7   5  12   71.49   12.00
  -2  -6 -12  144.19   17.40
  -2  -6 -12  160.18   20.30
  -2  -6 -12  154.58   18.40
  -2  -6 -12  128.09   18.70
   2   6  12  148.79   19.20
   2   6  12  175.78   19.60
   2   6  12  154.98   18.10
  -3  -6 -12  168.88   22.20
  -3  -6 -12  148.79   18.80
  -3  -6 -12  171.98   18.60
  -3  -6 -12  159.08   17.70
   3   6  12  159.68   17.60
   3   6  12  160.48   17.80
   3   6  12  172.78   18.80
  -4  -6 -12    2.20   13.20
  -4  -6 -12   16.50   13.60
  -4  -6 -12   35.90   14.90
  -4  -6 -12    2.80   12.80
  -4  -6 -12   -2.90   16.60
   4   6  12   -5.30   12.70
   4   6  12   15.50   14.20
   4   6  12    1.10   13.50
   4   6  12   21.50   13.70
  -5  -6 -12   15.00   13.80
  -5  -6 -12   14.50   15.00
  -5  -6 -12   10.30   11.50
  -5  -6 -12   19.20   13.80
  -5  -6 -12   24.40   12.80
   5   6  12   14.80   13.10
   5   6  12   21.20   12.00
   5   6  12   35.80   13.00
  -6  -6 -12  113.39   14.50
  -6  -6 -12   95.59   14.70
  -6  -6 -12  115.59   15.20
  -6  -6 -12   93.09   18.00
   6   6  12  100.59   14.50
   6   6  12  103.99   14.50
  -7  -6 -12  324.27   23.70
  -7  -6 -12  303.57   22.00
  -7  -6 -12  329.07   30.00
  -7  -6 -12  286.77   22.10
  -7  -6 -12  306.17   23.00
   7   6  12  305.47   22.50
   7   6  12  370.96   22.90
  -4  -7 -12  208.38   20.40
  -4  -7 -12  223.08   19.20
  -4  -7 -12  191.98   19.80
  -4  -7 -12  192.38   33.30
  -4  -7 -12  177.98   22.40
   4   7  12  214.48   19.70
   4   7  12  248.18   21.30
   4   7  12  240.08   20.00
   4   7  12  203.78   19.60
  -5  -7 -12  830.02   35.90
  -5  -7 -12  720.23   32.20
  -5  -7 -12  726.33   37.40
  -5  -7 -12  785.92   32.60
  -5  -7 -12  716.53   32.90
   5   7  12  813.02   33.90
   5   7  12  813.82   34.20
   5   7  12  809.12   32.70
   5   7  12  830.72   34.00
  -2   2 -13  125.39   18.30
   2  -2  13  159.98   16.20
   2  -2  13  193.08   26.00
   2  -2  13  163.48   16.10
  -1   1 -13  123.89   16.00
  -1   1 -13  106.39   18.10
  -1   1 -13   79.49   17.30
  -1   1 -13  105.89   15.30
   1  -1  13  125.59   19.70
   1  -1  13  100.79   15.80
   1  -1  13  119.49   18.40
   1  -1  13   93.69   22.70
   1  -1  13  105.09   15.50
  -2   1 -13   53.39   13.00
  -2   1 -13   66.69   16.30
  -2   1 -13   72.49   14.80
  -2   1 -13   79.59   15.80
   2  -1  13   87.59   15.70
   2  -1  13   72.99   14.20
   2  -1  13   94.39   17.70
   2  -1  13   90.09   23.20
   2  -1  13   82.39   13.90
  -3   1 -13  799.82   30.40
  -3   1 -13  740.93   32.50
  -3   1 -13  705.83   29.60
  -3   1 -13  819.82   32.80
  -3   1 -13  778.82   38.10
   3  -1  13  819.12   35.10
   3  -1  13  789.42   32.30
   3  -1  13  753.92   29.50
   3  -1  13  805.32   30.60
   3  -1  13  796.52   44.00
  -4   1 -13   53.49   16.80
  -4   1 -13   74.69   14.50
  -4   1 -13   69.29   16.00
  -4   1 -13   69.79   12.60
  -4   1 -13   55.79   12.80
   4  -1  13   81.29   13.30
   4  -1  13   60.69   15.20
   4  -1  13   62.79   12.70
   4  -1  13   74.59   24.00
   4  -1  13   84.79   15.90
   0   0 -13    9.90   14.10
   0   0 -13   21.60   16.80
   0   0 -13    3.50   14.20
   0   0 -13    8.20   15.70
   0   0  13   -1.20   13.30
   0   0  13    4.40   17.40
   0   0  13   -3.10   13.90
   0   0  13   13.70   16.00
  -1   0 -13  204.48   19.70
  -1   0 -13  191.58   17.90
  -1   0 -13  172.48   17.60
  -1   0 -13  191.58   19.00
   1   0  13  222.18   24.80
   1   0  13  197.58   17.50
   1   0  13  197.18   19.00
   1   0  13  194.28   20.80
   1   0  13  187.28   18.80
  -2   0 -13   14.20   14.30
  -2   0 -13    4.40   12.70
  -2   0 -13    7.70   14.10
  -2   0 -13   22.60   10.90
   2   0  13   20.80   12.10
   2   0  13    5.60   19.80
   2   0  13  -10.10   11.10
   2   0  13   11.80   15.40
   2   0  13   10.30   14.40
  -3   0 -13   35.40   13.90
  -3   0 -13   43.50   12.70
  -3   0 -13   32.40   14.40
  -3   0 -13   37.80   16.50
   3   0  13   35.80   11.70
   3   0  13   30.40   12.10
   3   0  13   69.39   21.50
   3   0  13   48.00   14.00
   3   0  13   53.59   14.70
  -4   0 -13  -22.00   14.90
  -4   0 -13   -3.80   11.40
  -4   0 -13   26.10   11.60
  -4   0 -13   -2.70   12.60
  -4   0 -13    2.10   13.30
   4   0  13   -5.10   10.60
   4   0  13    5.90   13.70
   4   0  13   10.70   13.00
   4   0  13  -18.30    9.90
   4   0  13   -8.80   21.20
  -5   0 -13  189.88   15.50
  -5   0 -13  224.58   17.20
  -5   0 -13  167.08   16.10
  -5   0 -13  161.08   20.50
  -5   0 -13  209.88   19.70
   5   0  13  202.18   16.60
   5   0  13  195.98   16.50
   5   0  13  138.99   26.60
   5   0  13  175.78   14.50
   5   0  13  161.08   14.20
   0  -1 -13  716.23   33.10
   0  -1 -13  687.43   30.70
   0  -1 -13  549.25   36.30
   0  -1 -13  681.43   31.60
   0   1  13  613.64   33.30
   0   1  13  670.03   35.60
   0   1  13  677.03   34.10
   0   1  13  632.44   30.00
  -1  -1 -13  369.06   29.00
  -1  -1 -13  371.56   31.90
  -1  -1 -13  365.56   25.90
  -1  -1 -13  345.47   27.00
   1   1  13  408.46   29.40
   1   1  13  363.86   24.60
   1   1  13  420.16   28.60
   1   1  13  356.96   34.00
   1   1  13  358.26   26.60
  -2  -1 -13   66.19   14.40
  -2  -1 -13   55.19   15.00
  -2  -1 -13   43.00   14.80
  -2  -1 -13   67.89   13.10
   2   1  13   31.00   15.10
   2   1  13   45.60   13.50
   2   1  13   45.40   13.60
   2   1  13   90.99   20.80
   2   1  13   44.10   15.30
  -3  -1 -13   41.70   17.40
  -3  -1 -13   50.29   13.40
  -3  -1 -13   51.39   14.20
  -3  -1 -13   65.29   14.90
  -3  -1 -13   66.29   13.30
   3   1  13   59.89   15.20
   3   1  13   68.79   12.80
   3   1  13   89.19   21.70
   3   1  13   53.99   14.50
   3   1  13   48.20   12.80
  -4  -1 -13   21.10   13.10
  -4  -1 -13   30.50   12.10
  -4  -1 -13   14.80   11.70
  -4  -1 -13   -0.20   14.80
  -4  -1 -13   37.40   12.50
   4   1  13   17.20   12.90
   4   1  13   25.80   22.80
   4   1  13   18.30   11.30
   4   1  13   40.50   11.70
   4   1  13   47.00   20.90
  -5  -1 -13   13.70   12.50
  -5  -1 -13   22.00   15.30
  -5  -1 -13   13.80   12.40
  -5  -1 -13    0.30   11.00
  -5  -1 -13    8.80   11.60
   5   1  13    7.40   10.50
   5   1  13    3.40   13.00
   5   1  13    7.00   12.50
   5   1  13   26.50   10.80
   5   1  13  -12.30   20.60
  -1  -2 -13   17.90   13.70
  -1  -2 -13   25.00   16.00
  -1  -2 -13    9.00   15.70
  -1  -2 -13    0.20   14.20
   1   2  13    5.10   13.90
   1   2  13    7.40   13.40
   1   2  13   11.30   14.90
   1   2  13  -13.80   15.00
   1   2  13    9.70   19.30
  -2  -2 -13   19.90   14.30
  -2  -2 -13    8.90   12.80
  -2  -2 -13  -13.90   13.90
  -2  -2 -13    2.50   13.00
   2   2  13    4.20   12.50
   2   2  13   -1.60   14.60
   2   2  13   29.40   18.90
   2   2  13    9.40   12.50
  -3  -2 -13   10.30   13.30
  -3  -2 -13   -7.20   13.40
  -3  -2 -13   20.10   10.90
  -3  -2 -13   31.70   13.60
   3   2  13    3.10   14.00
   3   2  13   24.70   19.10
   3   2  13   18.40   14.40
   3   2  13   -0.10   11.30
   3   2  13   14.70   12.70
  -4  -2 -13  235.68   21.90
  -4  -2 -13  223.38   18.30
  -4  -2 -13  212.48   20.60
  -4  -2 -13  219.28   17.10
   4   2  13  228.68   20.10
   4   2  13  230.68   20.30
   4   2  13  310.37   22.40
   4   2  13  224.38   24.30
   4   2  13  250.27   24.00
  -5  -2 -13  415.56   31.20
  -5  -2 -13  407.76   23.70
  -5  -2 -13  424.66   24.30
  -5  -2 -13  430.06   23.90
  -5  -2 -13  419.66   23.30
   5   2  13  402.66   36.40
   5   2  13  417.46   23.00
   5   2  13  435.06   24.50
   5   2  13  443.16   24.60
   5   2  13  429.16   22.10
  -6  -2 -13   16.10   11.90
  -6  -2 -13   26.10   10.90
  -6  -2 -13   29.00   13.00
  -6  -2 -13   16.60   10.80
  -6  -2 -13   24.00   15.60
   6   2  13   -3.10   20.60
   6   2  13   19.30   12.80
   6   2  13   25.10   11.80
   6   2  13   33.20   10.40
   6   2  13   -8.40    9.70
  -1  -3 -13    5.80   16.80
  -1  -3 -13   15.40   16.00
  -1  -3 -13   42.20   15.80
  -1  -3 -13   15.80   15.00
   1   3  13   28.10   14.60
   1   3  13   -2.00   14.40
   1   3  13   30.40   17.10
   1   3  13  -12.70   15.70
  -2  -3 -13   55.29   14.50
  -2  -3 -13   49.10   15.80
  -2  -3 -13   63.09   16.50
  -2  -3 -13   30.10   15.50
   2   3  13   74.99   17.00
   2   3  13   38.40   14.70
   2   3  13   89.59   15.40
   2   3  13   64.99   16.80
  -3  -3 -13  130.09   16.60
  -3  -3 -13  108.19   15.10
  -3  -3 -13  116.29   16.90
  -3  -3 -13  116.99   16.30
   3   3  13  121.19   15.80
   3   3  13   85.79   15.00
   3   3  13  119.19   17.20
   3   3  13  143.89   17.50
  -4  -3 -13   24.10   13.90
  -4  -3 -13   15.30   12.50
  -4  -3 -13   27.20   14.40
  -4  -3 -13    5.40   15.10
   4   3  13   -6.70   11.40
   4   3  13   34.20   13.70
   4   3  13   30.30   14.40
   4   3  13   33.60   12.70
  -5  -3 -13  -14.60   12.10
  -5  -3 -13   -2.70   12.50
  -5  -3 -13    2.20   15.80
  -5  -3 -13   -0.80   11.70
  -5  -3 -13   15.20   11.60
   5   3  13    5.10   11.40
   5   3  13    9.80   20.00
   5   3  13   -3.40   11.00
   5   3  13    6.50   13.30
   5   3  13    7.00   12.80
  -6  -3 -13  146.89   15.50
  -6  -3 -13  162.08   15.40
  -6  -3 -13  155.18   15.10
  -6  -3 -13  182.28   15.40
  -6  -3 -13  141.79   20.50
   6   3  13  167.58   15.90
   6   3  13  163.28   15.20
   6   3  13  145.79   14.30
   6   3  13  154.18   14.50
   6   3  13  126.29   23.00
  -2  -4 -13  748.73   31.90
  -2  -4 -13  789.02   35.30
  -2  -4 -13  756.02   37.40
  -2  -4 -13  750.52   35.40
   2   4  13  730.13   33.50
   2   4  13  713.13   34.40
   2   4  13  800.62   37.00
   2   4  13  724.63   35.50
  -3  -4 -13   68.69   17.00
  -3  -4 -13   36.80   16.30
  -3  -4 -13   50.69   15.00
  -3  -4 -13   48.90   15.50
   3   4  13   62.29   14.20
   3   4  13   44.10   14.00
   3   4  13   71.59   17.70
  -4  -4 -13  393.66   32.80
  -4  -4 -13  355.76   26.40
  -4  -4 -13  321.97   27.00
  -4  -4 -13  289.07   22.60
  -4  -4 -13  367.46   26.20
   4   4  13  347.07   27.60
   4   4  13  327.97   23.80
   4   4  13  350.66   25.70
   4   4  13  336.67   24.40
  -5  -4 -13  258.97   23.50
  -5  -4 -13  212.78   18.00
  -5  -4 -13  154.68   20.70
  -5  -4 -13  195.28   17.70
   5   4  13  179.78   17.60
   5   4  13  223.28   21.40
   5   4  13  193.08   17.00
   5   4  13  198.28   18.70
  -6  -4 -13   12.60   14.10
  -6  -4 -13   18.40   16.50
  -6  -4 -13   27.60   13.20
   6   4  13   30.50   13.90
   6   4  13   33.30   12.50
   6   4  13   37.80   13.80
   6   4  13   40.00   12.30
  -4  -5 -13  174.38   17.40
  -4  -5 -13  165.58   18.80
  -4  -5 -13  173.98   19.30
  -4  -5 -13  131.49   17.80
  -4  -5 -13  143.79   21.20
   4   5  13  167.78   17.60
   4   5  13  196.08   20.00
   4   5  13  124.29   16.90
   4   5  13  153.88   19.60
  -5  -5 -13   35.50   15.20
   5   5  13   43.30   14.20
   5   5  13   48.10   13.70
   0   0   0    0.00    0.00



_computing_structure_solution     'SHELXT 2014/5 (Sheldrick, 2014)'
_computing_structure_solution     'SHELXT 2014/5 (Sheldrick, 2014)'
_computing_structure_solution     'SHELXT 2014/5 (Sheldrick, 2014)'
;
_shelx_hkl_checksum              16251
loop_
_space_group_symop_operation_xyz
'x, y, z'
'-x, -y, -z'
loop_
_atom_site_label
_atom_site_type_symbol
_atom_site_fract_x
_atom_site_fract_y
_atom_site_fract_z
_atom_site_U_iso_or_equiv
_atom_site_adp_type
_atom_site_occupancy
_atom_site_site_symmetry_order
_atom_site_calc_flag
_atom_site_refinement_flags_posn
_atom_site_refinement_flags_adp
_atom_site_refinement_flags_occupancy
_atom_site_disorder_assembly
_atom_site_disorder_group
Se1 Se 0.24062(4) 0.35412(6) 0.89794(4) 0.01375(10) Uani 0.727(4) 1 d . . P A 1
Se2 Se 0.29879(12) 0.56598(10) 0.74136(9) 0.01313(12) Uani 0.727(4) 1 d . . P A
1
Se1' Se 0.24062(4) 0.35412(6) 0.89794(4) 0.01375(10) Uani 0.148(3) 1 d . . P A
2
S1 S 0.3071(19) 0.5442(15) 0.7601(13) 0.0109(19) Uani 0.148(3) 1 d . U P A 2
Se2' Se 0.29879(12) 0.56598(10) 0.74136(9) 0.01313(12) Uani 0.125(3) 1 d . . P
A 3
S2 S 0.2532(7) 0.4001(8) 0.8642(7) 0.0080(11) Uani 0.125(3) 1 d . U P A 3
Cu1 Cu 0.45732(4) 0.15286(3) 0.60067(3) 0.01405(7) Uani 1 1 d . . . . .
Cl1 Cl 0.28737(7) -0.02388(6) 0.61378(5) 0.01274(10) Uani 1 1 d . . . . .
N1 N 0.5810(2) 0.1194(2) 0.76156(19) 0.0115(3) Uani 1 1 d . . . . .
C1 C 0.7542(3) 0.0096(3) 0.7547(2) 0.0135(4) Uani 1 1 d . . . . .
H1 H 0.822617 -0.047707 0.666386 0.016 Uiso 1 1 calc R U . . .
N2 N 0.3154(2) 0.3714(2) 0.51287(19) 0.0114(3) Uani 1 1 d . . . . .
C2 C 0.8367(3) -0.0235(3) 0.8711(3) 0.0165(4) Uani 1 1 d . . . . .
H2 H 0.957748 -0.103797 0.863007 0.020 Uiso 1 1 calc R U . . .
C3 C 0.7400(3) 0.0624(3) 0.9993(3) 0.0195(4) Uani 1 1 d . . . . .
H3 H 0.792851 0.040867 1.080803 0.023 Uiso 1 1 calc R U . . .
C4 C 0.5643(3) 0.1805(3) 1.0062(2) 0.0176(4) Uani 1 1 d . . . . .
H4 H 0.496365 0.243901 1.091458 0.021 Uiso 1 1 calc R U . . .
C5 C 0.4896(3) 0.2042(3) 0.8859(2) 0.0141(4) Uani 1 1 d . . . . .
C6 C 0.2572(3) 0.5250(3) 0.5625(2) 0.0117(4) Uani 1 1 d . . . . .
C7 C 0.1633(3) 0.6679(3) 0.4886(2) 0.0147(4) Uani 1 1 d . . . . .
H7 H 0.127160 0.775361 0.525780 0.018 Uiso 1 1 calc R U . . .
C10 C 0.2767(3) 0.3562(3) 0.3873(2) 0.0132(4) Uani 1 1 d . . . . .
H10 H 0.316442 0.247663 0.351193 0.016 Uiso 1 1 calc R U . . .
C9 C 0.1820(3) 0.4903(3) 0.3083(2) 0.0149(4) Uani 1 1 d . . . . .
H9 H 0.157023 0.473823 0.220631 0.018 Uiso 1 1 calc R U . . .
C8 C 0.1242(3) 0.6496(3) 0.3600(3) 0.0165(4) Uani 1 1 d . . . . .
H8 H 0.059068 0.744208 0.308149 0.020 Uiso 1 1 calc R U . . .
loop_
_atom_site_aniso_label
_atom_site_aniso_U_11
_atom_site_aniso_U_22
_atom_site_aniso_U_33
_atom_site_aniso_U_23
_atom_site_aniso_U_13
_atom_site_aniso_U_12
Se1 0.01189(13) 0.01476(18) 0.01252(16) -0.00197(13) -0.00164(10) -0.00298(10)
Se2 0.0162(2) 0.0116(2) 0.0129(2) -0.00146(18) -0.00379(17) -0.00599(17)
Se1' 0.01189(13) 0.01476(18) 0.01252(16) -0.00197(13) -0.00164(10) -0.00298(10)
S1 0.012(2) 0.011(2) 0.010(2) -0.0006(10) -0.0033(10) -0.0035(11)
Se2' 0.0162(2) 0.0116(2) 0.0129(2) -0.00146(18) -0.00379(17) -0.00599(17)
S2 0.0083(13) 0.0077(13) 0.0077(13) 0.0007(9) -0.0013(9) -0.0033(9)
Cu1 0.01673(13) 0.01224(12) 0.01438(13) 0.00049(9) -0.00790(10) -0.00395(10)
Cl1 0.0142(2) 0.0114(2) 0.0125(2) -0.00156(16) -0.00161(17) -0.00523(17)
N1 0.0114(8) 0.0120(8) 0.0118(8) 0.0003(6) -0.0037(6) -0.0048(6)
C1 0.0133(9) 0.0117(9) 0.0145(9) 0.0002(7) -0.0025(7) -0.0042(7)
N2 0.0109(8) 0.0108(8) 0.0123(8) 0.0000(6) -0.0026(6) -0.0040(6)
C2 0.0133(9) 0.0172(10) 0.0193(10) 0.0042(8) -0.0063(8) -0.0058(8)
C3 0.0219(11) 0.0277(12) 0.0146(10) 0.0043(9) -0.0083(9) -0.0139(9)
C4 0.0178(10) 0.0253(11) 0.0125(10) -0.0026(8) -0.0022(8) -0.0112(9)
C5 0.0134(9) 0.0143(9) 0.0146(9) -0.0015(7) -0.0026(8) -0.0053(7)
C6 0.0109(9) 0.0128(9) 0.0124(9) -0.0015(7) -0.0012(7) -0.0060(7)
C7 0.0127(9) 0.0101(9) 0.0190(10) -0.0008(7) -0.0011(8) -0.0033(7)
C10 0.0149(9) 0.0122(9) 0.0146(9) -0.0004(7) -0.0048(8) -0.0063(7)
C9 0.0133(9) 0.0169(10) 0.0156(10) 0.0022(8) -0.0049(8) -0.0066(8)
C8 0.0122(9) 0.0135(9) 0.0215(11) 0.0043(8) -0.0047(8) -0.0032(7)
loop_
_atom_type_symbol
_atom_type_description
_atom_type_scat_dispersion_real
_atom_type_scat_dispersion_imag
_atom_type_scat_source
C C 0.0015 0.0009 'International Tables Vol C Tables 4.2.6.8 and 6.1.1.4'
H H 0.0000 0.0000 'International Tables Vol C Tables 4.2.6.8 and 6.1.1.4'
N N 0.0030 0.0019 'International Tables Vol C Tables 4.2.6.8 and 6.1.1.4'
Cl Cl 0.0998 0.0984 'International Tables Vol C Tables 4.2.6.8 and 6.1.1.4'
Cu Cu 0.3240 0.8257 'International Tables Vol C Tables 4.2.6.8 and 6.1.1.4'
Se Se 0.2367 1.4831 'International Tables Vol C Tables 4.2.6.8 and 6.1.1.4'
S S 0.0826 0.0763 'International Tables Vol C Tables 4.2.6.8 and 6.1.1.4'
loop_
_geom_angle_atom_site_label_1
_geom_angle_atom_site_label_2
_geom_angle_atom_site_label_3
_geom_angle
_geom_angle_site_symmetry_3
C5 Se1 Se2 99.47(7) .
C6 Se2 Se1 102.99(7) .
C5 Se1' S1 96.8(4) .
C6 S1 Se1' 105.7(6) .
S2 Se2' C6 103.06(18) .
Se2' S2 C5 113.3(3) .
N1 Cu1 N2 127.42(7) .
N1 Cu1 Cl1 115.31(5) .
N2 Cu1 Cl1 105.44(5) .
N1 Cu1 Cl1 104.39(5) 2_656
N2 Cu1 Cl1 101.89(5) 2_656
Cl1 Cu1 Cl1 97.113(18) 2_656
Cu1 Cl1 Cu1 82.887(18) 2_656
C5 N1 C1 117.40(18) .
C5 N1 Cu1 119.94(14) .
C1 N1 Cu1 122.62(15) .
N1 C1 C2 122.9(2) .
N1 C1 H1 118.5 .
C2 C1 H1 118.5 .
C6 N2 C10 117.40(18) .
C6 N2 Cu1 128.69(15) .
C10 N2 Cu1 113.92(14) .
C3 C2 C1 119.1(2) .
C3 C2 H2 120.5 .
C1 C2 H2 120.5 .
C2 C3 C4 118.8(2) .
C2 C3 H3 120.6 .
C4 C3 H3 120.6 .
C3 C4 C5 118.7(2) .
C3 C4 H4 120.6 .
C5 C4 H4 120.6 .
N1 C5 C4 123.1(2) .
N1 C5 Se1' 117.29(16) .
C4 C5 Se1' 119.56(17) .
N1 C5 Se1 117.29(16) .
C4 C5 Se1 119.56(17) .
N1 C5 S2 112.7(2) .
C4 C5 S2 123.3(2) .
N2 C6 C7 123.02(19) .
N2 C6 Se2 122.14(16) .
C7 C6 Se2 114.84(15) .
N2 C6 Se2' 122.14(16) .
C7 C6 Se2' 114.84(15) .
N2 C6 S1 116.7(4) .
C7 C6 S1 120.3(4) .
C8 C7 C6 118.70(19) .
C8 C7 H7 120.6 .
C6 C7 H7 120.6 .
N2 C10 C9 123.5(2) .
N2 C10 H10 118.3 .
C9 C10 H10 118.3 .
C10 C9 C8 118.6(2) .
C10 C9 H9 120.7 .
C8 C9 H9 120.7 .
C7 C8 C9 118.7(2) .
C7 C8 H8 120.6 .
C9 C8 H8 120.6 .
loop_
_geom_bond_atom_site_label_1
_geom_bond_atom_site_label_2
_geom_bond_distance
_geom_bond_site_symmetry_2
Se1 C5 1.917(2) .
Se1 Se2 2.3134(10) .
Se2 C6 1.922(2) .
Se1' C5 1.917(2) .
Se1' S1 2.104(12) .
S1 C6 2.067(13) .
Se2' S2 1.812(8) .
Se2' C6 1.922(2) .
S2 C5 2.060(6) .
Cu1 N1 1.9823(18) .
Cu1 N2 2.0180(18) .
Cu1 Cl1 2.3839(6) .
Cu1 Cl1 2.4861(6) 2_656
N1 C5 1.348(3) .
N1 C1 1.350(3) .
C1 C2 1.390(3) .
C1 H1 0.9500 .
N2 C6 1.337(3) .
N2 C10 1.349(3) .
C2 C3 1.386(3) .
C2 H2 0.9500 .
C3 C4 1.390(3) .
C3 H3 0.9500 .
C4 C5 1.393(3) .
C4 H4 0.9500 .
C6 C7 1.400(3) .
C7 C8 1.387(3) .
C7 H7 0.9500 .
C10 C9 1.384(3) .
C10 H10 0.9500 .
C9 C8 1.390(3) .
C9 H9 0.9500 .
C8 H8 0.9500 .
loop_
_geom_torsion_atom_site_label_1
_geom_torsion_atom_site_label_2
_geom_torsion_atom_site_label_3
_geom_torsion_atom_site_label_4
_geom_torsion
C6 Se2' S2 C5 100.0(2)
C5 N1 C1 C2 2.7(3)
Cu1 N1 C1 C2 -175.13(16)
N1 C1 C2 C3 -1.6(3)
C1 C2 C3 C4 -0.9(3)
C2 C3 C4 C5 2.1(3)
C1 N1 C5 C4 -1.4(3)
Cu1 N1 C5 C4 176.53(17)
C1 N1 C5 Se1' -177.82(15)
Cu1 N1 C5 Se1' 0.1(2)
C1 N1 C5 Se1 -177.82(15)
Cu1 N1 C5 Se1 0.1(2)
C1 N1 C5 S2 167.7(3)
Cu1 N1 C5 S2 -14.4(3)
C3 C4 C5 N1 -1.0(3)
C3 C4 C5 Se1' 175.35(17)
C3 C4 C5 Se1 175.35(17)
C3 C4 C5 S2 -169.0(3)
C10 N2 C6 C7 -1.6(3)
Cu1 N2 C6 C7 178.31(15)
C10 N2 C6 Se2 179.04(15)
Cu1 N2 C6 Se2 -1.1(3)
C10 N2 C6 Se2' 179.04(15)
Cu1 N2 C6 Se2' -1.1(3)
C10 N2 C6 S1 177.1(5)
Cu1 N2 C6 S1 -3.0(5)
N2 C6 C7 C8 1.8(3)
Se2 C6 C7 C8 -178.74(16)
Se2' C6 C7 C8 -178.74(16)
S1 C6 C7 C8 -176.8(5)
C6 N2 C10 C9 0.5(3)
Cu1 N2 C10 C9 -179.43(17)
N2 C10 C9 C8 0.4(3)
C6 C7 C8 C9 -0.9(3)
C10 C9 C8 C7 -0.1(3)
