#------------------------------------------------------------------------------
#$Date: 2019-11-17 13:28:21 +0200 (Sun, 17 Nov 2019) $
#$Revision: 230162 $
#$URL: file:///home/coder/svn-repositories/cod/cif/7/05/78/7057878.cif $
#------------------------------------------------------------------------------
#
# This file is available in the Crystallography Open Database (COD),
# http://www.crystallography.net/
#
# All data on this site have been placed in the public domain by the
# contributors.
#
data_7057878
loop_
_publ_author_name
'Zhang, Honghui'
'Liu, Rongfang'
'Liu, Jialin'
'Fan, Binbin'
'Li, Ruifeng'
'Qiao, Yan'
'Zhou, Rong'
_publ_section_title
;
 Chemoselective phosphine-catalyzed cyanoacylation of \a-dicarbonyl
 compounds: a general method for the synthesis of cyanohydrin esters with
 one quaternary stereocenter
;
_journal_issue                   24
_journal_name_full               'New Journal of Chemistry'
_journal_page_first              19720
_journal_paper_doi               10.1039/C8NJ04867C
_journal_volume                  42
_journal_year                    2018
_chemical_formula_moiety         'C17 H11 Cl N2 O3'
_chemical_formula_sum            'C17 H11 Cl N2 O3'
_chemical_formula_weight         326.73
_space_group_crystal_system      triclinic
_space_group_IT_number           2
_space_group_name_Hall           '-P 1'
_space_group_name_H-M_alt        'P -1'
_symmetry_space_group_name_Hall  '-P 1'
_symmetry_space_group_name_H-M   'P -1'
_atom_sites_solution_hydrogens   geom
_atom_sites_solution_primary     direct
_audit_creation_date             2018-05-09
_audit_creation_method
;
Olex2 1.2
(compiled 2018.04.26 svn.r3504 for OlexSys, GUI svn.r5492)
;
_audit_update_record
;
2018-07-25 deposited with the CCDC.
2018-11-01 downloaded from the CCDC.
;
_cell_angle_alpha                99.73(3)
_cell_angle_beta                 96.54(3)
_cell_angle_gamma                97.78(3)
_cell_formula_units_Z            2
_cell_length_a                   8.0653(16)
_cell_length_b                   8.4613(17)
_cell_length_c                   12.124(2)
_cell_measurement_reflns_used    2398
_cell_measurement_temperature    113
_cell_measurement_theta_max      28.0470
_cell_measurement_theta_min      2.4733
_cell_volume                     800.0(3)
_computing_molecular_graphics    'Olex2 (Dolomanov et al., 2009)'
_computing_publication_material  'Olex2 (Dolomanov et al., 2009)'
_computing_structure_refinement  'ShelXL (Sheldrick, 2015)'
_computing_structure_solution    'ShelXS (Sheldrick, 2008)'
_diffrn_ambient_temperature      113
_diffrn_measured_fraction_theta_full 0.997
_diffrn_measured_fraction_theta_max 0.993
_diffrn_measurement_device_type  'Rigaku Saturn 70'
_diffrn_measurement_method       '\w scans'
_diffrn_radiation_monochromator  confocal
_diffrn_radiation_type           MoK\a
_diffrn_radiation_wavelength     0.71073
_diffrn_reflns_av_R_equivalents  0.0356
_diffrn_reflns_av_unetI/netI     0.0471
_diffrn_reflns_Laue_measured_fraction_full 0.997
_diffrn_reflns_Laue_measured_fraction_max 0.993
_diffrn_reflns_limit_h_max       10
_diffrn_reflns_limit_h_min       -10
_diffrn_reflns_limit_k_max       11
_diffrn_reflns_limit_k_min       -10
_diffrn_reflns_limit_l_max       15
_diffrn_reflns_limit_l_min       -15
_diffrn_reflns_number            9464
_diffrn_reflns_point_group_measured_fraction_full 0.997
_diffrn_reflns_point_group_measured_fraction_max 0.993
_diffrn_reflns_theta_full        25.242
_diffrn_reflns_theta_max         27.845
_diffrn_reflns_theta_min         2.473
_diffrn_standards_decay_%        0
_diffrn_standards_interval_count 0
_diffrn_standards_interval_time  0
_diffrn_standards_number         0
_exptl_absorpt_coefficient_mu    0.254
_exptl_absorpt_correction_T_max  1.0000
_exptl_absorpt_correction_T_min  0.8631
_exptl_absorpt_correction_type   multi-scan
_exptl_absorpt_process_details   CrystalClear
_exptl_crystal_colour            colourless
_exptl_crystal_density_diffrn    1.356
_exptl_crystal_description       prism
_exptl_crystal_F_000             336
_exptl_crystal_size_max          0.26
_exptl_crystal_size_mid          0.22
_exptl_crystal_size_min          0.2
_refine_diff_density_max         0.242
_refine_diff_density_min         -0.287
_refine_diff_density_rms         0.046
_refine_ls_extinction_coef       0.079(9)
_refine_ls_extinction_expression Fc^*^=kFc[1+0.001xFc^2^\l^3^/sin(2\q)]^-1/4^
_refine_ls_extinction_method     'SHELXL-2017/1 (Sheldrick 2017)'
_refine_ls_goodness_of_fit_ref   1.031
_refine_ls_hydrogen_treatment    constr
_refine_ls_matrix_type           full
_refine_ls_number_parameters     210
_refine_ls_number_reflns         3763
_refine_ls_number_restraints     0
_refine_ls_restrained_S_all      1.031
_refine_ls_R_factor_all          0.0576
_refine_ls_R_factor_gt           0.0398
_refine_ls_shift/su_max          0.005
_refine_ls_shift/su_mean         0.001
_refine_ls_structure_factor_coef Fsqd
_refine_ls_weighting_details
'w=1/[\s^2^(Fo^2^)+(0.0635P)^2^] where P=(Fo^2^+2Fc^2^)/3'
_refine_ls_weighting_scheme      calc
_refine_ls_wR_factor_gt          0.1048
_refine_ls_wR_factor_ref         0.1140
_reflns_Friedel_coverage         0.000
_reflns_number_gt                2581
_reflns_number_total             3763
_reflns_threshold_expression     'I > 2\s(I)'
_cod_data_source_file            c8nj04867c2.cif
_cod_data_source_block           shelxl
_cod_depositor_comments          'Adding full bibliography for 7057878.cif.'
_cod_database_code               7057878
_shelx_shelxl_version_number     2017/1
_shelx_space_group_comment
;
The symmetry employed for this shelxl refinement is uniquely defined
by the following loop, which should always be used as a source of
symmetry information in preference to the above space-group names.
They are only intended as comments.
;
_shelx_estimated_absorpt_t_max   0.951
_shelx_estimated_absorpt_t_min   0.937
_olex2_refinement_description
;
1. Fixed Uiso
 At 1.2 times of:
  All C(H) groups
 At 1.5 times of:
  All C(H,H,H) groups
2.a Aromatic/amide H refined with riding coordinates:
 C5(H5), C6(H6), C8(H8), C13(H13), C14(H14), C15(H15), C16(H16), C17(H17)
2.b Idealised Me refined as rotating group:
 C9(H9A,H9B,H9C)
;
_shelx_res_file
;
TITL shelxl in P-1
    shelxl.res
    created by SHELXL-2017/1 at 10:47:15 on 09-May-2018
CELL 0.71073 8.0653 8.4613 12.1239 99.729 96.539 97.784
ZERR 2 0.0016 0.0017 0.0024 0.03 0.03 0.03
LATT 1
SFAC C H Cl N O
UNIT 34 22 2 4 6

L.S. 4
PLAN  20
SIZE 0.26 0.22 0.2
TEMP -160.15
BOND $h
conf
htab
fmap 2
acta
REM <olex2.extras>
REM <HklSrc "%.\\shelxl.hkl">
REM </olex2.extras>

WGHT    0.063500
EXTI    0.078757
FVAR       1.45399
CL1   3    0.156844    0.879391   -0.033605    11.00000    0.02639    0.05943 =
         0.09061    0.04227    0.00283    0.01034
O1    5    0.973672    0.625665    0.145873    11.00000    0.03374    0.04698 =
         0.03266    0.00499   -0.00173    0.01708
O2    5    0.788507    0.723465    0.341450    11.00000    0.04106    0.02872 =
         0.02159    0.00427    0.00032   -0.00065
O3    5    0.631206    0.498067    0.233851    11.00000    0.04811    0.03372 =
         0.02527    0.00466   -0.00723   -0.00210
N1    4    0.735056    0.686430    0.046896    11.00000    0.02589    0.02829 =
         0.02155    0.00235    0.00058    0.00678
N2    4    1.015043    1.059810    0.301099    11.00000    0.05254    0.04196 =
         0.04748   -0.00193    0.00576   -0.00873
C1    1    0.787595    0.796109    0.242136    11.00000    0.03115    0.02642 =
         0.02337    0.00419    0.00194    0.00190
C2    1    0.848190    0.688049    0.139797    11.00000    0.02888    0.02801 =
         0.02484    0.00464    0.00204    0.00475
C3    1    0.598480    0.764417    0.075032    11.00000    0.02476    0.02103 =
         0.02859    0.00702    0.00525    0.00207
C4    1    0.621181    0.830328    0.190241    11.00000    0.02989    0.02405 =
         0.02909    0.00713    0.00744    0.00422
C5    1    0.502577    0.914514    0.236171    11.00000    0.04360    0.02974 =
         0.04035    0.00894    0.01759    0.00724
AFIX  43
H5    2    0.519069    0.961480    0.314294    11.00000   -1.20000
AFIX   0
C6    1    0.358485    0.929583    0.166361    11.00000    0.03743    0.03428 =
         0.06287    0.02016    0.02426    0.01579
AFIX  43
H6    2    0.275081    0.986497    0.196536    11.00000   -1.20000
AFIX   0
C7    1    0.337509    0.861082    0.052655    11.00000    0.02477    0.03033 =
         0.05523    0.02225    0.00734    0.00435
C8    1    0.456201    0.777343    0.003347    11.00000    0.02558    0.02825 =
         0.03614    0.01304    0.00249    0.00175
AFIX  43
H8    2    0.440423    0.731712   -0.074989    11.00000   -1.20000
AFIX   0
C9    1    0.750971    0.606348   -0.067062    11.00000    0.03354    0.03532 =
         0.02191    0.00042    0.00239    0.00651
AFIX 137
H9A   2    0.852079    0.553831   -0.064751    11.00000   -1.50000
H9B   2    0.760662    0.687082   -0.116145    11.00000   -1.50000
H9C   2    0.650852    0.524383   -0.096774    11.00000   -1.50000
AFIX   0
C10   1    0.915462    0.945409    0.277845    11.00000    0.03951    0.03283 =
         0.02590    0.00147    0.00602    0.00310
C11   1    0.705625    0.567505    0.324962    11.00000    0.03349    0.02786 =
         0.02699    0.00287    0.00093    0.00282
C12   1    0.721590    0.498845    0.429718    11.00000    0.03490    0.03366 =
         0.02616    0.00721   -0.00056    0.00281
C13   1    0.814305    0.585831    0.530196    11.00000    0.04326    0.03720 =
         0.02686    0.00440    0.00098    0.00052
AFIX  43
H13   2    0.866980    0.694462    0.534106    11.00000   -1.20000
AFIX   0
C14   1    0.830200    0.514148    0.625189    11.00000    0.04566    0.05239 =
         0.02643    0.00871   -0.00142    0.00101
AFIX  43
H14   2    0.894148    0.573850    0.693781    11.00000   -1.20000
AFIX   0
C15   1    0.753772    0.357337    0.620195    11.00000    0.06650    0.06160 =
         0.03454    0.02369   -0.00480   -0.00210
AFIX  43
H15   2    0.766038    0.307849    0.684772    11.00000   -1.20000
AFIX   0
C16   1    0.658620    0.271794    0.520280    11.00000    0.12607    0.04981 =
         0.05026    0.02579   -0.02318   -0.03283
AFIX  43
H16   2    0.603723    0.164126    0.517115    11.00000   -1.20000
AFIX   0
C17   1    0.642767    0.341870    0.424853    11.00000    0.09123    0.04384 =
         0.03501    0.01257   -0.01900   -0.02039
AFIX  43
H17   2    0.578037    0.282199    0.356522    11.00000   -1.20000
AFIX   0
HKLF 4




REM  shelxl in P-1
REM R1 =  0.0398 for    2581 Fo > 4sig(Fo)  and  0.0576 for all    3763 data
REM    210 parameters refined using      0 restraints

END

WGHT      0.0629      0.0000

REM Instructions for potential hydrogen bonds
EQIV $1 x-1, y, z
HTAB C6 N2_$1
EQIV $2 -x+1, -y+1, -z
HTAB C8 O3_$2
EQIV $3 -x+2, -y+1, -z
HTAB C9 O1_$3
HTAB C9 O3_$2

REM Highest difference peak  0.242,  deepest hole -0.287,  1-sigma level  0.046
Q1    1   0.7461  0.6532  0.0074  11.00000  0.05    0.24
Q2    1   0.7034  0.8110  0.2207  11.00000  0.05    0.23
Q3    1   0.7018  0.5343  0.3872  11.00000  0.05    0.22
Q4    1   0.3902  0.8722  0.1859  11.00000  0.05    0.20
Q5    1   0.6468  0.2541  0.3252  11.00000  0.05    0.19
Q6    1   0.5894  0.3276  0.4031  11.00000  0.05    0.19
Q7    1   0.6171  0.2634  0.5204  11.00000  0.05    0.19
Q8    1   0.6959  0.2837  0.3790  11.00000  0.05    0.19
Q9    1   0.3735  0.7981  0.0406  11.00000  0.05    0.18
Q10   1   0.3674  0.9115  0.1099  11.00000  0.05    0.18
Q11   1   0.5001  0.3208  0.3651  11.00000  0.05    0.18
Q12   1   0.7251  0.3145  0.3969  11.00000  0.05    0.17
Q13   1   0.7455  0.5348  0.4698  11.00000  0.05    0.17
Q14   1   0.6710  0.4506  0.4327  11.00000  0.05    0.17
Q15   1   0.7323  0.2175  0.4991  11.00000  0.05    0.17
Q16   1   0.8131  0.7230  0.1806  11.00000  0.05    0.17
Q17   1   0.6925  0.3451  0.5812  11.00000  0.05    0.16
Q18   1   0.3418  0.8594  0.1077  11.00000  0.05    0.16
Q19   1   0.1474  0.9549 -0.1296  11.00000  0.05    0.16
Q20   1   0.8219  0.8290  0.2537  11.00000  0.05    0.15
;
_shelx_res_checksum              6929
_shelx_hkl_file
;
   0   0  -2  616.83   24.63
   0   0   2  592.16   14.74
   0   0  -2  609.83   14.77
   0   0   2  576.50   14.21
   0   0   2  591.76   13.89
   0   0  -2  579.59   13.70
   0   0   3 1778.62   26.88
   0   0  -3 1672.48   24.93
   0   0  -3 1744.69   25.16
   0   0   3 1811.00   26.02
   0   0   3 1689.34   23.26
   0   0  -3 1717.76   23.85
   0   0  -4  689.96   12.94
   0   0   4  704.93   12.87
   0   0   4  695.39   10.94
   0   0  -5   77.18    5.12
   0   0   5   82.68    4.08
   0   0  -6   44.43    4.17
   0   0  -6   45.34    3.68
   0   0   6   49.27    3.00
   0   0  -7   98.36   11.85
   0   0  -7  112.96    7.11
   0   0   7  111.36    3.73
   0   0  -8   49.20    8.43
   0   0  -8   43.97    6.59
   0   0   8   39.32    2.38
   0   0   8   48.48    5.91
   0   0  -9   47.95   23.12
   0   0  -9   45.47   17.49
   0   0   9   45.77    4.98
   0   0 -10  602.50   38.23
   0   0 -10  637.95   39.19
   0   0  10  641.16   27.16
   0   0 -11  247.55   19.48
   0   0 -11  188.51   13.35
   0   0 -12    5.50    5.69
   0   0 -12   -2.54    5.01
   0   0 -13   35.92   22.17
   0   0 -13   50.07    6.56
   0   0 -14   12.96   15.67
   0   0 -14   12.40    8.03
   0   0 -15    6.08    9.90
   0   0 -15    1.22    2.48
   0   1 -15    2.93    3.95
   0   1 -15    2.20    3.65
   0   1 -14   -0.55    6.66
   0   1 -14   -0.26    2.98
   0   1 -13   61.43   36.20
   0   1 -13   82.39    8.48
   0   1 -12   30.40   10.69
   0   1 -12   23.80   17.86
   0   1 -11  353.89   19.93
   0   1 -11  357.52   30.08
   0  -1  11  333.51   15.85
   0   1 -10  189.47   12.76
   0   1 -10  189.84   11.40
   0  -1  10  221.03    7.09
   0   1  -9  639.54   25.20
   0   1  -9  698.83   16.05
   0  -1   9  684.51   11.95
   0   1  -8    2.62    4.76
   0   1  -8    0.92    1.72
   0  -1   8    1.29    2.40
   0   1  -7   79.29    4.91
   0   1  -7   80.53    4.95
   0  -1   7   76.65    3.54
   0  -1   7   82.16    5.04
   0   1  -6   43.21    3.96
   0   1  -6   50.95    4.15
   0  -1   6   41.85    3.22
   0  -1   6   44.28    3.88
   0   1  -5  717.28   14.33
   0   1  -5  771.93   15.40
   0  -1   5  751.72   13.51
   0   1  -4 2786.57   40.11
   0   1  -4 2885.92   41.25
   0  -1   4 2887.37   40.55
   0   1  -3 1087.12   17.59
   0   1  -3 1131.37   18.44
   0  -1   3 1138.69   18.43
   0   1  -3 1109.74   17.89
   0  -1   3 1085.72   16.63
   0   1  -2 2494.69   33.73
   0   1  -2 2513.51   34.72
   0  -1   2 2477.31   34.03
   0  -1   2 2430.06   33.65
   0   1  -2 2451.05   33.98
   0  -1   1  251.99    6.58
   0   1  -1  239.50    6.26
   0   1  -1  268.82    7.63
   0  -1   1  253.00    7.68
   0  -1   0  791.47   10.98
   0   1   0  824.20   11.72
   0  -1   0  834.62   11.82
   0  -1   0  797.04   12.05
   0   1   0  798.40   12.40
   0  -1  -2    5.64    2.06
   0   1   2    6.96    3.25
   0  -1  -2    4.37    0.90
   0   1   2    7.32    0.98
   0   1   2    4.87    0.69
   0  -1  -2    5.01    0.59
   0  -1  -3  221.67    7.23
   0  -1  -3  229.95    6.72
   0   1   3  214.70    6.47
   0   1   3  204.02    5.70
   0  -1  -3  213.60    5.55
   0  -1  -4 2283.17   34.96
   0   1   4 2287.91   35.17
   0   1   4 2407.20   32.95
   0  -1  -4 2483.87   34.16
   0  -1  -5  727.68   19.90
   0  -1  -5  689.46   14.49
   0   1   5  676.62   12.32
   0  -1  -5  696.37   12.65
   0  -1  -6  434.77   17.31
   0  -1  -6  478.14   16.87
   0   1   6  420.70   13.42
   0  -1  -6  427.08   13.63
   0  -1  -7  206.79   11.07
   0  -1  -7  202.73    9.07
   0   1   7  218.23    7.76
   0  -1  -8  173.07   11.90
   0  -1  -8  168.32    9.67
   0   1   8  169.17    6.51
   0  -1  -9   10.91    5.69
   0  -1  -9   11.26    4.81
   0   1   9    8.27    0.87
   0  -1 -10  104.92   23.12
   0  -1 -10   91.12    7.99
   0  -1 -11    2.45    7.69
   0  -1 -11    4.43    4.24
   0  -1 -12   63.05   26.89
   0  -1 -12   73.22   10.77
   0  -1 -13   35.76   27.69
   0  -1 -13   35.03   19.83
   0  -1 -14   55.99    9.54
   0  -1 -14   37.29   24.62
   0  -1 -15    4.09   11.07
   0  -1 -15    3.63    4.06
   0   2 -15   99.29    9.76
   0   2 -15  101.43    9.31
   0   2 -14    1.46    4.61
   0   2 -14    7.31    8.54
   0   2 -13   15.97    5.21
   0   2 -13    8.64    7.59
   0   2 -12   92.21    8.29
   0   2 -12   90.01    7.74
   0  -2  12   82.07    5.88
   0   2 -11   73.84    9.54
   0   2 -11   84.74    7.68
   0  -2  11   75.56    8.21
   0   2 -10  547.65   34.75
   0   2 -10  526.32   25.67
   0  -2  10  472.79   27.50
   0   2  -9  455.54   14.22
   0   2  -9  397.61   13.70
   0  -2   9  400.38   19.00
   0   2  -8  466.46   21.17
   0   2  -8  497.67   21.48
   0  -2   8  502.72   20.73
   0   2  -7 1119.34   26.45
   0   2  -7 1199.43   31.01
   0  -2   7 1228.30   30.52
   0   2  -6  204.65   10.75
   0   2  -6  194.61   10.52
   0  -2   6  197.55   10.50
   0   2  -5 1031.01   20.30
   0   2  -5  994.57   21.09
   0   2  -5 1033.33   21.30
   0   2  -4 2650.15   38.18
   0   2  -4 2514.78   35.95
   0   2  -4 2617.61   39.21
   0   2  -4 2457.66   39.29
   0   2  -3  474.70   12.12
   0   2  -3  500.77   12.90
   0   2  -3  500.28   14.90
   0  -2   3  489.15   12.95
   0   2  -3  531.58   14.87
   0  -2   3  459.95   13.03
   0  -2   2 3569.41   48.91
   0   2  -2 3545.01   49.23
   0   2  -2 3466.88   50.70
   0  -2   2 3373.33   47.93
   0   2  -1 1758.60   25.38
   0  -2   1 1690.84   24.18
   0  -2   1 1689.33   25.33
   0   2  -1 1617.73   24.65
   0  -2   0   24.94    1.41
   0  -2   0   25.95    1.36
   0   2   0   27.48    1.75
   0  -2   0   27.10    3.69
   0   2   0   26.06    2.76
   0  -2   0   26.25    2.20
   0   2   1  974.25   14.87
   0  -2  -1  939.68   14.37
   0   2   1  993.06   16.14
   0  -2  -1 1017.62   16.34
   0  -2  -2 2090.10   31.02
   0  -2  -2 2070.84   29.47
   0  -2  -2 2115.25   30.23
   0  -2  -2 2041.82   29.73
   0  -2  -3  571.59   15.37
   0  -2  -3  520.81   13.73
   0   2   3  600.33   15.14
   0  -2  -3  558.62   14.04
   0  -2  -4  685.31   19.41
   0   2   4  663.31   13.99
   0   2   4  656.62   13.79
   0  -2  -4  690.80   13.66
   0  -2  -5 1228.71   27.04
   0  -2  -5 1160.72   23.26
   0   2   5 1231.13   21.92
   0  -2  -5 1321.31   22.98
   0  -2  -6  372.69   18.48
   0  -2  -6  371.88   15.13
   0   2   6  359.33   12.26
   0  -2  -6  350.55   11.94
   0  -2  -7    5.73    6.31
   0  -2  -7    9.55    5.42
   0   2   7   12.65    4.12
   0  -2  -7    9.00    1.57
   0  -2  -8  379.08   17.95
   0  -2  -8  387.97   10.89
   0   2   8  367.23    4.92
   0  -2  -9  201.53   11.55
   0  -2  -9  242.03   21.32
   0  -2 -10   83.67    8.23
   0  -2 -10   86.56    6.58
   0  -2 -11   27.04   17.80
   0  -2 -11   26.26   14.92
   0  -2 -12    4.77    4.92
   0  -2 -12    0.31    4.88
   0  -2 -13   39.17   28.46
   0  -2 -13   49.64    5.49
   0  -2 -14    8.67    6.64
   0  -2 -14    3.86    3.53
   0   3 -15  137.98   11.17
   0   3 -15  143.01   14.34
   0   3 -14    0.92    4.70
   0   3 -14    2.01    4.40
   0   3 -13    1.86    3.19
   0   3 -13    4.54    4.50
   0   3 -12   25.28    7.39
   0   3 -12   16.42   11.29
   0  -3  12   25.13   14.04
   0   3 -11    3.89    6.11
   0   3 -11    4.80    5.63
   0  -3  11    3.39    2.63
   0   3 -10   11.27    6.95
   0   3 -10    5.69    7.11
   0  -3  10   13.29    4.31
   0   3  -9   13.23    7.84
   0   3  -9   14.82    5.79
   0  -3   9   13.11    6.99
   0   3  -8  131.42    7.64
   0   3  -8  111.83    7.57
   0  -3   8  134.14    8.95
   0   3  -7 1912.68   41.68
   0   3  -7 2055.47   48.97
   0  -3   7 1844.21   41.87
   0   3  -6  960.47   22.83
   0   3  -6  859.86   29.54
   0   3  -6  983.51   22.00
   0   3  -5   17.84    1.89
   0   3  -5   19.36    2.03
   0   3  -5   19.33    4.49
   0   3  -5   20.87   12.04
   0   3  -4   79.97    4.02
   0   3  -4   96.35    4.71
   0   3  -4   77.93    5.25
   0   3  -4   82.31   10.35
   0   3  -3  734.61   10.78
   0   3  -3  766.02   11.01
   0   3  -3  778.94   17.42
   0   3  -3  757.53   16.56
   0   3  -2  104.86    5.00
   0   3  -2   93.12    4.92
   0  -3   1  310.49    7.75
   0  -3   1  315.05    7.68
   0   3  -1  320.28    9.43
   0  -3   1  336.01    9.56
   0   3  -1  320.90   11.06
   0  -3   0   88.33    3.54
   0  -3   0   86.59    4.38
   0   3   0   88.50    3.78
   0  -3   0   93.21    3.78
   0   3   0   82.32    5.01
   0  -3  -1  523.17   14.41
   0  -3  -1  532.91   15.54
   0   3   1  561.96   14.57
   0  -3  -1  529.89   14.05
   0   3   1  544.75   16.46
   0  -3  -2   16.59    7.09
   0   3   2   15.25    1.70
   0  -3  -2   15.78    1.72
   0   3   2   16.99    6.26
   0  -3  -2   14.71    1.87
   0  -3  -3 1705.30   38.33
   0  -3  -3 1592.95   30.77
   0  -3  -3 1678.55   32.49
   0   3   3 1581.14   31.84
   0  -3  -3 1603.22   29.51
   0  -3  -4 4005.91   71.85
   0  -3  -4 3875.27   73.53
   0   3   4 3974.52   67.81
   0  -3  -4 4158.55   72.47
   0  -3  -5 2669.89   66.09
   0   3   5 2749.98   51.29
   0  -3  -5 2801.17   51.57
   0  -3  -6   32.90   18.71
   0  -3  -6   26.66    2.89
   0   3   6   20.83    2.10
   0  -3  -6   24.70    2.54
   0  -3  -7    1.04    3.06
   0  -3  -7    8.75    6.27
   0   3   7    2.02    2.61
   0  -3  -7    1.58    1.02
   0  -3  -8   52.34   24.82
   0  -3  -8   55.65    9.43
   0   3   8   45.69    2.12
   0  -3  -9  179.19   12.45
   0  -3  -9  176.93   10.69
   0  -3 -10    2.37    5.05
   0  -3 -10   -1.88    3.60
   0  -3 -11   10.25    9.13
   0  -3 -11   13.79    7.75
   0  -3 -12   -3.08    6.29
   0  -3 -12    1.06    3.04
   0  -3 -13    2.42    4.11
   0  -3 -14   43.71   28.30
   0   4 -15   17.11   11.57
   0   4 -15   22.10   20.39
   0   4 -14   96.77   12.63
   0   4 -14  110.04   25.98
   0   4 -13   97.71    8.35
   0   4 -13   96.96    9.77
   0  -4  13   97.09    8.70
   0   4 -12  351.65   15.23
   0   4 -12  363.32   24.46
   0  -4  12  371.44   17.38
   0   4 -11  128.02    8.31
   0   4 -11  124.28   13.61
   0  -4  11  111.63    8.96
   0   4 -10  348.42   12.60
   0   4 -10  337.29   13.65
   0  -4  10  370.14   16.51
   0   4  -9    2.25    1.87
   0   4  -9   -1.96    5.35
   0  -4   9    4.27    5.16
   0   4  -8   69.34    6.18
   0   4  -8   79.93    6.73
   0  -4   8   72.05    7.43
   0   4  -7  165.24    9.29
   0   4  -7  148.25    7.12
   0   4  -6   53.38    3.40
   0   4  -6   51.33    3.34
   0   4  -6   55.26    5.24
   0   4  -6   62.33   15.52
   0   4  -5   35.52    1.73
   0   4  -5   37.63    3.85
   0   4  -5   34.99    4.41
   0   4  -4    4.57    0.66
   0   4  -4    4.42    2.30
   0   4  -4    4.05    3.16
   0   4  -3  163.11    8.80
   0   4  -3  153.85    9.08
   0   4  -2 1481.39   28.18
   0   4  -2 1488.69   30.13
   0  -4   1 2514.21   41.75
   0  -4   1 2555.51   42.14
   0   4  -1 2672.22   47.23
   0   4  -1 2410.16   49.08
   0  -4   0   73.27    4.29
   0  -4   0   76.11    4.90
   0   4   0   79.00    4.84
   0   4   0   79.59    5.83
   0  -4  -1  713.94   15.86
   0  -4  -1  762.19   17.85
   0   4   1  704.94   15.85
   0  -4  -1  713.80   15.14
   0   4   1  756.76   18.74
   0  -4  -2  208.57    9.22
   0   4   2  217.97    8.57
   0  -4  -2  214.38    8.42
   0   4   2  213.59   13.80
   0  -4  -3  306.54   12.61
   0  -4  -3  291.60   10.85
   0  -4  -3  295.91   11.52
   0   4   3  297.85   12.75
   0  -4  -4   19.23    8.43
   0  -4  -4   17.08    7.77
   0   4   4   16.99    3.50
   0  -4  -5   21.62    7.98
   0  -4  -5   15.39    6.90
   0   4   5   19.32    9.07
   0  -4  -6   32.38   15.23
   0  -4  -6   27.14    3.09
   0   4   6   25.68    8.31
   0  -4  -7   41.74    5.47
   0  -4  -7   46.76    4.24
   0   4   7   45.96    5.21
   0  -4  -8   98.31   10.30
   0  -4  -8  105.10    6.38
   0  -4  -9  900.12   25.55
   0  -4  -9  862.36   42.70
   0  -4 -10   23.08   12.01
   0  -4 -10   17.83   16.25
   0  -4 -11    6.11    7.01
   0  -4 -12   10.14   10.15
   0  -4 -13   23.96   14.77
   0   5 -15   14.95   12.78
   0   5 -14    9.79   12.32
   0   5 -13    0.50    3.25
   0   5 -13    4.05    7.82
   0  -5  13    3.38    2.40
   0   5 -12    2.88    4.26
   0   5 -12    2.68    4.88
   0  -5  12   -0.90    4.77
   0   5 -11  520.58   16.83
   0   5 -11  590.01   24.71
   0  -5  11  523.53   26.61
   0   5 -10   37.54    9.78
   0   5 -10   33.55   17.72
   0  -5  10   44.48    8.19
   0   5  -9    1.69    1.74
   0   5  -9   -0.35    5.14
   0  -5   9    1.79    4.40
   0   5  -8    0.90    2.09
   0   5  -8    0.72    3.44
   0  -5   8    0.95    3.31
   0   5  -7   69.26    5.63
   0   5  -7   60.14    4.49
   0   5  -7   80.79    7.94
   0   5  -7   80.85   11.96
   0   5  -6    2.35    1.56
   0   5  -6    1.21    2.43
   0   5  -6    0.11    4.18
   0   5  -6    5.06    2.22
   0   5  -5  742.05   31.68
   0   5  -5  761.52   31.30
   0   5  -4  371.11   15.89
   0   5  -4  358.28   18.90
   0   5  -3  323.86   13.52
   0   5  -3  309.93   15.41
   0   5  -2    1.30    3.64
   0   5  -2    1.63    4.25
   0  -5   1   53.18    2.72
   0  -5   1   51.99    2.19
   0   5  -1   63.05    5.13
   0   5  -1   50.07    5.31
   0  -5   0 1233.64   24.04
   0  -5   0 1280.63   27.10
   0   5   0 1296.45   30.11
   0   5   0 1241.39   27.98
   0  -5  -1   20.95    2.83
   0   5   1   18.50    5.21
   0   5   1   15.85    8.64
   0  -5  -2  110.55    5.91
   0   5   2  106.28    4.96
   0   5   2  104.72    9.06
   0  -5  -3  144.22    7.42
   0  -5  -3  146.39    8.44
   0   5   3  134.53    8.60
   0  -5  -4   64.13    5.74
   0   5   4   78.09    6.93
   0  -5  -5    0.55    4.07
   0  -5  -5    2.51    3.62
   0   5   5    1.14    1.94
   0  -5  -6    7.54   10.75
   0  -5  -6    6.96    4.04
   0   5   6   10.26    6.04
   0  -5  -7    5.65    8.82
   0  -5  -7    2.61    2.68
   0   5   7    1.83    2.35
   0  -5  -8   54.49    8.24
   0  -5  -8   51.81    5.17
   0  -5  -9   16.39    9.90
   0  -5 -10   75.11   10.28
   0  -5 -11   -1.51    6.11
   0  -5 -12   63.42   10.77
   0   6 -14   92.91   10.67
   0  -6  14   92.49    9.41
   0   6 -13  101.24   11.47
   0  -6  13  100.78   13.16
   0   6 -12  261.26   25.15
   0  -6  12  228.61   21.84
   0   6 -11  185.15   16.35
   0  -6  11  178.07   14.89
   0   6 -10    9.20    6.98
   0  -6  10    7.49    3.57
   0   6  -9  205.41   19.66
   0  -6   9  182.37   16.68
   0   6  -8  290.22   13.06
   0   6  -7   73.79    7.71
   0   6  -7   76.02    7.47
   0   6  -6  917.65   28.36
   0   6  -6  926.02   27.76
   0   6  -5  197.41   10.86
   0   6  -5  210.75   15.08
   0   6  -4   20.55   11.40
   0   6  -4   20.03    9.67
   0   6  -3  100.80    7.50
   0   6  -3  112.73    9.00
   0   6  -2  217.68   10.71
   0   6  -2  206.82   12.64
   0  -6   1   67.40    3.43
   0  -6   1   68.42    3.52
   0   6  -1   78.48    6.42
   0   6  -1   74.02    8.62
   0  -6   0   10.51    1.53
   0  -6   0   14.95    1.70
   0   6   0    9.32    5.05
   0   6   0   11.97    6.68
   0  -6  -1   40.11    3.16
   0   6   1    7.18    7.85
   0   6   1    9.61    6.11
   0  -6  -2   78.01    6.02
   0   6   2   82.78    6.20
   0   6   2   89.36    8.02
   0  -6  -3  187.47   12.12
   0  -6  -3  171.93   10.96
   0   6   3  154.45   13.24
   0  -6  -4  222.56   13.56
   0  -6  -4  214.38    9.85
   0   6   4  208.36   12.07
   0  -6  -5  630.00   27.84
   0  -6  -5  573.47   23.10
   0   6   5  530.53   30.74
   0  -6  -6   40.32    6.06
   0  -6  -6   48.16    5.00
   0   6   6   39.70    5.61
   0  -6  -7   52.62    6.38
   0  -6  -8   84.68   10.81
   0  -6  -9   22.35   13.08
   0  -6 -10   17.70   13.20
   0  -6 -11    3.11    3.71
   0   7 -13  146.89   12.25
   0  -7  13  112.35   24.14
   0   7 -12  144.09   15.03
   0  -7  12  128.84   15.30
   0   7 -11  189.36   16.93
   0  -7  11  178.06   18.53
   0   7 -10   74.66   35.11
   0  -7  10   83.41   13.20
   0   7  -9  118.65    9.46
   0  -7   9  116.19   11.50
   0   7  -8  799.85   24.80
   0   7  -7  870.90   36.96
   0   7  -7  919.72   47.43
   0   7  -6   54.72   24.88
   0   7  -6   66.08   31.68
   0   7  -5  741.10   23.97
   0   7  -5  760.84   26.89
   0   7  -4   91.07    6.78
   0   7  -4   87.62    8.24
   0   7  -3   32.55   14.53
   0   7  -3   32.64   17.20
   0   7  -2   54.85    5.23
   0   7  -2   52.74    8.14
   0  -7   1    3.24    2.40
   0   7  -1    1.42    1.97
   0   7  -1    1.62    1.85
   0  -7   0  110.18    4.70
   0   7   0  108.16    5.90
   0   7   0  116.93   10.92
   0  -7  -1   24.28    3.12
   0   7   1   29.09    3.39
   0   7   1   34.58   15.90
   0  -7  -2  711.19   17.63
   0   7   2  768.20   14.87
   0   7   2  710.45   20.66
   0  -7  -3   58.58    5.64
   0  -7  -3   55.68    4.24
   0   7   3   63.04    6.82
   0  -7  -4    1.78    2.54
   0  -7  -4    0.92    1.84
   0   7   4    2.13    2.90
   0  -7  -5    2.21    2.47
   0   7   5    2.37    4.35
   0  -7  -6  363.85   28.49
   0   7   6  383.79   22.93
   0  -7  -7    8.88    4.85
   0  -7  -8    9.94   10.62
   0  -7  -9   11.17    7.53
   0  -7 -10    7.46   11.01
   0   8 -12  116.43   12.40
   0  -8  12   99.15   11.63
   0   8 -11   18.58   13.04
   0  -8  11    7.97    8.65
   0   8 -10   97.27   10.63
   0  -8  10  100.07   14.14
   0   8  -9    1.78    3.71
   0  -8   9    0.44    6.92
   0   8  -8    2.56    3.85
   0   8  -7  335.56   15.56
   0   8  -7  346.14   19.01
   0   8  -6   53.84   28.77
   0   8  -6   64.83   16.82
   0   8  -5  235.84   11.83
   0   8  -5  258.45   15.97
   0   8  -4   -0.22    6.19
   0   8  -4    3.43    5.61
   0   8  -3   24.91   13.03
   0   8  -3   16.20   12.18
   0   8  -2  754.42   46.33
   0   8  -2  781.42   41.48
   0   8  -1   38.76    4.77
   0   8  -1   39.23   20.30
   0   8   0   15.34    8.85
   0   8   0   18.84    8.53
   0   8   1   54.63    5.00
   0   8   1   60.36   29.51
   0  -8  -2   56.40    5.74
   0   8   2   59.16    5.92
   0   8   2   70.93   10.08
   0  -8  -3   13.85    7.49
   0   8   3   19.04   11.46
   0  -8  -4    3.31    4.77
   0   8   4    0.75    4.84
   0  -8  -5    2.24    2.63
   0   8   5    1.09    1.71
   0  -8  -6   17.76   14.41
   0  -8  -7    3.10    4.07
   0  -8  -8    9.30    6.24
   0   9 -11   46.63   30.49
   0  -9  11   39.04   33.05
   0   9 -10  136.50   11.94
   0  -9  10  132.23   30.39
   0   9  -9   59.17    8.17
   0  -9   9   47.23   30.36
   0   9  -8   74.20    9.13
   0  -9   8   66.30   10.80
   0   9  -7   16.27   12.90
   0   9  -7   16.52    9.67
   0   9  -6   12.08   12.57
   0   9  -6   25.35   13.32
   0   9  -5   46.42   23.76
   0   9  -5   65.34   16.86
   0   9  -4   17.51   12.96
   0   9  -4   16.18   12.97
   0   9  -3   29.11   17.36
   0   9  -3   28.98   19.16
   0   9  -2  319.30   23.16
   0   9  -2  311.93   26.68
   0   9  -1  313.20   20.34
   0   9  -1  312.17   27.20
   0   9   0   23.28   16.39
   0   9   0   29.83   25.04
   0   9   1   10.56    8.49
   0   9   2   99.54   11.21
   0   9   3  116.81   13.68
   0   9   4    9.39   10.37
   0  10  -9  178.51   19.49
   0 -10   9  164.81   23.11
   0  10  -8   76.73    9.89
   0 -10   8   41.48   28.18
   0  10  -7   22.41   14.75
   0  10  -6    6.53    6.14
   0  10  -6   -3.55    7.19
   0  10  -5   16.59   18.54
   0  10  -5   18.63   13.08
   0  10  -4    3.42    5.60
   0  10  -4   11.88   12.29
   0  10  -3   10.11   10.61
   0  10  -3   18.02    8.68
   0  10  -2    5.32    6.73
   0  10  -2   -1.53    5.62
   0  10  -1   25.42   20.44
   0  10   0   13.48    7.28
   0  10   1    4.66    5.45
   0  10   2    0.21    4.21
   0  10   3   -0.19    5.36
  -1  11  -1    6.60    7.51
  -1  11  -2    3.86    5.31
  -1  11  -3   -1.27    6.73
  -1  11  -4    4.18    4.70
  -1  10   4   22.52   19.15
  -1  10   3   67.69    9.46
  -1  10   2    3.70    6.37
  -1  10   1    1.77    2.76
  -1  10   0    4.66    4.90
  -1  10  -1    0.59    4.92
  -1  10  -2   50.92   22.11
  -1  10  -3    9.42    4.46
  -1  10  -3    3.41    7.78
  -1  10  -4    1.46    2.44
  -1  10  -4    6.40    6.64
  -1  10  -5    3.82    4.93
  -1  10  -5    4.01    4.55
  -1  10  -6   62.50    7.73
  -1  10  -6   62.63   33.41
  -1  10  -7    5.21    7.53
  -1  10  -7    2.62    5.69
  -1  10  -8   19.60   16.73
  -1  10  -8   19.81   14.97
  -1  10  -9   35.01   27.82
  -1  10  -9   46.25   34.72
  -1   9   5    1.52    2.79
  -1   9   4  177.10   12.55
  -1   9   3  385.65   28.55
  -1   9   2  142.85   16.66
  -1   9   1    5.77    7.35
  -1   9   0  287.54   22.22
  -1   9  -1   21.44   13.04
  -1   9  -1   26.20   17.51
  -1   9  -2    6.04    5.23
  -1   9  -2    4.49    3.52
  -1   9  -3   20.29   16.12
  -1   9  -3   15.99   12.16
  -1   9  -4  150.10   12.98
  -1   9  -4  159.68   39.47
  -1   9  -5  261.36   12.05
  -1   9  -5  242.60   14.36
  -1   9  -6  114.09   12.26
  -1   9  -6  133.47   11.36
  -1   9  -7   26.87   21.08
  -1   9  -7   38.02   18.49
  -1   9  -8   71.72    8.77
  -1   9  -8   69.81   42.26
  -1   9  -9   46.28   32.08
  -1   9  -9   43.83   22.91
  -1   9 -10    3.69    6.26
  -1   9 -11   65.13   29.34
   1  -9  11   37.57   38.89
   1  -8  -8    3.49    6.01
   1  -8  -7    4.25    7.13
   1  -8  -6  195.34   13.90
  -1   8   6  216.60   15.81
   1  -8  -5   18.78   16.18
  -1   8   5   20.00   11.61
   1  -8  -4    6.03    4.60
  -1   8   4    6.57    6.83
   1  -8  -3    0.76    3.48
  -1   8   3    4.49    9.22
   1  -8  -2   26.04    4.55
  -1   8   2   15.78    8.82
  -1   8   1   39.23   11.34
  -1   8   1   46.90   23.58
  -1   8   0   71.00    5.94
  -1   8   0   78.71   10.80
  -1   8  -1   12.78    7.50
  -1   8  -1   14.25    6.94
  -1   8  -2   19.81   10.15
  -1   8  -2   19.34    9.54
  -1   8  -3   31.62    4.36
  -1   8  -3   25.63   17.87
  -1   8  -4  305.10   24.01
  -1   8  -4  310.87   21.44
  -1   8  -5  376.18   16.12
  -1   8  -5  383.49   18.85
  -1   8  -6  211.29   17.88
  -1   8  -6  238.09   14.55
  -1   8  -7  123.74    9.01
  -1   8  -7  143.07   21.11
  -1   8  -8    3.65    4.12
  -1   8  -8    3.63    3.66
  -1   8  -9    2.71    6.92
  -1   8  -9   -1.44    3.34
  -1   8 -10   14.39    9.62
  -1   8 -11    8.15    7.21
   1  -8  11    5.55    6.95
  -1   8 -12   30.41   17.89
   1  -8  12   22.81   20.34
   1  -7 -10    4.50    8.48
   1  -7  -9   25.11   27.73
   1  -7  -8   15.50   13.17
   1  -7  -7  114.47   11.97
  -1   7   7   92.59    8.01
   1  -7  -6   24.28   10.97
  -1   7   6   20.20   12.11
   1  -7  -5 1716.12   59.88
  -1   7   5 1920.37   28.81
   1  -7  -4   13.16    6.31
  -1   7   4   18.70    9.92
   1  -7  -3    0.37    3.77
   1  -7  -3    1.32    2.18
  -1   7   3    1.92    3.54
   1  -7  -2  110.43   12.51
  -1   7   2  137.82   10.20
  -1   7   2  130.83    8.58
   1  -7  -1  219.28    7.38
  -1   7   1  215.53    8.75
  -1   7   1  221.94   13.10
   1  -7   0  404.06   18.34
  -1   7   0  405.02   18.79
  -1   7   0  387.40   23.12
   1  -7   1  440.27   18.83
  -1   7  -1  472.89   21.76
  -1   7  -1  423.15   25.47
  -1   7  -2   28.04    9.84
  -1   7  -2   26.28   14.46
  -1   7  -3   43.18    5.09
  -1   7  -3   45.45    6.26
  -1   7  -4  551.13   25.77
  -1   7  -4  599.93   29.67
  -1   7  -5  354.42   13.01
  -1   7  -5  363.47   16.48
  -1   7  -6  152.34    9.02
  -1   7  -6  172.31   18.14
  -1   7  -7  167.75   10.09
  -1   7  -7  164.41   11.66
  -1   7  -8  123.98   10.10
  -1   7  -8  114.75    9.50
  -1   7  -9    2.49    4.75
  -1   7  -9    2.54    4.52
  -1   7 -10   50.98   27.80
  -1   7 -11    2.52    8.59
   1  -7  11    1.55    4.48
  -1   7 -12    7.50    4.28
   1  -7  12   10.38    5.11
  -1   7 -13   13.76    8.39
   1  -7  13    7.72    8.54
   1  -6 -11    3.26    6.93
   1  -6 -10   11.52    8.76
   1  -6  -9    2.32    3.72
   1  -6  -8   29.86   21.39
   1  -6  -7   35.03   22.87
  -1   6   7   29.59    4.06
   1  -6  -6   43.66    6.67
  -1   6   6   30.27   19.24
   1  -6  -5  118.61    7.87
   1  -6  -5  118.76    6.53
  -1   6   5  136.59    8.85
   1  -6  -4  892.05   40.97
   1  -6  -4  806.44   36.04
  -1   6   4 1004.94   45.06
   1  -6  -3   15.86    5.34
   1  -6  -3    4.77    2.60
  -1   6   3    5.41    4.33
   1  -6  -2   25.58   11.44
  -1   6   2   27.68    2.32
   1  -6  -2   32.19    2.46
  -1   6   2   33.04   17.82
   1  -6  -1  427.12   10.26
  -1   6   1  399.05   10.44
  -1   6   1  447.00   13.76
   1  -6   0   22.81    2.28
   1  -6   0   23.69    5.52
  -1   6   0   23.23    2.72
  -1   6   0   16.50   13.08
   1  -6   1  785.83    9.23
   1  -6   1  813.58   12.99
  -1   6  -1  782.57   21.33
  -1   6  -1  866.82   20.14
   1  -6   2  544.32    4.08
   1  -6   2  542.39    4.13
  -1   6  -2  580.70   11.33
  -1   6  -2  577.94   29.10
  -1   6  -3   22.86   13.24
  -1   6  -3   26.37   11.77
  -1   6  -4   36.83    4.40
  -1   6  -4   38.03   25.46
  -1   6  -5   21.08   16.03
  -1   6  -5   24.39   10.13
  -1   6  -6  506.26   15.61
  -1   6  -6  484.54   17.94
  -1   6  -7   25.40    2.78
  -1   6  -7   26.18   17.94
  -1   6  -7   33.30   15.67
  -1   6  -8   18.44    2.31
  -1   6  -8   20.55    9.62
  -1   6  -8   19.81   10.87
  -1   6  -9  329.27   23.31
  -1   6  -9  409.85   23.41
  -1   6  -9  387.84   23.89
  -1   6 -10   35.16   18.34
  -1   6 -11   77.44   10.06
   1  -6  11   59.09    7.68
  -1   6 -12    3.67    4.92
   1  -6  12    2.64    5.65
  -1   6 -13   35.68   23.99
   1  -6  13   34.40   25.17
  -1   6 -14    7.71    8.46
   1  -5 -12   38.33   29.80
   1  -5 -11   43.23   13.83
   1  -5 -10   31.18    7.74
   1  -5  -9   61.25   11.86
   1  -5  -8   20.31    8.31
  -1   5   8   14.69   11.56
   1  -5  -7    5.23    7.96
   1  -5  -7    2.35    2.07
  -1   5   7    4.82    4.44
   1  -5  -6   -2.16    6.22
   1  -5  -6    0.78    1.28
  -1   5   6    2.31    3.20
   1  -5  -5  278.06   13.71
   1  -5  -5  267.01   10.14
  -1   5   5  265.33   10.87
   1  -5  -4  189.70   10.39
   1  -5  -4  181.35    7.37
   1  -5  -4  164.63    9.90
  -1   5   4  198.94   11.16
   1  -5  -3  514.08   20.64
   1  -5  -3  479.10   17.48
   1  -5  -3  443.76   16.29
  -1   5   3  431.42   21.16
   1  -5  -2   50.60    7.00
  -1   5   2   35.74    2.55
   1  -5  -2   39.27    2.16
  -1   5   2   31.37    4.57
   1  -5  -1  356.27   16.79
  -1   5   1  355.54   14.76
   1  -5  -1  401.41   13.57
  -1   5   1  363.05   18.51
   1  -5   0  791.62   17.45
   1  -5   0  707.34   18.37
  -1   5   0  763.38   16.29
  -1   5   0  738.16   20.38
   1  -5   1  295.47   10.44
   1  -5   1  269.63   10.36
  -1   5  -1  257.42   10.20
  -1   5  -1  247.41   14.11
   1  -5   2  172.29    6.08
  -1   5  -2  182.12   10.46
  -1   5  -2  165.77   11.50
  -1   5  -3   89.79    8.92
  -1   5  -3   85.53    6.83
  -1   5  -4  454.92   15.36
  -1   5  -4  461.26   18.59
  -1   5  -4  479.53   22.96
  -1   5  -5 1291.87   43.93
  -1   5  -6 1905.79   19.88
  -1   5  -6 2072.21   26.80
  -1   5  -6 2073.86   45.55
  -1   5  -7  842.37   17.09
  -1   5  -7  890.33   22.38
  -1   5  -7  882.31   27.91
  -1   5  -8   93.73    5.55
  -1   5  -8  110.01    7.80
  -1   5  -8  107.82    8.44
  -1   5  -9   93.31    6.20
  -1   5  -9   88.55    7.73
  -1   5  -9  117.61   14.47
  -1   5 -10  709.51   35.48
  -1   5 -10  742.97   46.37
   1  -5  10  635.97   39.24
  -1   5 -11  128.41   12.42
  -1   5 -11  125.39   10.21
   1  -5  11  118.29   10.85
  -1   5 -12   62.11    8.61
  -1   5 -12   69.77   10.31
   1  -5  12   64.82    7.74
  -1   5 -13   77.72   11.61
  -1   5 -13   55.48   32.53
   1  -5  13   73.79    9.48
  -1   5 -14   17.45   17.08
  -1   5 -15   18.72   13.27
   1  -4 -13  176.00   16.41
   1  -4 -12    1.57    7.38
   1  -4 -11   99.18   19.49
   1  -4 -10   20.85   12.03
   1  -4  -9    8.01    5.93
   1  -4  -9    2.02    4.30
  -1   4   9    1.52    2.21
   1  -4  -8  126.42   12.57
   1  -4  -8  127.94    7.76
  -1   4   8  120.92    6.84
   1  -4  -7   61.85    6.36
   1  -4  -7   66.04    4.22
  -1   4   7   63.79    4.70
   1  -4  -6   10.54    4.80
   1  -4  -6   11.89    6.12
  -1   4   6   12.21    7.29
   1  -4  -5  228.01   12.76
   1  -4  -5  177.34    7.59
   1  -4  -5  215.38    8.82
  -1   4   5  194.96   10.29
   1  -4  -4  205.73   10.02
   1  -4  -4  197.17    7.23
   1  -4  -4  201.08    7.41
  -1   4   4  199.31    9.21
   1  -4  -3  808.82   18.95
   1  -4  -3  728.70   14.93
   1  -4  -3  739.53   15.82
  -1   4   3  783.24   18.44
   1  -4  -2   12.65    6.55
  -1   4   2   10.57    1.20
   1  -4  -2   10.30    2.87
  -1   4   2    8.11    4.00
   1  -4  -1  736.59   15.01
  -1   4   1  752.57   14.89
   1  -4  -1  700.44   13.02
  -1   4   1  759.75   19.75
   1  -4   0 2182.26   39.08
  -1   4   0 2148.22   37.19
   1  -4   0 2318.86   40.13
  -1   4   0 2385.42   43.98
   1  -4   1   84.10    4.30
  -1   4  -1   77.20    3.86
  -1   4  -1   86.91    4.93
   1  -4   1   76.77    5.63
  -1   4  -1   82.91    6.13
   1  -4   2  601.09   11.58
  -1   4  -2  677.76   14.79
  -1   4  -2  622.29   16.39
   1  -4   3    0.93    1.59
  -1   4  -3    1.39    1.37
  -1   4  -3    1.51    2.00
  -1   4  -3    0.00    2.76
   1  -4   4  186.08    6.99
  -1   4  -4  189.32    8.97
  -1   4  -4  179.92    9.74
   1  -4   5    5.50    2.75
  -1   4  -5    3.14    1.50
  -1   4  -5    1.04    2.86
  -1   4  -5    4.02    2.57
   1  -4   6   85.39    5.01
  -1   4  -6   78.89    5.42
  -1   4  -6   83.51    7.22
  -1   4  -7  299.87   20.21
  -1   4  -7  267.30   13.61
  -1   4  -8  591.29   12.48
  -1   4  -8  608.87   23.77
  -1   4  -8  595.42   15.28
  -1   4  -9   62.53    5.35
  -1   4  -9   69.43    7.25
  -1   4 -10   19.69   19.23
  -1   4 -10   29.45    9.72
   1  -4  10   17.69    6.42
  -1   4 -11  261.00   17.66
  -1   4 -11  280.97   19.55
   1  -4  11  294.03   19.93
  -1   4 -12  443.62   26.62
  -1   4 -12  399.70   26.31
   1  -4  12  375.58   26.14
  -1   4 -13  206.97   19.20
  -1   4 -13  198.50   16.63
  -1   4 -14   84.88   11.39
  -1   4 -14   89.71   11.17
  -1   4 -15    3.80    7.26
  -1   4 -15    4.61    4.88
   1  -3 -14   25.07   24.39
   1  -3 -13  103.94   11.50
   1  -3 -12    0.84    2.92
   1  -3 -11    0.59    3.83
   1  -3 -11    0.92    1.91
   1  -3 -10    7.10    5.86
   1  -3 -10    7.14    3.87
   1  -3  -9   34.21   14.91
   1  -3  -9   19.14   10.03
  -1   3   9   17.92    7.93
   1  -3  -8   22.59   10.18
   1  -3  -8   14.77    4.11
  -1   3   8   18.79    8.88
   1  -3  -7   12.63    6.16
   1  -3  -7    9.85    5.67
  -1   3   7   12.41    2.76
   1  -3  -6    4.30    4.52
   1  -3  -6    5.47    1.91
  -1   3   6    6.39    3.27
  -1   3   6    6.48    4.11
   1  -3  -5   88.06    6.34
   1  -3  -5   90.64    4.99
   1  -3  -5   89.40    3.56
  -1   3   5   90.31    5.42
   1  -3  -4  308.39   14.84
   1  -3  -4  279.31   12.61
   1  -3  -4  293.04   12.64
  -1   3   4  318.63   15.46
   1  -3  -3 1337.53   30.34
   1  -3  -3 1349.53   23.01
   1  -3  -3 1344.96   22.75
  -1   3   3 1443.25   28.54
   1  -3  -2  140.56   12.16
   1  -3  -2  127.13    5.71
   1  -3  -2  127.03    6.23
  -1   3   2  143.98    7.88
   1  -3  -1  556.98   14.60
  -1   3   1  499.11   15.79
  -1   3   1  506.91   12.49
   1  -3  -1  533.28   12.86
  -1   3   1  540.82   15.43
   1  -3   0  110.93    3.99
  -1   3   0  119.29    4.51
  -1   3   0  117.42    3.93
   1  -3   0  103.17    3.88
  -1   3   0  106.12    5.46
   1  -3   1  386.50   10.08
  -1   3  -1  406.92   10.14
  -1   3  -1  393.58   10.68
   1  -3   1  402.35   10.66
  -1   3  -1  391.25   12.31
   1  -3   2 1840.36   26.78
  -1   3  -2 1823.47   30.31
   1  -3   2 1833.02   27.13
  -1   3  -2 1854.74   30.45
   1  -3   3  707.99   11.92
  -1   3  -3  780.28   12.93
  -1   3  -3  741.20   14.31
  -1   3  -3  754.21   16.57
   1  -3   4 1499.44   27.40
  -1   3  -4 1466.53   28.66
  -1   3  -4 1551.54   29.23
   1  -3   5 2250.83   41.30
  -1   3  -5 2414.11   43.60
  -1   3  -5 2426.27   44.67
  -1   3  -5 2383.85   46.92
   1  -3   6   68.20    7.45
  -1   3  -6   73.42    5.24
  -1   3  -6   70.41    5.50
   1  -3   7  523.73   23.42
  -1   3  -7  512.60   20.89
  -1   3  -7  533.41   21.35
   1  -3   8   75.68   15.16
  -1   3  -8   65.27    6.72
  -1   3  -8   69.29    6.15
  -1   3  -9   78.47    6.82
  -1   3  -9   89.55    7.73
   1  -3   9   82.60    7.53
  -1   3 -10  314.81   13.42
  -1   3 -10  297.79   14.01
   1  -3  10  296.20   12.05
  -1   3 -11    8.29    8.20
  -1   3 -11    8.20    7.02
   1  -3  11    7.89    4.44
  -1   3 -12    3.81    3.69
  -1   3 -12   -1.88    5.99
   1  -3  12    3.63    3.41
  -1   3 -13   45.37    6.45
  -1   3 -13   42.69   24.65
  -1   3 -14    2.72    6.17
  -1   3 -14    1.22    4.64
  -1   3 -15   38.53   26.09
  -1   3 -15   63.13    8.04
   1  -2 -14    1.16    6.72
   1  -2 -13    1.48    4.82
   1  -2 -13   -1.04    3.38
   1  -2 -12    5.37    5.51
   1  -2 -12    2.22    2.54
   1  -2 -11  371.18   21.30
   1  -2 -11  365.00   13.45
   1  -2 -10   79.93    8.03
   1  -2 -10   77.72    5.29
  -1   2  10   82.85    4.11
   1  -2  -9   10.98    6.77
   1  -2  -9    8.67    4.01
  -1   2   9   12.78    4.06
   1  -2  -8   79.98    7.24
   1  -2  -8   91.35    6.12
  -1   2   8   92.88    5.60
   1  -2  -8   84.01    4.74
   1  -2  -7   82.02    7.55
   1  -2  -7   80.35    4.44
  -1   2   7   82.53    4.05
   1  -2  -7   76.60    4.04
   1  -2  -6    7.17   10.81
   1  -2  -6   11.38    6.75
  -1   2   6   12.96    7.00
   1  -2  -6    9.09    1.97
   1  -2  -5   47.62    5.21
   1  -2  -5   51.48    3.61
  -1   2   5   56.24    3.77
  -1   2   5   61.11    4.26
   1  -2  -5   53.10    3.86
   1  -2  -4  413.61   18.45
   1  -2  -4  358.49   15.36
  -1   2   4  337.94   14.78
  -1   2   4  418.41   18.48
   1  -2  -4  377.39   15.88
   1  -2  -3   60.27    3.79
   1  -2  -3   58.85    3.01
  -1   2   3   53.94    3.48
   1  -2  -3   61.48    3.00
   1  -2  -2 1687.64   27.43
  -1   2   2 1639.46   24.89
  -1   2   2 1613.60   25.13
   1  -2  -2 1564.44   23.42
   1  -2  -1 7305.03   98.01
   1  -2   0 1739.01   24.63
  -1   2   0 1722.14   24.37
  -1   2   0 1674.21   23.03
   1  -2   0 1763.71   24.36
  -1   2   0 1662.67   25.59
   1  -2   1 1622.55   23.21
  -1   2  -1 1640.20   23.37
  -1   2  -1 1549.49   22.94
   1  -2   1 1621.07   23.28
  -1   2  -1 1661.42   25.72
   1  -2   1 1685.70   25.47
   1  -2   2   11.53    1.45
  -1   2  -2    5.74    1.20
  -1   2  -2    6.25    4.96
   1  -2   2    7.18    4.40
  -1   2  -2    6.76    4.45
   1  -2   2    5.35    2.62
   1  -2   3   33.71    2.24
  -1   2  -3   30.36    2.15
  -1   2  -3   30.55    3.29
  -1   2  -3   31.07    2.99
   1  -2   3   38.81    2.78
   1  -2   4  658.90   12.79
  -1   2  -4  589.41   16.28
  -1   2  -4  646.57   12.95
  -1   2  -4  609.71   16.50
   1  -2   4  578.22   15.45
   1  -2   5  471.48    9.13
  -1   2  -5  504.83   12.65
  -1   2  -5  492.60   12.04
   1  -2   6  560.50   17.01
  -1   2  -6  557.08   11.14
  -1   2  -6  558.21    9.79
   1  -2   7  411.84   17.56
  -1   2  -7  406.61   16.51
  -1   2  -7  408.61   15.52
   1  -2   8  797.74   30.75
  -1   2  -8  741.93   30.07
   1  -2   8  718.46   26.87
  -1   2  -9   16.43    6.96
   1  -2   9   15.34    9.83
  -1   2 -10 2548.28   41.86
  -1   2 -10 2457.52   41.16
  -1   2 -11  671.76   32.76
  -1   2 -11  666.00   37.78
   1  -2  11  651.10   26.89
  -1   2 -12    2.44    3.50
  -1   2 -12   -0.78    4.97
  -1   2 -13    1.18    5.32
  -1   2 -13    5.13    8.09
  -1   2 -14  161.09   15.31
  -1   2 -14  138.79   32.56
  -1   2 -15    1.89    4.19
  -1   2 -15    4.58    2.89
   1  -1 -15   35.06   29.50
   1  -1 -15   56.98    6.41
   1  -1 -14    2.63    5.24
   1  -1 -14   -0.56    3.73
   1  -1 -13   30.01   15.36
   1  -1 -13   37.92    5.18
   1  -1 -12   -2.58    7.51
   1  -1 -12    2.07    3.62
   1  -1 -11  651.96   40.00
   1  -1 -11  696.25   40.00
   1  -1 -10  378.63   15.60
   1  -1 -10  348.91   10.48
  -1   1  10  366.18    7.27
   1  -1  -9   38.27   19.62
   1  -1  -9   34.09    3.90
  -1   1   9   29.27    2.50
   1  -1  -8   71.64    6.97
   1  -1  -8   70.35    5.59
  -1   1   8   82.56    4.20
   1  -1  -8   70.98    3.24
   1  -1  -7  552.40   13.87
   1  -1  -7  520.36   18.36
  -1   1   7  491.99   18.02
   1  -1  -7  446.12   17.12
   1  -1  -6 2219.02   42.20
   1  -1  -6 1991.38   38.16
  -1   1   6 2133.05   37.10
   1  -1  -6 2149.72   39.15
   1  -1  -5 5365.71   33.78
  -1   1   5 5230.85   86.02
  -1   1   5 5360.44   25.79
   1  -1  -5 5252.29   86.16
   1  -1  -4  634.15   26.97
   1  -1  -4  568.69   14.76
  -1   1   4  570.23   14.92
  -1   1   4  634.11   25.57
   1  -1  -4  560.82   14.46
   1  -1  -3  273.97    9.38
  -1   1   3  257.17    9.57
   1  -1  -3  250.15    6.83
  -1   1   3  260.26    7.61
   1  -1  -3  274.68    8.54
   1  -1  -2 3441.40   47.84
  -1   1   2 3387.50   46.83
  -1   1   2 3424.73   46.83
   1  -1  -2 3468.29   47.10
   1  -1  -1   67.77    2.82
  -1   1   1   64.81    2.56
   1  -1  -1   65.19    1.78
  -1   1   1   62.85    2.66
   1  -1  -1   64.72    2.72
   1  -1   0 1019.38   15.22
   1  -1   0 1030.66   14.45
   1  -1   1    9.91    3.98
  -1   1  -1    8.48    1.11
  -1   1  -1    7.30    1.26
   1  -1   1    8.75    0.96
  -1   1  -1    7.41    3.70
   1  -1   1    8.42    1.04
  -1   1  -2 1783.36   26.02
   1  -1   2 1819.13   26.70
  -1   1  -2 1823.35   26.53
   1  -1   2 1791.92   25.84
  -1   1  -2 1687.46   24.42
   1  -1   2 1716.50   24.42
   1  -1   3 3501.62   49.54
  -1   1  -3 3659.75   51.44
  -1   1  -3 3555.23   51.03
   1  -1   3 3409.97   48.22
  -1   1  -3 3540.10   48.69
   1  -1   3 3467.11   47.36
   1  -1   4 3262.07   48.54
  -1   1  -4 3383.04   48.46
  -1   1  -4 3437.47   47.78
   1  -1   4 3444.81   47.34
   1  -1   5   96.10    6.25
  -1   1  -5  101.08    6.21
  -1   1  -5  109.31    5.45
   1  -1   5  109.20    5.30
   1  -1   6  372.27   20.52
  -1   1  -6  366.94   16.58
   1  -1   6  371.04   15.78
   1  -1   7   58.16    6.94
  -1   1  -7   50.84    4.43
   1  -1   7   56.11    2.72
   1  -1   7   45.60    2.78
   1  -1   8  287.72   16.39
  -1   1  -8  288.47   14.62
   1  -1   8  280.93   10.84
   1  -1   8  302.58   12.58
  -1   1  -9  259.30   14.71
   1  -1   9  226.86    9.44
   1  -1   9  240.28   11.09
  -1   1 -10 1300.23   62.49
  -1   1 -10 1323.24   57.02
   1  -1  10 1196.43   51.66
  -1   1 -11  341.68   23.64
  -1   1 -11  368.38   23.08
  -1   1 -12   28.01   15.08
  -1   1 -12   20.50   16.63
  -1   1 -13    3.85    6.81
  -1   1 -13    2.91    5.37
  -1   1 -14    9.18   10.26
  -1   1 -14    3.73    5.16
  -1   1 -15    3.15    4.73
  -1   1 -15    2.77    5.67
   1   0 -15    1.71    4.58
   1   0 -15    1.24    3.15
   1   0 -14   49.23   10.60
   1   0 -14   43.65    7.39
   1   0 -13    9.82   10.97
   1   0 -13   14.54    9.67
   1   0 -12  453.05   20.13
   1   0 -12  475.86   24.34
   1   0 -11  279.78   17.39
   1   0 -11  257.11   14.07
  -1   0  11  277.59   12.08
   1   0 -10 2042.99   42.96
   1   0 -10 1985.78   40.28
  -1   0  10 1916.43   77.14
   1   0  -9  331.11   17.30
   1   0  -9  360.30   10.15
  -1   0   9  314.72    9.20
   1   0  -8    2.56    5.25
   1   0  -8    4.88    5.09
  -1   0   8    5.11    4.37
   1   0  -7  260.88   11.75
   1   0  -7  265.70   10.98
  -1   0   7  246.83   12.38
   1   0  -7  263.04   10.11
   1   0  -6   58.01    5.58
   1   0  -6   47.07    4.09
  -1   0   6   56.22    3.75
   1   0  -5 3038.86   52.94
   1   0  -5 2954.99   51.14
  -1   0   5 3187.25   53.75
   1   0  -5 2875.55   49.28
   1   0  -4 2290.82   35.36
   1   0  -4 2198.17   32.94
  -1   0   4 2254.22   33.27
  -1   0   4 2125.15   31.75
   1   0  -4 2200.78   32.43
   1   0  -3 1584.43   23.75
  -1   0   3 1606.43   23.94
  -1   0   3 1622.75   23.57
   1   0  -2  315.76    8.50
  -1   0   2  300.57    8.71
   1   0  -2  318.43    8.36
  -1   0   2  324.28    8.33
  -1   0   2  334.32    8.93
   1   0  -2  343.07    9.20
   1   0   0   83.11    2.99
  -1   0   0   75.74    2.85
  -1   0   0   80.68    2.72
   1   0   0   83.91    2.94
  -1   0   0   83.22    3.02
   1   0   0   79.07    2.73
   1   0   1 3058.68   42.41
  -1   0  -1 2933.82   40.52
   1   0   1 2943.34   40.15
  -1   0  -1 3189.69   43.54
   1   0   2    5.86    3.36
  -1   0  -2   10.36    5.78
   1   0   2    5.83    1.96
  -1   0  -2    4.05    2.50
  -1   0  -2    3.53    0.47
  -1   0  -3   24.89    2.34
   1   0   3   24.06    2.92
  -1   0  -3   20.19    2.25
   1   0   3   20.67    1.85
  -1   0  -3   25.99    1.16
   1   0   4   14.63    7.50
  -1   0  -4   16.09    7.08
   1   0   4   17.41    0.81
   1   0   5   23.64    3.07
  -1   0  -5   27.23    2.98
   1   0   5   24.51    1.32
   1   0   5   27.00    1.84
   1   0   6 1251.76   31.48
  -1   0  -6 1204.17   28.78
   1   0   6 1115.45   19.12
   1   0   6 1168.97   20.00
   1   0   7 1460.07   38.73
  -1   0  -7 1458.84   37.95
   1   0   7 1377.37   22.97
   1   0   7 1456.93   24.71
   1   0   8  280.58   14.85
  -1   0  -8  244.10   31.31
  -1   0  -9  106.41    7.74
  -1   0 -10  943.16   41.81
  -1   0 -10 1041.43   23.82
  -1   0 -11  443.57   27.69
  -1   0 -11  433.53   23.63
  -1   0 -12   36.30   17.63
  -1   0 -12   39.19   15.90
  -1   0 -13    3.63    5.57
  -1   0 -13    2.22    4.51
  -1   0 -14   12.41    8.35
  -1   0 -14   11.73    7.07
  -1   0 -15    5.09    5.44
  -1   0 -15    6.42    4.63
   1   1 -15  169.63   14.21
   1   1 -15  169.14   23.29
   1   1 -14    1.35    5.73
   1   1 -14    1.34    4.03
   1   1 -13    6.06    7.60
   1   1 -13    3.06    4.52
   1   1 -12   38.28   19.11
   1   1 -12   37.88   24.19
  -1  -1  12   57.27    6.40
   1   1 -11   62.05    8.07
   1   1 -11   59.91    7.43
  -1  -1  11   76.03   10.95
   1   1 -10 1299.13   55.75
   1   1 -10 1189.38   57.91
  -1  -1  10 1185.69   54.19
   1   1  -9  371.75   12.07
   1   1  -9  376.92   10.40
  -1  -1   9  385.83    9.57
   1   1  -8   53.41    4.96
   1   1  -8   62.84   38.10
  -1  -1   8   53.36   14.00
   1   1  -7 1988.32   42.97
   1   1  -7 1813.18   42.47
  -1  -1   7 1966.36   38.45
   1   1  -6   97.20    6.71
   1   1  -6   90.10    7.14
  -1  -1   6  105.41    7.06
   1   1  -5 1327.64   25.26
   1   1  -5 1252.11   25.42
  -1  -1   5 1228.02   24.81
   1   1  -4 1670.73   26.08
  -1  -1   4 1646.71   25.37
  -1  -1   4 1783.26   27.68
   1   1  -4 1603.37   25.26
   1   1  -3 1227.43   18.91
  -1  -1   3 1258.29   19.17
   1   1  -3 1228.37   19.61
  -1  -1   3 1238.51   19.10
  -1  -1   3 1264.25   20.54
   1   1  -3 1275.85   20.86
   1   1  -2 3137.53   42.72
  -1  -1   2 3127.87   43.18
  -1  -1   2 3209.92   44.73
   1   1  -2 3239.30   45.11
   1   1  -1   16.73    1.41
  -1  -1   1   16.65    1.18
   1   1  -1   16.52    1.63
  -1  -1   1   17.24    1.42
   1   1  -1   16.27    1.82
  -1  -1   1   14.95    4.44
  -1  -1   0  616.87   24.68
   1   1   0  614.08   24.67
  -1  -1   0  629.33   25.23
   1   1   0  601.06   15.09
  -1  -1   0  650.81   10.87
   1   1   0  600.33   14.85
  -1  -1  -1 1494.82   22.68
   1   1   1 1521.26   24.81
   1   1   1 1611.38   23.77
  -1  -1  -1 1544.30   22.86
  -1  -1  -1 1625.90   22.89
   1   1   1 1593.92   22.84
   1   1   2  720.21   14.35
  -1  -1  -2  757.33   14.14
  -1  -1  -2  773.36   13.48
  -1  -1  -2  719.31   10.75
  -1  -1  -2  744.70   11.78
   1   1   3 3005.29   44.53
  -1  -1  -3 2860.78   42.84
   1   1   3 2910.66   44.30
   1   1   4 1885.42   35.42
  -1  -1  -4 1944.00   37.44
   1   1   5   76.73    6.00
  -1  -1  -5   79.81    5.57
   1   1   6  395.28   18.13
  -1  -1  -6  369.53   16.45
   1   1   7    5.10    3.83
  -1  -1  -7    5.74    5.52
   1   1   8   55.50   22.62
  -1  -1  -8   53.08    6.08
  -1  -1  -9   99.19    7.01
  -1  -1 -10    7.03   10.84
  -1  -1 -10   15.81    6.54
  -1  -1 -11   56.88    8.11
  -1  -1 -11   70.32    9.42
  -1  -1 -12    7.13   10.99
  -1  -1 -12    7.02    5.90
  -1  -1 -13   84.30   20.29
  -1  -1 -13   77.87   15.40
  -1  -1 -14    7.85   11.08
  -1  -1 -14    2.96    3.17
   1   2 -15   75.42    8.27
   1   2 -15   75.27   13.20
   1   2 -14    0.37    3.95
   1   2 -14    3.86    2.66
   1   2 -13    7.85    7.50
   1   2 -13   12.23    9.50
   1   2 -12  129.72   10.17
   1   2 -12  157.94   10.86
  -1  -2  12  121.43    7.55
   1   2 -11   94.93    7.00
   1   2 -11   98.52    8.92
  -1  -2  11   91.95   16.31
   1   2 -10    5.60    7.51
   1   2 -10    5.48    4.28
  -1  -2  10    3.87    4.30
   1   2  -9   33.82    5.76
   1   2  -9   28.64   15.54
  -1  -2   9   33.12    5.31
   1   2  -8   41.64    7.24
   1   2  -8   40.67    5.24
  -1  -2   8   49.74    5.70
   1   2  -7  355.79   13.90
   1   2  -7  356.54   14.68
  -1  -2   7  370.25   16.65
   1   2  -6 3610.87   66.27
   1   2  -6 3505.22   61.44
  -1  -2   6 3474.54   73.11
   1   2  -5 2034.69   36.17
   1   2  -5 2021.08   39.44
  -1  -2   5 1991.95   41.88
   1   2  -4 1150.37   18.06
  -1  -2   4 1102.23   18.78
   1   2  -4 1123.28   20.28
  -1  -2   4 1148.63   21.17
   1   2  -3 7656.61  105.30
  -1  -2   3 7690.26  299.59
  -1  -2   0 7689.09  298.31
   1   2   1    8.81    7.32
  -1  -2  -1   11.13    5.58
   1   2   1   11.14    1.98
  -1  -2  -1    8.12    4.51
  -1  -2  -1    8.99    4.98
   1   2   2  969.54   18.62
  -1  -2  -2  869.24   14.94
  -1  -2  -2  914.91   16.67
  -1  -2  -2  908.77   15.11
   1   2   3  123.04    7.44
  -1  -2  -3  125.56    7.14
  -1  -2  -3  121.09    5.55
   1   2   4    1.77    2.62
  -1  -2  -4   17.77    8.99
  -1  -2  -4    1.16    0.67
  -1  -2  -4    0.96    1.78
  -1  -2  -5    7.85    3.41
  -1  -2  -5    9.35    0.77
  -1  -2  -5    8.33    1.48
   1   2   6    0.97    4.21
  -1  -2  -6   -0.48    3.04
   1   2   7  258.55   15.93
  -1  -2  -7  267.77   13.92
  -1  -2  -8  724.10   26.20
  -1  -2  -9  464.27   20.75
  -1  -2  -9  534.82   22.01
  -1  -2 -10   19.95    9.75
  -1  -2 -10   18.06   10.33
  -1  -2 -11   90.24   13.55
  -1  -2 -11   84.41    7.25
  -1  -2 -12    4.55    6.62
  -1  -2 -12    4.81    5.99
  -1  -2 -13   37.54    8.14
  -1  -2 -13   34.06   21.14
  -1  -2 -14    3.89    5.51
  -1  -2 -14    7.19    7.84
   1   3 -15   78.88   26.49
   1   3 -15   93.75   13.68
   1   3 -14  182.06   13.50
   1   3 -14  169.78   14.88
   1   3 -13   88.51    9.79
   1   3 -13   79.06    8.53
  -1  -3  13   72.36   19.44
   1   3 -12    2.04    4.07
   1   3 -12    3.80    2.95
  -1  -3  12   -1.02    4.37
   1   3 -11   -1.03    5.01
   1   3 -11    2.00    3.86
  -1  -3  11    1.47    4.78
   1   3 -10    2.97    4.23
   1   3 -10   -2.16    5.67
  -1  -3  10   -5.41    5.45
   1   3  -9   20.32    3.26
   1   3  -9   14.12    9.32
  -1  -3   9   15.30    7.20
   1   3  -8   15.42    9.89
   1   3  -8   17.07    6.53
  -1  -3   8   20.18   13.13
   1   3  -7  138.74    8.74
   1   3  -7  178.39   10.68
  -1  -3   7  162.22   11.56
   1   3  -6  717.62   16.23
   1   3  -6  792.37   23.77
  -1  -3   6  802.95   20.67
   1   3  -5 2300.48   41.49
   1   3  -5 2135.94   47.23
  -1  -3   5 2298.70   48.59
   1   3  -4  170.47    7.55
  -1  -3   4  166.19    7.30
   1   3  -4  162.63    9.27
  -1  -3   4  176.22   10.43
   1   3  -3  714.98   13.26
  -1  -3   3  715.07   12.94
   1   3  -3  703.04   15.72
  -1  -3   3  695.61   16.66
   1   3  -2 1124.48   20.07
   1   3  -2 1202.41   23.25
   1   3  -1 7170.38  100.79
   1   3  -1 7364.21  104.09
   1   3   0 2464.80   35.48
  -1  -3   0 2325.94   35.23
   1   3   0 2322.43   38.19
   1   3   0 2396.91   39.34
   1   3   1  144.58    7.58
  -1  -3  -1  164.22    8.27
   1   3   1  151.40    7.89
   1   3   1  153.87    8.79
   1   3   2  249.54   12.36
   1   3   2  282.61   15.42
   1   3   2  264.43   12.15
  -1  -3  -2  279.70   12.45
   1   3   3  687.62   18.64
  -1  -3  -3  727.68   17.84
   1   3   3  684.27   15.44
  -1  -3  -3  678.24   14.51
   1   3   4    2.36    1.75
  -1  -3  -4    3.59    3.62
   1   3   4    1.36    1.28
  -1  -3  -4    2.73    1.14
   1   3   5   40.08    4.35
  -1  -3  -5   39.90    3.95
  -1  -3  -5   39.71    2.81
   1   3   6   74.83   10.30
  -1  -3  -6   66.36   14.28
  -1  -3  -6   63.79    3.03
  -1  -3  -6   60.71    2.69
  -1  -3  -7   -0.61    3.41
  -1  -3  -8  198.45   14.83
  -1  -3  -8  178.07    9.13
  -1  -3  -9   30.18   14.19
  -1  -3  -9   18.19    9.97
  -1  -3 -10  267.51   42.23
  -1  -3 -10  278.69   16.51
  -1  -3 -11   27.03   13.11
  -1  -3 -11   24.24   18.26
  -1  -3 -12   30.33   11.78
  -1  -3 -12   14.07   12.61
  -1  -3 -13  122.93   16.64
  -1  -3 -13  100.65    9.03
   1   4 -15   12.26   13.72
   1   4 -15   17.96   11.28
   1   4 -14    6.02    8.04
   1   4 -14    4.83    4.33
  -1  -4  14    5.89    9.69
   1   4 -13   59.61    5.75
   1   4 -13   58.41   35.56
  -1  -4  13   66.82    8.02
   1   4 -12   51.81    6.55
   1   4 -12   71.07    9.15
  -1  -4  12   43.01   19.04
   1   4 -11  610.90   34.30
   1   4 -11  735.94   39.50
  -1  -4  11  645.89   35.21
   1   4 -10  329.86   10.33
   1   4 -10  354.34   15.80
  -1  -4  10  338.99   13.91
   1   4  -9   90.87    5.93
   1   4  -9   88.15   18.47
  -1  -4   9   93.05   10.70
   1   4  -8   61.34    4.41
   1   4  -8   64.42    6.87
  -1  -4   8   54.33    6.31
   1   4  -7    0.89    1.80
   1   4  -7   -0.82    5.18
  -1  -4   7    1.31    3.96
   1   4  -6   21.69    3.24
   1   4  -6   22.90    2.42
   1   4  -6   22.97   15.11
  -1  -4   6   27.42   12.10
   1   4  -5   74.01    3.07
   1   4  -5   70.61    5.19
  -1  -4   5   67.62    5.57
   1   4  -4   52.55    2.65
   1   4  -4   59.72    4.95
   1   4  -3  698.01   12.05
  -1  -4   3  689.11   11.66
   1   4  -3  727.87   17.30
   1   4  -2  254.37   10.71
  -1  -4   2  266.81   11.05
   1   4  -2  256.02   12.62
   1   4  -2  284.97   14.59
   1   4  -1 4132.50   67.61
  -1  -4   1 4215.15   70.05
   1   4  -1 3937.54   77.20
   1   4  -1 4252.38   76.60
   1   4   0   89.97    5.38
  -1  -4   0   81.77    4.92
   1   4   0   93.01    5.81
   1   4   0   89.75    6.38
   1   4   1  451.75   18.86
   1   4   1  476.51   17.08
   1   4   1  476.00   17.81
   1   4   2  768.29   20.36
   1   4   2  746.43   19.10
   1   4   2  793.45   18.54
   1   4   3   -1.60    4.06
  -1  -4  -3   -0.74    2.81
   1   4   3    2.10    1.70
   1   4   4    4.13    3.56
  -1  -4  -4    3.35    2.66
   1   4   4    6.79    3.54
   1   4   5   70.43    7.03
  -1  -4  -5   70.27    5.48
   1   4   5   67.56    5.65
  -1  -4  -6   26.38   12.72
  -1  -4  -7  162.12   15.81
  -1  -4  -7  154.75    9.53
  -1  -4  -7  149.15    5.42
  -1  -4  -8  247.62   19.87
  -1  -4  -8  255.39   22.56
  -1  -4  -9    3.41    2.86
  -1  -4  -9    1.89    2.98
  -1  -4 -10   17.88    7.69
  -1  -4 -10   10.84    7.07
  -1  -4 -11   29.80   22.69
  -1  -4 -11   16.25   14.58
  -1  -4 -12    2.86    8.39
  -1  -4 -13    6.68    6.73
   1   5 -15   12.37   10.06
   1   5 -14    2.90    5.75
  -1  -5  14    0.98    4.66
   1   5 -13    2.14    4.74
   1   5 -13   -0.87    7.31
  -1  -5  13    3.26    3.39
   1   5 -12    6.39    4.01
   1   5 -12    9.36    6.72
  -1  -5  12    8.67    5.82
   1   5 -11  100.62    6.41
   1   5 -11  114.94   10.98
  -1  -5  11  122.95   11.08
   1   5 -10   92.15    6.80
   1   5 -10   88.86    9.28
  -1  -5  10   91.70   24.65
   1   5  -9   80.11    4.66
   1   5  -9   88.11    7.56
  -1  -5   9   72.73    6.93
   1   5  -8  157.94    6.91
   1   5  -8  179.70   10.25
  -1  -5   8  142.23   11.70
   1   5  -7  147.49    7.14
   1   5  -7  159.79   11.09
  -1  -5   7  163.56   15.06
   1   5  -6  134.18    5.93
   1   5  -6  110.35    5.80
   1   5  -6  123.89    8.88
  -1  -5   6  115.35   12.45
   1   5  -5   93.14    6.31
  -1  -5   5   92.90    7.66
   1   5  -4  139.65    7.01
   1   5  -4  138.30    9.33
   1   5  -3  937.93   35.21
   1   5  -3  968.86   39.87
  -1  -5   2  504.79   16.14
   1   5  -2  451.33   17.34
   1   5  -2  524.93   14.19
  -1  -5   1  223.58    8.59
   1   5  -1  210.88   13.80
   1   5  -1  207.66   11.74
  -1  -5   0  629.50   23.41
   1   5   0  667.83   27.35
   1   5   0  632.14   25.84
   1   5   1  430.77   17.70
   1   5   1  433.41   21.11
   1   5   2  431.49   18.55
   1   5   2  393.11   17.90
  -1  -5  -3 3986.29   46.63
   1   5   3 3966.45   98.24
  -1  -5  -4    6.93    5.71
  -1  -5  -4   13.75    5.20
   1   5   4    8.12    3.80
  -1  -5  -5   23.40   14.81
  -1  -5  -5   17.07   12.16
   1   5   5   31.74    3.98
  -1  -5  -6    5.92    5.43
  -1  -5  -6    0.89    5.87
  -1  -5  -7   66.54   12.03
  -1  -5  -7   51.73    5.80
  -1  -5  -8   15.51    8.52
  -1  -5  -8   11.41    8.94
  -1  -5  -9    9.20    6.10
  -1  -5 -10   90.18   10.32
  -1  -5 -11    1.26    3.81
  -1  -5 -12   36.87   31.10
   1   6 -14   61.57   10.84
  -1  -6  14   55.35    8.14
   1   6 -13   80.08   14.19
  -1  -6  13   65.05    8.85
   1   6 -12   90.74   13.00
  -1  -6  12   59.16   30.26
   1   6 -11   38.45   24.85
  -1  -6  11   22.11   17.77
   1   6 -10    9.68    6.56
  -1  -6  10    8.06    5.51
   1   6  -9   10.34   13.64
  -1  -6   9   19.48    7.69
   1   6  -8   -3.25    6.75
  -1  -6   8    3.90    6.29
   1   6  -7   94.54    8.25
  -1  -6   7   84.14    9.03
   1   6  -6  229.93   29.30
  -1  -6   6  233.12   17.71
   1   6  -5  753.47   25.03
   1   6  -4   74.56   24.44
   1   6  -4   83.57    8.01
   1   6  -3   89.38    6.87
   1   6  -3   84.97    7.78
  -1  -6   2  567.77    4.72
  -1  -6   2  572.72    4.42
   1   6  -2  611.89   19.81
  -1  -6   1  381.42    7.62
  -1  -6   1  412.69    8.04
   1   6  -1  384.72   11.10
   1   6  -1  384.39   14.77
  -1  -6   0   92.07    8.56
   1   6   0   94.66    6.53
   1   6   0  109.58    9.94
  -1  -6  -1    0.31    2.92
   1   6   1    4.75    3.39
   1   6   1    3.61    2.45
  -1  -6  -2  115.19    7.33
   1   6   2  118.20    9.45
   1   6   2  132.70   13.58
  -1  -6  -3   47.47    7.47
  -1  -6  -3   41.96    7.85
   1   6   3   48.08    5.48
  -1  -6  -4 1551.25   42.50
  -1  -6  -4 1479.36   40.01
   1   6   4 1683.12   23.57
  -1  -6  -5  344.32   19.04
  -1  -6  -5  412.19   18.70
   1   6   5  397.81   21.30
  -1  -6  -6  102.53    9.57
  -1  -6  -6   92.14    8.18
  -1  -6  -7    2.63    5.27
  -1  -6  -7    1.29    2.85
  -1  -6  -8  157.64   15.42
  -1  -6  -9   89.04   11.33
  -1  -6 -10    2.70    7.62
   1   7 -13   26.49   13.94
  -1  -7  13   18.84   13.75
   1   7 -12  134.16   16.42
  -1  -7  12  132.13   13.45
   1   7 -11    2.37    4.49
  -1  -7  11    0.71    5.25
   1   7 -10    5.40    8.76
  -1  -7  10   10.83    9.17
   1   7  -9   10.50    7.26
  -1  -7   9   19.96   11.24
   1   7  -8  101.57    8.59
  -1  -7   8   80.80   10.66
   1   7  -7  185.69   13.54
  -1  -7   7  204.46   17.76
   1   7  -6  609.97   27.17
  -1  -7   6  582.84   42.86
   1   7  -5  182.02   11.02
   1   7  -4  423.86   13.92
   1   7  -4  464.69   22.37
   1   7  -3  202.11   10.59
   1   7  -3  203.96   16.44
   1   7  -2    6.64    8.99
   1   7  -2   18.59   11.54
  -1  -7   1   60.59    3.25
   1   7  -1   76.76    7.61
   1   7  -1   66.17    9.12
  -1  -7   0   24.80    4.13
   1   7   0   27.61   15.18
   1   7   0   26.52   14.42
  -1  -7  -1    2.38    2.40
   1   7   1    1.35    3.77
   1   7   1    2.50    3.44
  -1  -7  -2   14.61    8.02
   1   7   2   15.48    7.88
   1   7   2   10.33    8.92
  -1  -7  -3   13.48    4.76
  -1  -7  -3   10.40    4.37
   1   7   3   15.36    8.85
  -1  -7  -4  169.72    9.61
  -1  -7  -4  163.28    8.72
   1   7   4  191.88   10.39
  -1  -7  -5   41.21    5.66
  -1  -7  -5   33.18   13.00
  -1  -7  -6    1.31    3.02
  -1  -7  -7    0.63    3.42
  -1  -7  -8    2.63    4.47
  -1  -7  -9  104.19   13.62
   1   8 -12   90.69   10.43
  -1  -8  12   85.71   12.89
   1   8 -11    2.56    7.56
  -1  -8  11   -6.41    7.44
   1   8 -10  123.97   39.29
  -1  -8  10  149.18   18.70
   1   8  -9   80.87   26.67
  -1  -8   9   65.52   38.74
   1   8  -8   -0.68    6.36
  -1  -8   8   -2.95    8.12
   1   8  -7    6.35    5.56
  -1  -8   7   10.77   10.67
   1   8  -6    6.84    8.12
  -1  -8   6    2.69    8.99
   1   8  -5    3.91    2.37
  -1  -8   5    4.46    5.17
   1   8  -4    7.34    6.51
   1   8  -3   24.62   15.78
   1   8  -3   35.80   11.90
   1   8  -2    1.09    3.53
   1   8  -2    3.58    4.44
   1   8  -1   65.33    6.18
   1   8  -1   64.20    8.40
   1   8   0  105.98    7.60
   1   8   0  100.86    9.00
   1   8   1   15.62    6.89
   1   8   1   14.20   10.52
   1   8   2    3.92    3.57
   1   8   2   13.51    7.29
  -1  -8  -3   38.38    6.14
  -1  -8  -3   28.19   15.46
   1   8   3   33.02   19.74
  -1  -8  -4    3.17    4.26
  -1  -8  -5   40.06    8.42
  -1  -8  -6    2.03    3.50
  -1  -8  -7   20.74   13.08
  -1  -8  -8    3.64    5.59
   1   9 -11  207.23   21.50
  -1  -9  11  192.36   20.72
   1   9 -10  118.58   12.44
  -1  -9  10   95.17   56.22
   1   9  -9   65.35    8.80
  -1  -9   9   65.13   10.35
   1   9  -8   23.12   19.79
  -1  -9   8   23.56   14.89
   1   9  -7  202.61   15.49
  -1  -9   7  171.95   18.42
   1   9  -6    2.72    2.73
  -1  -9   6    2.79   10.50
   1   9  -5    6.48    6.83
  -1  -9   5    3.60    8.11
   1   9  -4   53.66    8.72
  -1  -9   4   31.54   27.46
   1   9  -3   42.83   24.80
   1   9  -2    3.92    3.33
   1   9  -2    4.09    8.15
   1   9  -1    3.83    3.66
   1   9  -1    6.23    7.78
   1   9   0  102.79    8.16
   1   9   0   95.73    9.10
   1   9   1   20.48   16.63
   1   9   1   21.08   19.53
   1  10  -8   15.74   14.34
  -1 -10   8   22.58   14.82
   1  10  -7    6.12    7.85
  -1 -10   7    6.31    8.86
   1  10  -6    0.78    4.05
  -1 -10   6    0.00    8.15
   1  10  -5   28.29   19.75
  -1 -10   5   32.26   22.12
   1  10  -4   29.21   23.88
   1  10  -3  169.25   12.88
  -1 -10   3  128.44   16.81
   1  10  -2   61.30    7.49
  -1 -10   2   21.01   22.89
   1  10  -1    2.52    3.39
  -1 -10   1    0.85    6.32
  -1 -10   0    6.11    9.60
  -1 -10  -1   28.95   24.33
  -1 -10  -2   22.27   16.38
  -2  11  -1    0.73    3.82
  -2  11  -2   22.74   17.26
  -2  11  -3   74.47   46.03
  -2  11  -4   44.41   28.94
  -2  10   4    1.92    2.17
  -2  10   3   34.13   27.43
  -2  10   2   70.06    8.42
  -2  10   1   29.09   15.36
  -2  10   0  164.42   13.13
  -2  10  -1   -2.35    7.30
  -2  10  -2    1.20    4.75
  -2  10  -3   25.45   12.98
  -2  10  -4    4.68    5.81
  -2  10  -4    3.41    4.37
  -2  10  -5    1.88    2.55
  -2  10  -5    0.78    3.79
  -2  10  -6   -1.16    4.84
  -2  10  -6   -0.90    7.15
  -2  10  -7    1.73    3.72
  -2  10  -7    4.46    6.14
  -2  10  -8   38.08   18.92
  -2  10  -8   32.99   22.16
   2  -9  -7    4.59    8.01
  -2   9   6   28.38   26.16
  -2   9   5    4.17    6.17
  -2   9   4   22.22   14.05
  -2   9   3   69.01    8.79
  -2   9   2   20.02   13.52
  -2   9   1   15.90   10.80
  -2   9   0   22.83   13.32
  -2   9  -1   72.83   29.76
  -2   9  -2   20.00   11.64
  -2   9  -2   17.86   12.16
  -2   9  -3    0.94    2.68
  -2   9  -3    2.96    6.08
  -2   9  -4   66.04   17.02
  -2   9  -4   81.78   37.00
  -2   9  -5  136.22   14.21
  -2   9  -5  130.21   29.24
  -2   9  -6   79.07   10.21
  -2   9  -6   70.57   44.60
  -2   9  -7   32.02   14.80
  -2   9  -7   45.05   22.69
  -2   9  -8    4.72    5.69
  -2   9  -8    2.27    5.72
  -2   9  -9  126.52   14.90
  -2   9  -9  138.02   12.42
  -2   9 -10   46.50   18.16
  -2   9 -10   21.73   17.46
  -2   9 -11  225.64   22.31
  -2   9 -11  250.34   23.80
   2  -8  -8    7.10    4.90
   2  -8  -7  137.24   13.62
   2  -8  -6    4.57    3.65
  -2   8   6    3.94    4.07
   2  -8  -5   15.21   13.80
  -2   8   5   15.57   11.12
   2  -8  -4   65.78    7.69
  -2   8   4   77.54   10.47
   2  -8  -3   27.56   10.35
  -2   8   3   29.58   14.63
   2  -8  -2   82.08    7.41
  -2   8   2   74.41    9.97
   2  -8  -1   88.69    5.90
  -2   8   1   68.14   22.24
  -2   8   0    1.66    1.82
  -2   8   0    2.41    2.99
  -2   8  -1   15.63   10.72
  -2   8  -1    7.00   11.09
  -2   8  -2    5.76    6.26
  -2   8  -2    1.00    5.61
  -2   8  -3   21.01   11.28
  -2   8  -3   21.75   12.36
  -2   8  -4  144.12   12.56
  -2   8  -4  157.73   12.01
  -2   8  -5   67.89    7.69
  -2   8  -5   49.76   21.91
  -2   8  -6  329.61   13.48
  -2   8  -6  326.32   16.46
  -2   8  -7  326.98   14.48
  -2   8  -7  318.75   33.79
  -2   8  -8   28.00   12.22
  -2   8  -8   30.88   16.64
  -2   8  -9   12.68    8.32
  -2   8  -9   10.03    8.04
  -2   8 -10   21.65   14.84
  -2   8 -10   31.44   12.85
  -2   8 -11   -0.63    6.40
  -2   8 -11    1.93    3.98
  -2   8 -12   48.54   25.75
   2  -8  12   27.17   20.36
   2  -7 -10   13.58   11.45
   2  -7  -9   34.28   22.25
   2  -7  -8   17.76   18.90
   2  -7  -7    3.14    4.51
  -2   7   7    6.88    5.24
   2  -7  -6  644.94   20.68
  -2   7   6  654.48   21.77
   2  -7  -5   83.71   11.66
  -2   7   5   97.21   18.93
   2  -7  -4  202.73   16.66
  -2   7   4  184.76   19.88
   2  -7  -3  273.34   18.60
  -2   7   3  274.25   25.97
   2  -7  -2   37.71    4.66
  -2   7   2   31.88    2.33
  -2   7   2   38.75   19.51
   2  -7  -1  122.51    7.77
  -2   7   1  122.06    7.42
  -2   7   1  124.43    9.22
   2  -7   0   67.51    5.75
  -2   7   0   57.01    3.66
  -2   7   0   48.73   20.31
   2  -7   1  149.33    5.25
  -2   7  -1  149.06    6.30
  -2   7  -1  146.05    9.56
   2  -7   2  344.70   15.39
  -2   7  -2  327.75   15.67
  -2   7  -2  344.54   21.46
  -2   7  -3  393.08   18.79
  -2   7  -3  382.63   22.21
  -2   7  -4  138.64   10.41
  -2   7  -4  144.58   13.35
  -2   7  -5 1403.90   38.15
  -2   7  -5 1321.68   35.96
  -2   7  -6    5.05    4.63
  -2   7  -6    1.83    5.94
  -2   7  -7  141.44   10.73
  -2   7  -7  145.64   12.29
  -2   7  -8  144.13   10.93
  -2   7  -8  123.87   10.21
  -2   7  -9   25.14   19.51
  -2   7  -9   30.58   12.78
  -2   7 -10   54.70   22.82
  -2   7 -10   46.95   29.53
  -2   7 -11    6.20    8.50
  -2   7 -11    8.49    7.71
  -2   7 -12  146.24   15.23
   2  -7  12  137.07   14.69
  -2   7 -13   20.87   13.33
   2  -7  13   20.18   13.79
   2  -6 -11    0.55    7.32
   2  -6 -10   -1.97    6.22
   2  -6  -9    4.93    8.81
   2  -6  -8   -1.32    5.04
  -2   6   8    1.34    3.23
   2  -6  -7   93.28    8.12
  -2   6   7   75.88    6.41
   2  -6  -6  310.62   21.72
  -2   6   6  302.81   18.20
   2  -6  -5   52.15    5.74
  -2   6   5   47.41   22.72
   2  -6  -4   -0.19    4.73
  -2   6   4    3.31    3.39
   2  -6  -3   46.16    4.91
  -2   6   3   55.83    6.47
   2  -6  -2   36.97    4.06
  -2   6   2   34.74    2.73
   2  -6  -2   34.30    2.32
  -2   6   2   37.98    5.81
   2  -6  -1  651.89   14.45
  -2   6   1  639.14   11.80
   2  -6  -1  594.89   10.76
  -2   6   1  660.49   16.81
   2  -6   0    4.89    3.83
  -2   6   0    4.61    1.89
  -2   6   0    4.54    4.19
   2  -6   1  132.81    6.76
  -2   6  -1  130.62    6.36
  -2   6  -1  127.13    6.69
  -2   6  -1  137.66    9.54
   2  -6   2   12.74    4.85
  -2   6  -2    8.29    4.24
  -2   6  -2    8.82    5.97
  -2   6  -2   13.80    7.86
   2  -6   3   52.64    2.51
  -2   6  -3   48.26    2.45
  -2   6  -3   51.25    5.75
  -2   6  -3   50.11    7.16
   2  -6   4  455.39    7.75
  -2   6  -4  442.15    8.21
  -2   6  -4  480.31   17.20
  -2   6  -4  478.38   20.57
   2  -6   5   47.38    5.61
  -2   6  -5   43.26    3.02
  -2   6  -5   41.13    4.65
  -2   6  -5   38.08   15.82
   2  -6   6  227.78   10.96
  -2   6  -6  231.16   13.18
  -2   6  -6  217.96   11.14
   2  -6   7    1.85    2.76
  -2   6  -7    1.88    3.09
  -2   6  -7    4.23    8.46
  -2   6  -8   20.05   12.88
  -2   6  -8   20.90    9.93
  -2   6  -9    2.25    3.14
  -2   6  -9   -0.89    5.76
  -2   6  -9    3.69    4.19
  -2   6 -10    4.66    4.37
  -2   6 -10    4.08    3.55
  -2   6 -10    4.35    4.05
  -2   6 -11   44.15   30.85
  -2   6 -11   46.65    6.63
  -2   6 -12    3.04    3.37
   2  -6  12   -0.58    4.73
  -2   6 -13   12.46   10.83
   2  -6  13    5.86   10.79
  -2   6 -14    3.27    3.57
   2  -5 -12    7.60    7.28
   2  -5 -11  109.56   23.72
   2  -5 -10   73.49   10.31
   2  -5  -9    4.78    5.62
  -2   5   9    2.63    1.75
   2  -5  -8   16.96    8.36
  -2   5   8   16.75   10.79
   2  -5  -7  304.35   17.93
  -2   5   7  264.97   18.38
   2  -5  -6  656.60   31.45
  -2   5   6  663.64   32.53
   2  -5  -5  494.37   16.84
  -2   5   5  498.78   15.25
   2  -5  -4   16.40    6.86
  -2   5   4   13.33    9.88
   2  -5  -3  668.88   27.14
  -2   5   3  713.13   28.58
   2  -5  -2  814.28   33.28
  -2   5   2  839.79   28.72
   2  -5  -2  788.34   26.74
  -2   5   2  865.05   35.18
   2  -5  -1   34.61    3.68
  -2   5   1   38.61    2.19
   2  -5  -1   37.29    2.36
  -2   5   1   44.99    5.38
   2  -5   0 1196.39   26.94
  -2   5   0 1223.20   23.88
   2  -5   0 1219.08   24.34
  -2   5   0 1292.54   32.60
   2  -5   1  493.33   17.38
  -2   5  -1  443.83   15.37
  -2   5  -1  522.67   18.07
  -2   5  -1  438.22   18.74
   2  -5   2   10.61    3.95
  -2   5  -2    7.84    4.13
  -2   5  -2   11.94    8.12
  -2   5  -2    8.64    8.68
   2  -5   3   46.56    2.90
  -2   5  -3   44.96    3.45
  -2   5  -3   48.56    4.00
  -2   5  -3   53.77    5.75
   2  -5   4   16.15    7.63
  -2   5  -4   15.04    3.08
  -2   5  -4   19.24    9.40
  -2   5  -4   17.58   12.47
   2  -5   5   57.70    4.37
  -2   5  -5   51.91    2.96
  -2   5  -5   58.31    6.12
  -2   5  -5   43.90   22.57
   2  -5   6  400.49    9.83
  -2   5  -6  450.87   12.71
  -2   5  -6  428.46   13.77
   2  -5   7    6.61    5.68
  -2   5  -7    3.12    5.34
   2  -5   8   31.11    4.97
  -2   5  -8   38.21    6.36
  -2   5  -8   34.52   12.88
   2  -5   9  144.02    8.34
  -2   5  -9  125.92    9.28
  -2   5  -9  126.49    8.20
  -2   5 -10   60.95    7.34
  -2   5 -10   79.07   12.42
  -2   5 -11   31.47    9.23
  -2   5 -11   44.28   19.98
  -2   5 -12  102.37   11.43
  -2   5 -12  108.12    9.98
   2  -5  12  106.94    9.62
  -2   5 -13  120.20    9.63
  -2   5 -13  119.52   26.50
  -2   5 -14   15.49   18.78
   2  -4 -13    4.39    6.86
   2  -4 -12   12.97   15.27
   2  -4 -11    4.76    5.27
   2  -4 -10  230.77   39.91
   2  -4  -9   25.03   12.12
  -2   4   9   18.33   12.01
   2  -4  -8  100.77   12.33
   2  -4  -8   90.10    4.05
  -2   4   8  100.94    6.04
   2  -4  -7  215.70   11.33
   2  -4  -7  196.76    5.26
  -2   4   7  219.31    8.36
   2  -4  -6  328.04   14.86
   2  -4  -6  342.49    5.84
  -2   4   6  366.32   13.03
   2  -4  -5  156.69    9.81
  -2   4   5  153.41   11.00
   2  -4  -4    4.68    7.11
  -2   4   4    6.64    6.10
   2  -4  -3   13.80    4.94
  -2   4   3   10.73    5.53
   2  -4  -2  791.90   17.94
  -2   4   2  812.18   19.72
   2  -4  -1 1177.02   24.22
  -2   4   1 1201.87   20.95
   2  -4  -1 1127.60   20.44
  -2   4   1 1148.42   25.85
   2  -4   0  586.27   15.99
  -2   4   0  627.74   12.90
  -2   4   0  574.52   12.15
   2  -4   0  589.10   12.44
  -2   4   0  622.85   16.17
   2  -4   1   64.44    4.40
  -2   4  -1   62.55    3.65
  -2   4  -1   65.86    3.88
   2  -4   1   66.49    4.07
  -2   4  -1   62.09    5.42
   2  -4   2  200.71   10.42
  -2   4  -2  188.25    9.52
  -2   4  -2  195.70    9.24
  -2   4  -2  185.97   10.44
   2  -4   3  282.87   11.92
  -2   4  -3  297.44   10.92
  -2   4  -3  308.38   12.09
  -2   4  -3  288.97   12.78
   2  -4   4  230.31    9.91
  -2   4  -4  215.61    8.78
  -2   4  -4  215.42   11.47
  -2   4  -4  214.70   11.77
   2  -4   5  944.07   21.34
  -2   4  -5  954.65   22.83
  -2   4  -5  983.44   26.52
   2  -4   6  459.80   20.49
  -2   4  -6  427.90   17.69
  -2   4  -6  420.86   20.49
   2  -4   7  153.12    8.80
  -2   4  -7  156.42   10.38
  -2   4  -7  160.37   10.06
   2  -4   8  616.22   19.56
  -2   4  -8  678.95   17.93
  -2   4  -8  638.12   18.99
   2  -4   9  562.22   20.61
  -2   4  -9  550.53   15.80
  -2   4  -9  539.42   22.96
   2  -4  10   37.03    6.94
  -2   4 -10   46.01   20.32
  -2   4 -10   38.05    5.60
  -2   4 -11   96.41    8.06
   2  -4  11   97.72    9.62
  -2   4 -12    0.13    4.63
  -2   4 -12    1.02    3.90
   2  -4  12   -0.95    3.55
  -2   4 -13    7.07    5.46
  -2   4 -13    6.66    7.16
  -2   4 -14  108.23   15.55
  -2   4 -14   96.34   10.24
  -2   4 -15  129.25   14.37
   2  -3 -14    4.85    6.52
   2  -3 -13   30.80   19.72
   2  -3 -12    7.18    9.20
   2  -3 -11    5.02    4.21
   2  -3 -10    6.06    5.32
   2  -3 -10    3.70    5.61
  -2   3  10    7.85    4.19
   2  -3  -9   22.94   15.96
   2  -3  -9   21.13    3.04
  -2   3   9   24.31    8.72
   2  -3  -8    7.71    5.12
   2  -3  -8    9.11    4.06
  -2   3   8    8.86    4.56
   2  -3  -7  435.06   17.39
   2  -3  -7  423.08   11.49
  -2   3   7  404.56    8.24
   2  -3  -6   25.14   13.88
   2  -3  -6   21.23    2.14
  -2   3   6   25.51   11.04
   2  -3  -5  611.93   20.14
   2  -3  -5  583.97   11.58
  -2   3   5  561.43   12.52
  -2   3   5  632.21   18.76
   2  -3  -4  193.66    9.72
  -2   3   4  206.08   10.31
   2  -3  -3    7.59    7.46
  -2   3   3    6.17    2.87
   2  -3  -2  349.97   15.82
  -2   3   2  337.92   16.00
   2  -3  -1  433.11   19.17
  -2   3   1  413.00   16.40
   2  -3  -1  437.72    4.52
  -2   3   1  413.37   18.75
   2  -3   0   28.66    2.84
  -2   3   0   33.62    2.69
  -2   3   0   30.60    3.71
   2  -3   0   31.36    1.90
  -2   3   0   27.61    3.52
   2  -3   1   24.26    2.30
  -2   3  -1   30.40    6.35
  -2   3  -1   24.53    1.99
   2  -3   1   23.49    1.80
  -2   3  -1   28.82    3.37
   2  -3   2 2179.49   40.90
  -2   3  -2 2121.80   37.47
  -2   3  -2 2297.03   41.46
  -2   3  -2 2284.16   41.56
   2  -3   3 4867.10   84.28
  -2   3  -3 4746.95   80.00
  -2   3  -3 4887.60   84.91
  -2   3  -3 4808.27   82.22
   2  -3   4 1208.29   32.50
  -2   3  -4 1133.63   23.57
  -2   3  -4 1124.25   27.96
   2  -3   5 3080.49   57.56
  -2   3  -5 3212.49   59.26
  -2   3  -5 3409.57   61.67
   2  -3   6 1420.55   33.15
  -2   3  -6 1390.09   38.01
  -2   3  -6 1450.72   35.33
   2  -3   7    6.84    2.54
  -2   3  -7    4.60    5.89
  -2   3  -7    5.11    3.13
   2  -3   8  328.33   13.94
  -2   3  -8  336.29   13.64
  -2   3  -8  334.31   11.36
   2  -3   9  811.47   39.88
  -2   3  -9  731.01   38.43
  -2   3  -9  825.14   36.02
   2  -3  10   97.55    7.59
  -2   3 -10   81.00    7.95
   2  -3  10   67.75    4.78
   2  -3  11  131.27   11.33
  -2   3 -11  117.94   11.16
   2  -3  11  108.61    8.10
  -2   3 -12   -4.81    5.46
  -2   3 -12   -0.71    5.38
  -2   3 -13    8.46    5.88
  -2   3 -13    3.01    7.15
  -2   3 -14  136.29   12.41
  -2   3 -14  128.70   17.16
  -2   3 -15   40.45   20.43
  -2   3 -15   34.95   19.80
   2  -2 -14    6.59    5.01
   2  -2 -13    0.96    4.77
   2  -2 -12    4.09    6.40
   2  -2 -12    1.22    2.50
   2  -2 -11    5.65    9.68
   2  -2 -11    4.59    2.38
  -2   2  11    2.26    1.98
   2  -2 -10  150.81   11.56
   2  -2 -10  175.40    7.20
  -2   2  10  149.52    6.42
   2  -2  -9  204.52   13.70
   2  -2  -9  202.28    6.73
  -2   2   9  208.54    8.10
   2  -2  -8  123.96   10.29
   2  -2  -8   87.84    4.89
  -2   2   8  103.83    6.49
   2  -2  -7  146.48    8.07
   2  -2  -7  151.87    7.21
  -2   2   7  158.36    8.48
   2  -2  -6  309.41   13.79
   2  -2  -6  290.18   10.44
  -2   2   6  292.86   10.40
  -2   2   6  285.02   13.89
   2  -2  -5  648.38   16.45
   2  -2  -5  586.11   14.42
  -2   2   5  598.58   13.64
  -2   2   5  667.43   17.25
   2  -2  -4  239.83   12.69
   2  -2  -4  221.62    9.63
  -2   2   4  224.10   12.45
   2  -2  -3   22.44    2.86
   2  -2  -3   27.02    1.38
  -2   2   3   23.02    3.24
  -2   2   1   35.81    2.90
   2  -2  -1   36.52    4.27
  -2   2   1   43.27    1.91
  -2   2   1   39.12    3.93
   2  -2   0  699.24   13.85
  -2   2   0  727.59   13.47
  -2   2   0  697.70   11.82
   2  -2   0  746.71   13.10
  -2   2   0  726.59   14.50
   2  -2   1 1419.15   23.12
  -2   2  -1 1413.04   22.44
  -2   2  -1 1328.11   20.31
   2  -2   2  316.01   10.07
  -2   2  -2  315.30   10.02
  -2   2  -2  330.35   10.37
   2  -2   2  309.70    9.84
  -2   2  -2  322.67   10.54
   2  -2   3  737.11   14.69
  -2   2  -3  821.20   15.55
  -2   2  -3  755.95   14.49
   2  -2   4   54.99    5.28
  -2   2  -4   53.30    4.32
  -2   2  -4   53.53    3.90
   2  -2   5 1212.68   28.04
  -2   2  -5 1323.84   28.97
  -2   2  -5 1405.70   27.51
   2  -2   6 1019.82   28.69
  -2   2  -6 1035.47   30.47
  -2   2  -6 1010.55   22.86
   2  -2   7  113.97    8.27
  -2   2  -7  102.38    6.54
  -2   2  -7  102.27    5.06
   2  -2   8  296.20   11.23
  -2   2  -8  261.65   14.37
  -2   2  -8  285.51    8.50
   2  -2   9  994.26   51.08
  -2   2  -9  960.42   63.66
   2  -2   9  952.29   41.86
   2  -2  10  505.25   18.58
  -2   2 -10  451.52   16.77
   2  -2  10  485.08   13.28
   2  -2  11   96.70    8.90
  -2   2 -11   87.79    8.81
  -2   2 -12   22.17   15.14
  -2   2 -12   17.40    9.45
  -2   2 -13   42.20   25.46
  -2   2 -13   42.72   26.72
  -2   2 -14   52.17    7.39
  -2   2 -14   36.90   17.67
  -2   2 -15    7.36    8.60
  -2   2 -15   12.28    7.94
   2  -1 -15   28.47   25.45
   2  -1 -14    8.93    9.34
   2  -1 -14   12.74   12.58
   2  -1 -13    3.29    5.89
   2  -1 -13    4.97    6.71
   2  -1 -12    3.49    7.88
   2  -1 -12    1.34    4.14
   2  -1 -11    0.76    5.05
   2  -1 -11    2.34    3.85
  -2   1  11    1.46    2.47
   2  -1 -10  118.10    8.93
   2  -1 -10  109.39    6.24
  -2   1  10  124.60    5.89
   2  -1  -9   45.40    5.69
   2  -1  -9   49.30    4.53
  -2   1   9   56.53    5.41
   2  -1  -8   21.24   11.72
   2  -1  -8   30.91    2.97
  -2   1   8   18.82    2.57
   2  -1  -7   18.58   10.81
   2  -1  -7   16.39    2.47
  -2   1   7   15.40    2.59
   2  -1  -6  946.12   24.98
   2  -1  -6  919.27   27.97
   2  -1  -5 2143.05   44.57
  -2   1   5 2139.43   38.92
  -2   1   5 2181.36   39.01
   2  -1  -4  939.05   17.33
  -2   1   4  974.66   16.12
  -2   1   4  938.20   17.95
   2  -1  -3   31.24    3.02
   2  -1  -3   29.66    1.73
  -2   1   3   30.42    1.73
  -2   1   3   29.27    6.40
   2  -1  -3   30.89    2.61
   2  -1  -2 1058.78   19.03
   2  -1  -2 1056.15   15.89
  -2   1   2 1102.34   17.55
   2  -1  -2 1031.54   17.26
  -2   1   2 1064.42   18.01
   2  -1   1  241.88    9.41
  -2   1  -1  245.31    8.00
  -2   1  -1  259.40    8.37
   2  -1   1  257.54    7.73
   2  -1   1  256.97    8.06
  -2   1  -1  246.49    7.94
   2  -1   2 3338.73   51.22
  -2   1  -2 3434.33   49.51
  -2   1  -2 3586.82   51.65
   2  -1   2 3444.21   49.67
  -2   1  -2 3437.33   49.67
   2  -1   2 3293.73   45.91
   2  -1   3  130.18    6.31
  -2   1  -3  127.41    5.60
  -2   1  -3  122.82    4.85
   2  -1   3  133.29    5.00
   2  -1   4  634.43   16.78
  -2   1  -4  612.56   15.74
  -2   1  -4  599.72   12.40
   2  -1   4  596.82   11.97
   2  -1   5   41.27    5.26
  -2   1  -5   36.52    4.03
  -2   1  -5   34.75    3.02
   2  -1   5   38.31    2.70
   2  -1   6  654.81   21.40
  -2   1  -6  630.86   17.73
  -2   1  -6  605.11   13.06
   2  -1   6  602.52   12.33
   2  -1   7  307.71   15.29
  -2   1  -7  273.86   14.30
  -2   1  -7  280.66   11.55
   2  -1   7  275.08   10.72
   2  -1   8   13.94    5.77
  -2   1  -8    8.95    6.75
   2  -1   8    7.67    5.83
   2  -1   9  532.39   21.91
  -2   1  -9  476.73   17.34
   2  -1   9  456.11    9.78
   2  -1  10   13.08    5.72
  -2   1 -10    9.58    9.41
   2  -1  11   13.98    8.15
  -2   1 -11    7.26    5.78
  -2   1 -12    2.24    4.20
  -2   1 -13   56.06   35.80
  -2   1 -13   55.50   29.40
  -2   1 -14   25.76   22.88
  -2   1 -14   17.72   17.40
  -2   1 -15   20.91   20.54
  -2   1 -15   15.10    9.76
   2   0 -15   21.47   26.49
   2   0 -15   33.47    9.71
   2   0 -14  105.43   24.73
   2   0 -14  110.55    9.76
   2   0 -13   47.89   29.13
   2   0 -13   56.44    6.23
   2   0 -12    6.80    5.34
   2   0 -12    9.41    4.84
  -2   0  12    1.55    2.62
   2   0 -11   34.64   18.62
   2   0 -11   31.49    4.49
  -2   0  11   28.84   13.87
   2   0 -10  185.37   13.45
   2   0 -10  174.00    8.23
  -2   0  10  179.27   13.38
   2   0  -9  448.05   15.39
   2   0  -9  444.37   11.83
  -2   0   9  388.57   15.66
   2   0  -8  239.20   12.74
   2   0  -8  234.00   11.50
  -2   0   8  247.66   11.78
   2   0  -7  203.39   12.06
   2   0  -7  219.51    9.75
  -2   0   7  209.63   11.47
   2   0  -6  124.91    8.09
   2   0  -6  117.62    6.84
  -2   0   6  115.36   10.80
   2   0  -5   11.62    5.01
   2   0  -5   12.40    6.51
  -2   0   5   13.30    5.03
   2   0  -4  222.05    8.08
   2   0  -4  228.00    7.55
  -2   0   4  238.29    7.26
  -2   0   4  266.29    9.24
   2   0  -3 1289.56   23.29
  -2   0   3 1387.90   21.59
   2   0  -3 1319.21   21.52
   2   0  -2 9999.98  387.49
  -2   0   1  641.28   11.77
   2   0  -1  636.94   26.28
   2   0  -1  608.64   15.81
  -2   0   1  639.79   11.82
   2   0  -1  679.28   12.17
  -2   0   1  631.37   25.87
  -2   0   0 5460.43   75.26
  -2   0  -1  220.67    7.75
   2   0   1  216.29    7.95
  -2   0  -1  199.00    6.52
  -2   0  -1  230.19    7.52
  -2   0  -1  231.66    7.02
   2   0   1  215.55    8.30
   2   0   2   34.18    6.72
  -2   0  -2   34.76    2.90
  -2   0  -2   43.06    2.28
   2   0   2   36.32    2.38
   2   0   3  400.61   13.01
  -2   0  -3  379.38   11.44
   2   0   3  380.58    9.80
   2   0   4 1501.39   31.87
  -2   0  -4 1495.59   30.56
  -2   0  -4 1487.56   25.76
   2   0   5  276.47   16.30
  -2   0  -5  248.06   12.19
  -2   0  -5  231.16    9.81
   2   0   5  260.26   10.76
   2   0   6   16.21    5.26
  -2   0  -6   12.45   10.55
   2   0   6   10.90    0.70
   2   0   7 2176.61   77.49
  -2   0  -7 2084.75   79.01
   2   0   8 1385.85   25.80
  -2   0  -8 1307.79   28.11
   2   0   9  598.78   34.71
  -2   0  -9  598.03   28.95
   2   0  10  392.25   24.59
  -2   0 -10  316.53   19.96
   2   0  11   97.42   35.31
  -2   0 -11   87.70    7.61
  -2   0 -12    6.50    8.06
  -2   0 -12   11.04    9.33
  -2   0 -13   41.83   16.94
  -2   0 -13   39.71   19.23
  -2   0 -14    0.78    4.42
  -2   0 -14    4.71    5.30
   2   1 -15   32.79   20.47
   2   1 -15   23.72   20.57
   2   1 -14   97.32   13.97
   2   1 -14  107.70   18.87
   2   1 -13   -0.08    7.15
   2   1 -13   -0.93    5.81
  -2  -1  13    3.42    3.62
   2   1 -12    7.80    7.94
   2   1 -12   13.83    9.49
  -2  -1  12   11.59    9.64
   2   1 -11    6.62    6.55
   2   1 -11    2.15    3.18
  -2  -1  11    2.47    3.96
   2   1 -10  122.89    9.23
   2   1 -10  133.95   13.67
  -2  -1  10  122.14   14.27
   2   1  -9  105.43   11.08
   2   1  -9  119.32    8.43
  -2  -1   9   92.64    7.82
   2   1  -8 1569.14   60.85
   2   1  -8 1552.13   64.18
  -2  -1   8 1356.70   55.88
   2   1  -7  554.01   12.34
   2   1  -7  569.11   16.63
  -2  -1   7  494.42   19.53
   2   1  -6  798.17   18.04
   2   1  -6  906.25   19.92
  -2  -1   6  833.82   18.95
   2   1  -5 2314.30   45.12
   2   1  -5 2116.17   42.28
  -2  -1   5 2410.04   44.29
   2   1  -4  438.21   14.15
   2   1  -4  409.58   12.26
  -2  -1   4  428.98   13.76
  -2  -1   3 1206.65   19.33
  -2  -1   3 1251.29   21.84
   2   1  -2  863.81   16.06
   2   1  -2  895.18   15.71
  -2  -1   2  968.20   17.53
   2   1  -1  730.36   13.63
  -2  -1   1  737.40   13.11
   2   1  -1  673.72   13.40
  -2  -1   1  716.77   13.17
  -2  -1   1  695.98   14.61
  -2  -1   0 1001.84   16.94
   2   1   0 1019.66   17.73
  -2  -1   0 1008.65   17.13
   2   1   0  983.76   17.32
  -2  -1   0 1063.06   18.40
   2   1   1  556.10   16.15
  -2  -1  -1  569.59   16.09
   2   1   1  629.83   26.17
  -2  -1  -1  511.98   13.49
   2   1   1  520.45   13.82
  -2  -1  -2  319.61   10.12
  -2  -1  -2  310.76    9.00
   2   1   2  316.58    9.06
   2   1   3 3355.60   64.86
  -2  -1  -3 3395.78   59.90
  -2  -1  -3 3476.44   57.36
   2   1   4    5.43    4.28
  -2  -1  -4    4.02    3.89
  -2  -1  -4    5.48    0.78
   2   1   5 1682.89   39.87
  -2  -1  -5 1952.86   38.07
   2   1   6  125.62   11.09
  -2  -1  -6  136.63   10.96
   2   1   7  305.20   13.14
  -2  -1  -7  286.22   10.20
   2   1   8   86.98   10.16
  -2  -1  -8   92.42    8.26
   2   1   9    6.12    6.36
  -2  -1  -9    3.65    2.73
   2   1  10   61.98   27.38
  -2  -1 -10   48.64    9.60
  -2  -1 -11   22.68   12.44
  -2  -1 -12   24.46   16.04
  -2  -1 -12   19.11    9.39
  -2  -1 -13    3.96    7.77
  -2  -1 -13    0.85    5.57
  -2  -1 -14    7.34    5.26
  -2  -1 -14   10.96    7.68
   2   2 -15    2.92    6.01
   2   2 -15    7.88   10.38
   2   2 -14    1.37    3.86
   2   2 -14    2.29    4.28
   2   2 -13   69.27    8.11
   2   2 -13   82.16    9.59
  -2  -2  13   72.44   10.52
   2   2 -12  523.01   25.40
   2   2 -12  534.77   19.66
  -2  -2  12  506.37   17.44
   2   2 -11  255.55   19.07
   2   2 -11  253.95   14.77
  -2  -2  11  260.39   16.35
   2   2 -10   55.27    4.99
   2   2 -10   68.57    6.85
  -2  -2  10   52.80    5.50
   2   2  -9  183.29   10.13
   2   2  -9  177.36   10.51
  -2  -2   9  207.06   13.15
   2   2  -8  123.58    7.57
   2   2  -8  129.84    7.44
  -2  -2   8  108.47   14.09
   2   2  -7  137.87    8.27
   2   2  -7  153.51    9.41
  -2  -2   7  134.45    8.88
   2   2  -6  201.75    8.96
   2   2  -6  209.02   10.69
  -2  -2   6  192.19   10.18
   2   2  -5   62.50    5.32
   2   2  -5   60.41    4.95
  -2  -2   5   62.46    5.63
   2   2  -4  158.11    7.98
  -2  -2   4  177.79    8.23
   2   2  -4  145.93    8.62
  -2  -2   4  175.45   10.07
   2   2  -3    0.70    1.39
  -2  -2   3    0.43    1.01
   2   2  -3   -0.55    2.65
  -2  -2   3   -0.78    4.64
   2   2  -2   13.59    2.12
  -2  -2   2   13.35    1.66
   2   2  -2   19.79   10.19
  -2  -2   2   17.17    6.41
   2   2  -1  475.43   13.36
  -2  -2   1  477.19   13.49
   2   2  -1  497.01   14.76
  -2  -2   1  477.22   14.24
  -2  -2   0 2973.76   43.90
   2   2   0 3044.35   47.61
  -2  -2   0 3045.30   45.37
   2   2   1  130.91    6.56
   2   2   1  112.54    5.48
  -2  -2  -1  133.73    5.68
   2   2   2    5.55    3.77
  -2  -2  -2   33.39   11.73
  -2  -2  -2    6.86    3.23
   2   2   3   63.61    5.22
  -2  -2  -3   80.65    7.03
  -2  -2  -3   64.09    4.05
  -2  -2  -3   62.50    3.87
   2   2   4  687.48   17.84
  -2  -2  -4  652.11   17.76
  -2  -2  -4  620.18   13.10
  -2  -2  -4  618.12   13.37
   2   2   5    0.54    1.95
  -2  -2  -5    1.10    3.96
   2   2   6  650.45   30.26
  -2  -2  -6  653.25   27.77
   2   2   7   13.83    8.39
  -2  -2  -7    6.25    7.96
   2   2   8  145.14   23.52
  -2  -2  -8  126.14    8.26
   2   2   9  181.71   16.32
  -2  -2  -9  180.75   10.29
   2   2  10  156.46   18.16
  -2  -2 -10  145.10   12.06
  -2  -2 -11   25.45   18.31
  -2  -2 -11   19.04   12.40
  -2  -2 -12   55.08   38.57
  -2  -2 -12   63.87    8.92
  -2  -2 -13   27.70   18.97
  -2  -2 -13   14.01   14.02
   2   3 -15   98.06    9.33
   2   3 -15  125.15   10.45
   2   3 -14    4.53    8.39
   2   3 -14   -3.51    7.63
  -2  -3  14    3.78    4.73
   2   3 -13    4.35    7.33
   2   3 -13    6.51    8.96
  -2  -3  13    2.67    2.98
   2   3 -12   65.57    8.26
   2   3 -12   62.42    7.37
  -2  -3  12   71.85    8.08
   2   3 -11    1.28    4.27
   2   3 -11    2.84    3.68
  -2  -3  11    3.52    4.74
   2   3 -10    3.62    2.78
   2   3 -10    6.94    4.39
  -2  -3  10    7.92    7.88
   2   3  -9    9.16    3.95
   2   3  -9   12.60    5.77
  -2  -3   9    9.69    5.98
   2   3  -8  836.32   14.76
   2   3  -8  843.08   19.82
  -2  -3   8  752.86   17.87
   2   3  -7  517.48   21.90
   2   3  -7  529.27   22.33
  -2  -3   7  496.42   23.45
   2   3  -6  103.58    5.82
   2   3  -6   96.59    8.58
  -2  -3   6  126.32    9.12
   2   3  -5  354.28   14.95
  -2  -3   5  352.34   12.78
   2   3  -5  354.41   16.63
  -2  -3   5  355.66   16.02
   2   3  -4 1927.43   36.85
  -2  -3   4 2138.24   37.47
   2   3  -4 2154.18   45.29
  -2  -3   4 2066.45   46.72
   2   3  -3 1003.75   20.62
  -2  -3   3 1133.86   21.12
   2   3  -3 1078.71   23.80
  -2  -3   3 1118.92   25.67
   2   3  -2  149.00    8.96
  -2  -3   2  159.46    7.86
   2   3  -2  167.30    9.61
  -2  -3   2  176.37   11.20
   2   3  -1 2165.68   40.01
  -2  -3   1 2431.57   42.36
   2   3  -1 2258.86   44.44
  -2  -3   1 2431.84   51.64
   2   3   0  156.60    8.63
   2   3   0  147.67    8.31
  -2  -3   0  143.72    8.08
   2   3   1 1953.12   36.20
   2   3   1 2073.34   42.15
  -2  -3  -1 2103.42   42.57
   2   3   2  241.86   11.95
   2   3   2  247.43   10.69
  -2  -3  -2  251.92   10.60
   2   3   3    6.83    3.86
  -2  -3  -3    7.92    3.11
  -2  -3  -3   11.21    6.09
  -2  -3  -3    8.84    2.18
   2   3   4   62.57    5.76
  -2  -3  -4   65.84    5.44
  -2  -3  -4   58.14    3.08
  -2  -3  -4   65.57    9.15
   2   3   5    2.00    3.08
  -2  -3  -5   -0.50    4.15
  -2  -3  -5    8.84    1.24
  -2  -3  -5    2.01    1.89
   2   3   6   78.54    7.79
  -2  -3  -6   88.50    6.85
  -2  -3  -6   72.88    2.85
  -2  -3  -6   83.57    3.36
   2   3   7    4.22    4.49
  -2  -3  -7    0.93    4.66
   2   3   8   12.21    7.17
  -2  -3  -8    5.86    7.87
   2   3   9  879.90   60.91
  -2  -3  -9  805.73   49.74
  -2  -3 -10   25.37   12.01
  -2  -3 -11  164.32   15.44
  -2  -3 -11  192.02   16.55
  -2  -3 -12    5.79   10.63
  -2  -3 -12    3.20    4.24
  -2  -3 -13   14.54    8.16
  -2  -3 -13    7.71   11.45
   2   4 -15    2.03    2.79
   2   4 -15   -2.97    6.17
   2   4 -14    2.85    5.38
   2   4 -14    2.00    4.74
  -2  -4  14    5.09    5.45
   2   4 -13    2.85    2.11
   2   4 -13    1.73    7.39
  -2  -4  13    5.46    6.69
   2   4 -12  192.38   14.53
   2   4 -12  189.34   14.81
  -2  -4  12  185.61   14.82
   2   4 -11   29.94   15.28
   2   4 -11   27.51   15.11
  -2  -4  11   29.07   14.76
   2   4 -10   13.01   11.03
   2   4 -10   22.23    8.90
  -2  -4  10   14.86    8.74
   2   4  -9   12.57    2.62
   2   4  -9   16.61    8.72
  -2  -4   9   13.90    5.16
   2   4  -8  462.11   13.31
   2   4  -8  445.71   15.96
  -2  -4   8  443.77   19.41
   2   4  -7   35.47    3.28
   2   4  -7   38.42   20.26
  -2  -4   7   47.92   22.65
   2   4  -6  316.06   13.22
   2   4  -6  359.34   17.34
  -2  -4   6  320.75   17.20
   2   4  -5  570.13   21.92
  -2  -4   5  570.58   20.70
   2   4  -5  623.28   26.06
  -2  -4   5  565.06   24.71
  -2  -4   4 3482.93   60.22
   2   4  -4 3486.07   68.85
  -2  -4   4 3581.43   82.36
   2   4  -3 5429.83   27.55
  -2  -4   3 5197.08   86.61
   2   4  -3 5221.10  107.85
   2   4  -2 4034.78   68.69
  -2  -4   2 4018.85   70.95
  -2  -4   2 3877.51   91.58
   2   4  -1 1834.72   37.91
  -2  -4   1 1763.19   35.77
   2   4  -1 2021.34   39.74
  -2  -4   1 1906.80   39.38
   2   4   0  560.03   17.33
   2   4   0  594.59   16.10
  -2  -4   0  617.27   17.20
   2   4   1   58.28    4.68
   2   4   1   60.06   10.22
  -2  -4  -1   56.02    5.55
   2   4   2  407.90   19.65
   2   4   2  387.23   16.75
  -2  -4  -2  387.64   17.39
   2   4   3   10.74    4.69
  -2  -4  -3   11.94    7.07
  -2  -4  -3    8.03    5.48
   2   4   4    8.56    4.49
  -2  -4  -4   10.82    4.95
  -2  -4  -4    5.38    4.68
   2   4   5   35.72   15.65
  -2  -4  -5   29.50   14.87
  -2  -4  -5   31.94    3.22
   2   4   6  704.32   40.21
  -2  -4  -6  650.74   34.13
  -2  -4  -6  638.93   28.88
   2   4   7  368.98   25.36
  -2  -4  -7  361.67   38.28
   2   4   8   27.35   16.69
  -2  -4  -8   19.39   13.44
  -2  -4  -9   65.35    8.15
  -2  -4 -10   40.52   28.06
  -2  -4 -10   44.97   21.12
  -2  -4 -11    3.41    8.47
  -2  -4 -11    5.86    5.73
  -2  -4 -12    3.78    4.77
  -2  -4 -12    1.45    2.84
   2   5 -15   24.45   19.79
  -2  -5  15   19.39   20.46
   2   5 -14   -3.15    7.12
  -2  -5  14    1.27    7.78
   2   5 -13   10.58    9.71
  -2  -5  13    4.78    7.67
   2   5 -12   17.43   13.20
   2   5 -12   16.72   13.26
  -2  -5  12   17.96    9.66
   2   5 -11   44.82    5.70
   2   5 -11   40.10   19.12
  -2  -5  11   36.11   23.53
   2   5 -10    0.64    3.12
   2   5 -10    5.02    5.25
  -2  -5  10    7.39    6.84
   2   5  -9   41.92    5.21
   2   5  -9   43.79   21.77
  -2  -5   9   40.34   25.74
   2   5  -8    0.80    1.93
   2   5  -8   -7.68    6.33
  -2  -5   8   -4.84    8.59
   2   5  -7 2332.64   33.33
   2   5  -7 2386.87   53.76
  -2  -5   7 2473.04   91.20
   2   5  -6  104.89    5.33
   2   5  -6  118.71   26.32
  -2  -5   6   94.36   11.47
   2   5  -5  123.03    8.04
  -2  -5   5  130.92    5.58
   2   5  -5  127.72    9.02
  -2  -5   5  135.26   12.57
   2   5  -4   62.80    3.80
  -2  -5   4   61.85    3.29
   2   5  -4   59.48    6.15
  -2  -5   4   58.14    7.18
   2   5  -3  385.28   15.10
  -2  -5   3  382.35   14.39
   2   5  -3  386.94   18.06
  -2  -5   3  389.50   19.22
   2   5  -2 1096.20   40.70
  -2  -5   2 1155.46   40.37
   2   5  -2 1219.44   47.97
  -2  -5   2 1171.68   50.95
   2   5  -1  323.27   16.00
   2   5  -1  330.86   15.33
  -2  -5   1  346.06   18.70
   2   5   0    0.59    1.67
   2   5   0    1.35    3.14
  -2  -5   0    2.55    2.56
   2   5   1    5.85    2.59
   2   5   1    6.80    4.86
  -2  -5  -1    6.01    3.43
   2   5   2  127.07   10.03
   2   5   2  146.37    9.69
  -2  -5  -2  159.38   12.74
   2   5   3   43.07   20.47
  -2  -5  -3   25.59   15.86
  -2  -5  -3   25.97   12.80
   2   5   4 1004.75   49.11
  -2  -5  -4 1030.72   47.76
  -2  -5  -4  895.59   49.18
   2   5   5  302.05   14.80
  -2  -5  -5  294.85   13.60
  -2  -5  -5  286.08   14.20
   2   5   6  118.79    9.89
  -2  -5  -6  104.73    8.34
  -2  -5  -7  197.34   12.35
  -2  -5  -8   13.95   10.65
  -2  -5  -8   10.50    8.49
  -2  -5  -9   26.51   20.82
  -2  -5  -9   24.08   16.46
  -2  -5 -10   34.25   17.38
  -2  -5 -10   20.47   18.50
  -2  -5 -11   26.19   18.33
   2   6 -14   84.98   21.16
  -2  -6  14   90.44   15.74
   2   6 -13   40.40   18.40
  -2  -6  13   30.31   29.63
   2   6 -12  199.44   15.77
  -2  -6  12  179.04   14.79
   2   6 -11  140.81   11.17
  -2  -6  11  173.19   13.76
   2   6 -10   12.41    6.26
  -2  -6  10    9.23   12.74
   2   6  -9   19.09   10.50
  -2  -6   9   14.83    9.35
   2   6  -8   11.40    6.13
  -2  -6   8   15.03    8.69
   2   6  -7  687.24   20.37
  -2  -6   7  713.02   22.34
   2   6  -6  635.28   33.29
  -2  -6   6  595.18   33.13
   2   6  -5   91.15    8.22
  -2  -6   5  101.37   10.90
   2   6  -4 1763.69   32.98
  -2  -6   4 1524.70   41.07
   2   6  -3 1005.08   28.72
  -2  -6   3 1036.32   24.30
   2   6  -2  149.36    6.92
   2   6  -2  146.71    9.41
  -2  -6   2  146.80   11.43
   2   6  -1   74.36    5.31
   2   6  -1   81.06   12.67
  -2  -6   1   57.19    7.14
   2   6   0  431.37   14.85
   2   6   0  430.23   13.56
  -2  -6   0  372.39   16.45
   2   6   1  441.99   23.50
   2   6   1  433.48   23.27
  -2  -6  -1  400.28   24.68
   2   6   2  110.67    8.56
   2   6   2  103.81    7.78
  -2  -6  -2   93.51    7.84
   2   6   3   26.66   18.66
  -2  -6  -3   22.54   11.51
  -2  -6  -3   30.08   15.27
   2   6   4   25.64   10.28
  -2  -6  -4   21.02    7.59
  -2  -6  -4   18.00    8.58
  -2  -6  -5  288.00   15.75
  -2  -6  -5  285.47   16.18
  -2  -6  -6    3.17    6.60
  -2  -6  -6    2.73    3.76
  -2  -6  -7    6.35    5.44
  -2  -6  -7    6.47    6.57
  -2  -6  -8    4.72    7.26
  -2  -6  -8    7.98    8.84
  -2  -6  -9   19.71   10.35
  -2  -6 -10   10.20    6.13
   2   7 -13    2.35    4.83
  -2  -7  13    3.25    5.00
   2   7 -12    8.10    6.66
  -2  -7  12   12.22    8.01
   2   7 -11   58.60    8.62
  -2  -7  11   48.11   30.65
   2   7 -10   12.51    8.30
  -2  -7  10    9.19    8.78
   2   7  -9    2.59    3.86
  -2  -7   9   -0.64    7.00
   2   7  -8   36.00   23.91
  -2  -7   8   44.62   23.28
   2   7  -7   -6.39    6.08
  -2  -7   7    3.11    6.19
   2   7  -6  194.25   14.96
  -2  -7   6  174.64   16.91
   2   7  -5   23.26   12.48
  -2  -7   5   21.69   18.61
   2   7  -4   74.92   16.33
  -2  -7   4   56.57    9.21
   2   7  -3  677.56   29.17
  -2  -7   3  679.22   32.68
   2   7  -2   15.51    8.80
  -2  -7   2   14.45   16.32
  -2  -7   1  137.05    5.54
   2   7  -1  157.77   10.39
  -2  -7   1  144.79   12.32
   2   7   0  633.95   27.96
  -2  -7   0  606.47   33.44
  -2  -7  -1  258.23   15.22
   2   7   1  282.31   21.80
  -2  -7  -1  265.96   18.94
  -2  -7  -2  187.02   11.94
   2   7   2  179.81   12.82
  -2  -7  -2  159.40   12.46
  -2  -7  -3   96.86    8.94
  -2  -7  -3   96.68    7.66
  -2  -7  -3  100.97   20.42
  -2  -7  -4   17.93   12.38
  -2  -7  -4   15.16    7.77
  -2  -7  -4   16.50    7.15
  -2  -7  -5   66.65    9.50
  -2  -7  -5   66.66    8.85
  -2  -7  -6   -2.06    4.68
  -2  -7  -6    5.11    3.63
  -2  -7  -7   77.06   11.24
  -2  -7  -8    8.41    4.12
   2   8 -12   15.04    8.98
  -2  -8  12   18.67   12.52
   2   8 -11  117.65   11.73
  -2  -8  11  111.31   15.30
   2   8 -10    5.79    7.37
  -2  -8  10    0.75    6.88
   2   8  -9    6.88    9.01
  -2  -8   9   14.63   10.02
   2   8  -8   15.83    7.22
  -2  -8   8   16.74   11.91
   2   8  -7   39.01   20.72
  -2  -8   7   45.93   23.38
   2   8  -6   13.02    6.40
  -2  -8   6   15.86    8.25
   2   8  -5    2.86    3.65
  -2  -8   5    7.04   13.57
   2   8  -4  138.78   20.91
  -2  -8   4  131.02   13.15
   2   8  -3  292.03   17.85
  -2  -8   3  283.09   17.33
   2   8  -2   84.02   14.42
  -2  -8   2   92.57   12.02
   2   8  -1  122.14    9.20
  -2  -8   1  125.90   14.32
   2   8   0   17.03    8.54
  -2  -8   0   15.95    8.95
   2   8   1    8.29    4.42
  -2  -8  -1    5.87    4.52
   2   8   2   15.09    7.72
  -2  -8  -2   10.47    9.65
  -2  -8  -3    1.12    3.22
  -2  -8  -3    1.07    3.26
  -2  -8  -3    2.85    3.16
  -2  -8  -4    2.56    4.05
  -2  -8  -4    1.66    4.21
  -2  -8  -4    1.97    2.14
  -2  -8  -5  122.08    9.01
  -2  -8  -6   15.07    9.62
  -2  -8  -7   65.69    9.99
   2   9 -10  150.76   20.10
  -2  -9  10  138.20   18.96
   2   9  -9    8.65    8.51
  -2  -9   9    2.59    4.62
   2   9  -8   34.71   29.07
  -2  -9   8   28.01   18.17
   2   9  -7   31.63   23.02
  -2  -9   7   28.40   11.33
   2   9  -6   82.78   13.42
  -2  -9   6   85.46   24.54
   2   9  -5    4.48    4.45
  -2  -9   5    8.54    9.96
   2   9  -4    7.29    4.82
  -2  -9   4    5.48    7.29
   2   9  -3    8.76    5.38
  -2  -9   3    5.18    3.55
   2   9  -2    2.36    3.33
  -2  -9   2    3.07    6.09
   2   9  -1    1.70    3.39
  -2  -9   1    3.53    7.41
   2   9   0    7.41    4.75
  -2  -9   0    8.67    8.76
   2   9   1   31.28   19.32
  -2  -9  -1   30.76   13.17
   2   9   2   88.18    8.70
  -2  -9  -3   22.98   20.89
   2  10  -7   83.45   11.82
  -2 -10   7   87.65   24.73
   2  10  -6   16.85   25.50
  -2 -10   6   19.31   10.91
   2  10  -5    4.05    5.26
  -2 -10   5    4.24    4.00
   2  10  -4   11.76   10.16
  -2 -10   4    3.57    6.71
   2  10  -3    2.56    3.81
  -2 -10   3    4.06    4.26
   2  10  -2    9.40   11.72
  -2 -10   2    8.69   11.99
   2  10  -1    5.02    4.00
  -2 -10   1    5.56    9.33
  -2 -10   0    6.99    9.06
  -2 -10  -1    5.83    5.19
  -3  10   4   17.82    7.14
  -3  10   3    2.26    3.89
  -3  10   2   23.19   12.32
  -3  10   1    1.79    2.32
  -3  10   0  172.63   32.78
  -3  10  -1   49.05   41.44
  -3  10  -2   15.64   12.80
  -3  10  -3   42.50   20.87
  -3  10  -4  348.72   21.92
  -3  10  -5  355.28   15.24
  -3  10  -5  419.26   22.10
  -3  10  -6  167.05   12.10
  -3  10  -6  189.38   34.16
  -3  10  -7  100.41    9.85
  -3  10  -7   71.79   38.13
  -3  10  -8   10.91   10.24
  -3  10  -8   15.85    9.09
  -3   9   6   -2.27    5.49
  -3   9   5    4.07    7.01
  -3   9   4    2.56    2.09
  -3   9   3    1.18    2.95
  -3   9   2  114.04   39.22
  -3   9   1    9.58    7.27
  -3   9   0   17.67   12.50
  -3   9  -1  337.53   24.56
  -3   9  -2  205.58   21.04
  -3   9  -3   75.17    6.24
  -3   9  -3   50.34   11.36
  -3   9  -4  258.51   11.24
  -3   9  -4  285.06   17.35
  -3   9  -5  288.40   20.28
  -3   9  -5  345.84   27.71
  -3   9  -6  185.81   15.15
  -3   9  -6  173.86   16.67
  -3   9  -7   46.05   20.20
  -3   9  -7   50.99   29.32
  -3   9  -8  104.00    9.65
  -3   9  -8   75.44   36.73
  -3   9  -9  107.63   10.42
  -3   9  -9   97.01   11.20
  -3   9 -10    8.37    6.83
  -3   9 -10    4.01    6.34
   3  -8  -8   71.80   29.14
   3  -8  -7   14.87   16.33
  -3   8   7   25.22   22.42
   3  -8  -6  125.21   10.67
  -3   8   6  145.23   11.57
   3  -8  -5   71.13   10.31
  -3   8   5   63.53    8.56
   3  -8  -4   51.01    7.12
  -3   8   4   59.37    7.38
   3  -8  -3  492.98   17.38
  -3   8   3  523.27   34.42
   3  -8  -2  140.69   10.34
  -3   8   2  147.46   11.90
   3  -8  -1    6.75    5.35
  -3   8   1   10.17    8.64
   3  -8   0    9.34    5.44
  -3   8   0   12.49    5.10
  -3   8  -1    0.82    1.75
  -3   8  -1    1.07    3.85
  -3   8  -2   25.79   13.32
  -3   8  -2   26.35   17.33
  -3   8  -3  156.15    8.21
  -3   8  -3  176.90   12.79
  -3   8  -4  401.69   17.06
  -3   8  -4  360.78   17.96
  -3   8  -5   12.13    5.91
  -3   8  -5   13.46   11.06
  -3   8  -6    3.68    4.81
  -3   8  -6    9.11    5.45
  -3   8  -7  158.14   13.03
  -3   8  -7  125.42   12.14
  -3   8  -8  213.62   12.20
  -3   8  -8  188.57   29.72
  -3   8  -9  128.12   11.93
  -3   8  -9   88.26   36.35
  -3   8 -10   -2.71    6.31
  -3   8 -10    4.73    6.68
  -3   8 -11   11.44    6.09
  -3   8 -11   14.36   11.60
   3  -7 -10    6.28    6.33
   3  -7  -9    4.70    6.18
   3  -7  -8   16.54   11.48
  -3   7   8   12.68   11.17
   3  -7  -7   21.94   16.73
  -3   7   7   19.04   18.00
   3  -7  -6   48.53    8.13
  -3   7   6   52.81    7.54
   3  -7  -5    5.07    5.58
  -3   7   5    3.01    5.94
   3  -7  -4  191.81   23.29
  -3   7   4  173.84   14.04
   3  -7  -3    0.88    4.70
  -3   7   3    2.44    4.29
   3  -7  -2  213.68   10.68
  -3   7   2  214.91   10.66
   3  -7  -1    5.66    4.93
  -3   7   1    0.26    1.08
  -3   7   1    5.56    7.27
   3  -7   0   45.42    3.95
  -3   7   0   54.70    3.69
  -3   7   0   57.46    7.71
   3  -7   1   33.22    7.50
  -3   7  -1   35.27    3.07
  -3   7  -1   35.26   23.27
   3  -7   2   74.94    4.30
  -3   7  -2   78.88    5.03
  -3   7  -2   66.41    7.34
   3  -7   3  279.17    8.70
  -3   7  -3  328.27   10.73
  -3   7  -3  306.99   13.96
   3  -7   4    3.83    4.32
  -3   7  -4    5.34    3.82
  -3   7  -4    8.33   13.52
  -3   7  -5  206.28   10.54
  -3   7  -5  183.55   13.08
  -3   7  -6    7.07    6.41
  -3   7  -6    7.20    6.60
  -3   7  -7   15.13    7.96
  -3   7  -7   20.12   10.76
  -3   7  -8  389.95   15.91
  -3   7  -8  421.67   18.24
  -3   7  -9  105.95    9.31
  -3   7  -9  101.25   30.24
  -3   7 -10  359.18   25.99
  -3   7 -10  304.90   22.80
  -3   7 -11  142.10   11.92
  -3   7 -11  159.55   17.19
  -3   7 -12    1.82    5.93
  -3   7 -12   -0.80    4.05
   3  -6 -11   25.95   18.71
   3  -6 -10   48.01   14.84
   3  -6  -9    8.75    6.12
  -3   6   9    6.15    3.27
   3  -6  -8    2.65    5.42
  -3   6   8    4.83    3.20
   3  -6  -7  105.72   12.26
  -3   6   7  100.95    7.56
   3  -6  -6  187.96   19.84
  -3   6   6  173.68   13.30
   3  -6  -5    1.47    3.38
  -3   6   5    2.59    5.46
   3  -6  -4   14.56    3.81
  -3   6   4   12.12    4.74
   3  -6  -3  236.27   13.87
  -3   6   3  215.61    9.97
   3  -6  -2  128.32    8.47
  -3   6   2  124.16   12.52
   3  -6  -1   56.98    6.44
  -3   6   1   55.67    4.50
   3  -6  -1   50.20    2.70
  -3   6   1   65.41   28.44
   3  -6   0  642.76   17.45
  -3   6   0  642.44   13.17
  -3   6   0  641.28   18.46
   3  -6   1   99.29    6.08
  -3   6  -1   97.48    5.87
  -3   6  -1  104.22    8.21
   3  -6   2   36.11    4.06
  -3   6  -2   37.46    4.33
  -3   6  -2   30.27   13.85
   3  -6   3   14.29    6.37
  -3   6  -3   12.01    5.97
  -3   6  -3   17.52    9.46
   3  -6   4  504.74   13.17
  -3   6  -4  523.07   21.18
  -3   6  -4  499.13   18.99
   3  -6   5  327.05   19.34
  -3   6  -5  349.03   19.01
  -3   6  -5  342.66   19.12
   3  -6   6  265.25    8.17
  -3   6  -6  276.78   10.62
  -3   6  -6  269.56   16.21
   3  -6   7   48.08    6.94
  -3   6  -7   43.22    5.59
  -3   6  -7   52.75   17.92
   3  -6   8    9.17    6.47
  -3   6  -8    0.61    3.56
  -3   6  -8    1.67    3.99
   3  -6   9  113.82    6.60
  -3   6  -9  105.83    8.86
  -3   6  -9  109.92   10.42
   3  -6  10    7.75    5.53
  -3   6 -10   13.56    4.90
  -3   6 -10    3.10    2.97
  -3   6 -11   70.33   31.17
  -3   6 -11   76.24   17.15
  -3   6 -12   -3.82    6.25
  -3   6 -12   -1.19    4.20
  -3   6 -13    0.89    4.86
   3  -5 -12   17.74   18.34
   3  -5 -11    7.42   10.98
   3  -5 -10    3.87    6.41
   3  -5  -9   12.50    5.15
  -3   5   9   13.39    9.07
   3  -5  -8   38.62   23.22
  -3   5   8   44.24    7.86
   3  -5  -7  185.63   11.16
  -3   5   7  202.04    9.64
   3  -5  -6  287.15   18.51
  -3   5   6  283.57   12.49
   3  -5  -5  192.14   10.27
  -3   5   5  223.10   11.15
   3  -5  -4  450.35   13.84
  -3   5   4  436.03   15.47
   3  -5  -3   40.44    4.53
  -3   5   3   31.66   18.96
   3  -5  -2   46.70    5.42
  -3   5   2   50.50    5.68
   3  -5  -1   75.89    6.03
  -3   5   1   68.26    2.49
   3  -5  -1   60.03    4.46
  -3   5   1   57.38    6.01
   3  -5   0   78.52    4.94
  -3   5   0   63.77    4.50
   3  -5   0   66.88    3.14
  -3   5   0   64.24    6.64
   3  -5   1 1446.34   55.84
  -3   5  -1 1413.31   51.63
  -3   5  -1 1446.77   58.25
   3  -5   2  641.32   26.57
  -3   5  -2  628.82   25.68
  -3   5  -2  617.04   30.97
   3  -5   3 1500.58   54.10
  -3   5  -3 1724.11   61.49
  -3   5  -3 1506.59   57.33
   3  -5   4  307.82   10.88
  -3   5  -4  299.40   10.64
  -3   5  -4  311.43   11.80
   3  -5   5   10.22    5.10
  -3   5  -5   13.39    6.64
  -3   5  -5    6.58    6.50
   3  -5   6  178.35   10.48
  -3   5  -6  173.53    9.75
  -3   5  -6  175.85   13.14
   3  -5   7  551.59   28.73
  -3   5  -7  599.42   33.06
  -3   5  -7  611.84   29.43
   3  -5   8   34.87    4.23
  -3   5  -8   37.02   18.34
  -3   5  -8   39.75   21.33
   3  -5   9  105.15    8.81
  -3   5  -9  118.30    8.72
  -3   5  -9  120.17    8.53
   3  -5  10   39.03   16.39
  -3   5 -10   44.15   21.10
  -3   5 -10   48.16   16.37
   3  -5  11   67.32    7.50
  -3   5 -11   73.73    8.66
  -3   5 -11   73.71    7.71
  -3   5 -12    9.70    7.79
  -3   5 -13  221.77   16.30
  -3   5 -13  219.06   14.89
  -3   5 -14    4.08    5.30
  -3   5 -14    5.49    7.24
   3  -4 -13   50.77   14.96
   3  -4 -12   25.65   23.98
   3  -4 -11   21.52   14.14
   3  -4 -10    2.70    7.27
  -3   4  10    1.36    2.93
   3  -4  -9   69.96   10.29
  -3   4   9   85.80    7.29
   3  -4  -8  246.81   17.26
  -3   4   8  224.76   14.15
   3  -4  -7   26.81   12.83
  -3   4   7   23.38   10.89
   3  -4  -6   63.40   23.33
  -3   4   6   63.86   15.55
   3  -4  -5   27.94   16.21
  -3   4   5   30.68    5.17
   3  -4  -4  718.68   39.99
  -3   4   4  733.91   32.48
   3  -4  -3  468.06   21.62
  -3   4   3  447.41   19.60
   3  -4  -2   38.71   14.40
  -3   4   2   39.02   17.29
   3  -4  -1  291.85   12.18
  -3   4   1  266.29    9.23
   3  -4  -1  274.34    9.69
  -3   4   1  291.48   13.41
   3  -4   0   85.63    5.07
  -3   4   0   86.23    3.28
   3  -4   0   90.82    3.26
  -3   4   0   90.36    7.53
   3  -4   1   81.17    4.82
  -3   4  -1   85.17    3.70
  -3   4  -1   89.34   19.00
   3  -4   2    5.07    5.52
  -3   4  -2    4.89    4.08
  -3   4  -2    4.24    5.00
   3  -4   3   14.00    7.70
  -3   4  -3   28.18    4.55
  -3   4  -3   15.53    9.44
   3  -4   4 2841.92   38.09
  -3   4  -4 2713.80   47.51
   3  -4   5   32.30    4.36
  -3   4  -5   37.80   24.16
  -3   4  -5   33.28   17.32
   3  -4   6  531.50   13.58
  -3   4  -6  505.30   13.47
  -3   4  -6  528.92   16.73
   3  -4   7    4.23    6.22
  -3   4  -7    2.23    3.38
  -3   4  -7    1.72    3.32
   3  -4   8    3.28    3.30
  -3   4  -8   -3.76    5.92
  -3   4  -8    0.05    2.98
   3  -4   9   15.04    5.84
  -3   4  -9    5.49    4.09
  -3   4  -9   11.02    6.03
   3  -4  10    9.42    3.73
  -3   4 -10    5.57   10.43
  -3   4 -10    8.12    5.27
   3  -4  11   10.86    6.23
  -3   4 -11   10.68    7.51
  -3   4 -11    5.83    6.39
   3  -4  12   71.33    8.87
  -3   4 -12   63.90   31.82
  -3   4 -13   26.91   14.06
  -3   4 -14   28.48   23.53
  -3   4 -14   24.76   20.00
   3  -3 -14   35.40   11.47
   3  -3 -13    3.50    6.86
   3  -3 -12   14.35    8.71
   3  -3 -11    7.59    7.52
  -3   3  11   10.19    6.16
   3  -3 -10    2.60    5.04
  -3   3  10    4.53    4.37
   3  -3  -9   68.90    8.09
   3  -3  -9   65.62    3.66
  -3   3   9   74.43    6.85
   3  -3  -8  294.52   28.87
   3  -3  -8  270.59   14.77
  -3   3   8  299.97   18.33
   3  -3  -7 1934.34   32.44
   3  -3  -7 1864.52   29.82
  -3   3   7 2024.54   53.72
   3  -3  -6  939.96   22.51
   3  -3  -6  880.17   11.44
  -3   3   6  824.14    8.71
  -3   3   6  964.73   32.51
   3  -3  -5   19.55   10.79
  -3   3   5   17.53    0.80
  -3   3   5   23.42   12.36
   3  -3  -4  518.62   20.56
  -3   3   4  530.39   16.98
   3  -3  -3 1697.72   34.71
  -3   3   3 1641.87   38.79
   3  -3  -2  800.97   20.81
  -3   3   2  839.51   15.44
  -3   3   2  804.30   14.89
  -3   3   2  895.37   23.10
   3  -3  -1  148.87    8.60
  -3   3   1  133.34    6.14
  -3   3   1  142.60    6.49
  -3   3   1  143.85    9.30
   3  -3   0  433.98   12.21
  -3   3   0  428.27   18.10
   3  -3   0  450.15    7.26
  -3   3   0  435.23   10.60
   3  -3   1  214.97   11.63
  -3   3  -1  241.20   11.34
  -3   3  -1  226.48   11.41
   3  -3   2  544.10   16.14
  -3   3  -2  511.68   15.56
   3  -3   3  164.92    8.42
  -3   3  -3  172.05    9.00
  -3   3  -3  151.05    8.19
   3  -3   4   92.68    5.48
  -3   3  -4   79.82    4.84
  -3   3  -4   83.76    5.25
   3  -3   5  230.98   16.63
  -3   3  -5  245.51   12.25
  -3   3  -5  234.49   10.40
   3  -3   6  253.94   13.97
  -3   3  -6  219.14   12.16
  -3   3  -6  272.30   25.18
   3  -3   7  217.81   13.11
  -3   3  -7  221.43   12.19
  -3   3  -7  227.19   12.13
   3  -3   8  206.78   15.19
  -3   3  -8  197.33    9.77
  -3   3  -8  197.95    8.57
   3  -3   9  504.22   18.87
  -3   3  -9  520.38   15.92
  -3   3  -9  501.81   14.74
   3  -3  10   75.40   12.58
  -3   3 -10   75.18    7.96
  -3   3 -10   83.89    5.67
   3  -3  11    3.88    4.07
  -3   3 -11    7.37    6.34
   3  -3  12   25.42   30.25
  -3   3 -12   27.31   14.13
  -3   3 -13   72.24   12.63
  -3   3 -14   10.85    9.21
  -3   3 -14    7.32    5.32
   3  -2 -14   14.00    7.16
   3  -2 -13   33.49   19.50
   3  -2 -12  283.44   16.13
   3  -2 -11   21.83   15.65
   3  -2 -11   18.54   12.72
  -3   2  11   16.38   10.88
   3  -2 -10    7.55    7.02
   3  -2 -10    5.51    3.06
  -3   2  10    4.76    3.25
   3  -2  -9   62.53    6.63
   3  -2  -9   65.03    5.83
  -3   2   9   62.36    6.69
   3  -2  -8    4.31    4.63
   3  -2  -8    1.16    1.60
  -3   2   8    0.28    3.10
   3  -2  -7  187.49   13.07
   3  -2  -7  199.60   11.57
  -3   2   7  209.60   10.42
   3  -2  -6  297.14   19.84
   3  -2  -6  267.19   13.22
  -3   2   6  262.99   10.45
  -3   2   6  278.00   15.26
   3  -2  -5  322.16   17.50
   3  -2  -5  303.88   11.88
  -3   2   5  307.96   10.54
  -3   2   5  297.74   12.93
   3  -2  -4   44.65    6.48
   3  -2  -4   57.08    3.41
  -3   2   4   49.03    2.95
  -3   2   4   55.04   12.47
   3  -2  -3 4201.51   77.84
   3  -2  -3 4104.02   72.52
  -3   2   3 4081.25   65.93
  -3   2   3 4345.23   78.65
   3  -2  -2    2.16    5.20
  -3   2   2    1.80    1.20
  -3   2   2   -0.48    1.54
  -3   2   2    1.47    2.67
   3  -2  -1   37.60    3.92
  -3   2   1   31.42    2.27
  -3   2   1   41.88    3.00
  -3   2   1   36.20    3.81
   3  -2   0 1182.42   23.68
   3  -2   0 1120.16   21.45
  -3   2   0 1124.49   22.40
   3  -2   1  626.49   15.80
  -3   2  -1  687.96   16.00
  -3   2  -1  683.89   18.34
   3  -2   2 2706.66   49.90
  -3   2  -2 2657.01   53.42
  -3   2  -2 2476.06   48.62
   3  -2   3 1136.92   28.40
  -3   2  -3 1160.21   30.92
  -3   2  -3 1192.47   29.24
   3  -2   4   35.55    4.79
  -3   2  -4   28.39    3.51
  -3   2  -4   26.17    3.03
   3  -2   5  335.35   15.49
  -3   2  -5  295.44   13.57
  -3   2  -5  305.45   12.29
   3  -2   6  451.97   23.50
  -3   2  -6  449.03   22.48
  -3   2  -6  448.14   18.86
   3  -2   7  234.19   15.03
  -3   2  -7  245.82   13.24
  -3   2  -7  231.79   11.18
   3  -2   8 1523.65   39.80
  -3   2  -8 1543.68   39.96
  -3   2  -8 1397.21   31.14
   3  -2   9  887.18   28.47
  -3   2  -9  945.94   22.59
  -3   2  -9  922.54   15.14
   3  -2  10   82.82   29.11
  -3   2 -10   77.83    9.59
   3  -2  11   42.35   17.06
  -3   2 -11   33.11   22.67
   3  -2  12    4.72    5.18
  -3   2 -12    3.64    4.58
   3  -2  13    2.27    2.76
  -3   2 -13    4.04    4.44
  -3   2 -14    8.62    9.36
  -3   2 -14   13.74    6.80
   3  -1 -15    3.47    7.63
   3  -1 -14   37.01   13.63
   3  -1 -13   17.09    7.38
   3  -1 -13   12.14   14.35
   3  -1 -12  547.52   33.72
   3  -1 -12  592.01   15.28
  -3   1  12  558.84   31.28
   3  -1 -11  613.59   33.27
   3  -1 -11  661.99   33.47
  -3   1  11  603.46   33.02
   3  -1 -10   17.92   10.27
   3  -1 -10   19.43   13.28
  -3   1  10   20.76   11.98
   3  -1  -9  181.34   11.56
   3  -1  -9  186.30    7.85
  -3   1   9  183.21   10.90
   3  -1  -8    0.81    4.79
   3  -1  -8    0.00    3.11
  -3   1   8    2.17    4.51
   3  -1  -7  265.74   13.65
   3  -1  -7  275.62   12.27
  -3   1   7  270.50   13.66
   3  -1  -6  643.95   37.07
   3  -1  -6  581.94   15.11
  -3   1   6  600.02   16.62
   3  -1  -5   39.15   10.40
   3  -1  -5   44.93    3.28
  -3   1   5   45.70    2.45
  -3   1   5   42.42    4.44
   3  -1  -4 1932.27   37.29
   3  -1  -4 1766.17   34.63
  -3   1   4 1972.26   41.41
   3  -1  -3   28.37    4.15
   3  -1  -3   27.14    2.56
  -3   1   3   25.84    4.22
  -3   1   3   38.34    5.06
   3  -1  -2  596.38   19.05
   3  -1  -2  558.34   15.89
  -3   1   2  587.95   15.97
  -3   1   2  577.53   17.62
   3  -1  -1 1003.99   19.70
  -3   1   1 1045.25   17.75
  -3   1   1 1037.51   20.56
   3  -1   0 1978.55   32.87
  -3   1   0 1923.81   30.40
  -3   1   0 2027.46   32.27
  -3   1   0 1847.76   29.73
   3  -1   1 1228.32   22.22
  -3   1  -1 1226.72   22.11
  -3   1  -1 1175.98   20.93
   3  -1   2 4468.65   76.57
  -3   1  -2 4619.38   81.83
  -3   1  -2 4472.89   75.28
   3  -1   3 3786.23   66.80
  -3   1  -3 3709.34   71.86
  -3   1  -3 3742.14   64.60
   3  -1   4 1584.33   33.88
  -3   1  -4 1530.43   31.07
  -3   1  -4 1535.82   28.82
   3  -1   4 1498.00   28.75
   3  -1   5  922.77   25.52
  -3   1  -5  870.06   22.43
  -3   1  -5  921.28   19.24
   3  -1   5  893.04   18.89
   3  -1   6  101.85    7.28
  -3   1  -6  101.83    6.97
  -3   1  -6  105.03    4.27
   3  -1   6  103.88    3.71
   3  -1   7  155.52   12.65
  -3   1  -7  154.08   10.58
  -3   1  -7  163.29    7.87
   3  -1   7  166.36    7.04
   3  -1   8   19.90    6.20
  -3   1  -8   18.65    6.49
  -3   1  -8   19.88    1.79
   3  -1   9 1162.78   26.93
  -3   1  -9 1176.80   37.28
   3  -1  10  942.33   24.72
  -3   1 -10  817.76   48.76
   3  -1  11  131.22   19.63
  -3   1 -11  117.55    8.62
   3  -1  12    1.72    3.72
  -3   1 -12    0.58    4.29
   3  -1  13   25.58   25.61
  -3   1 -13   23.21   19.16
  -3   1 -14    2.88    3.56
  -3   1 -14    4.56    7.09
   3   0 -15   24.58   21.96
   3   0 -15   25.51   23.23
   3   0 -14    4.25    8.07
   3   0 -14    3.88    3.40
   3   0 -13   23.36   11.06
   3   0 -13   13.18    8.88
  -3   0  13   12.87    8.94
   3   0 -12   76.55    9.98
   3   0 -12   69.03    6.73
  -3   0  12   59.24   11.81
   3   0 -11   93.79    8.41
   3   0 -11   92.42    6.68
  -3   0  11  107.32    7.80
   3   0 -10  611.32   17.55
   3   0 -10  574.12   14.19
  -3   0  10  674.27   15.22
   3   0  -9   11.32    7.00
   3   0  -9   19.04   12.02
  -3   0   9   23.87   11.44
   3   0  -8  989.03   24.04
   3   0  -8  954.04   20.94
  -3   0   8  987.18   34.06
   3   0  -7  685.66   27.80
   3   0  -7  635.90   24.79
  -3   0   7  640.18   25.71
   3   0  -6   68.67    6.25
   3   0  -6   63.78    5.19
  -3   0   6   70.50    5.01
   3   0  -5  528.81   19.49
   3   0  -5  491.45   12.04
  -3   0   5  545.95   14.40
   3   0  -4  140.31    7.92
   3   0  -4  146.70    8.23
  -3   0   4  162.10    9.34
   3   0  -3 2298.79   47.18
   3   0  -3 2346.40   43.01
  -3   0   3 2373.74   44.59
   3   0  -2 3466.05   56.02
   3   0  -2 3515.20   55.81
  -3   0   2 3469.24   57.08
   3   0  -1 1140.65   21.94
   3   0  -1 1207.95   21.14
  -3   0   1 1096.13   19.21
   3   0   0    4.83    4.51
   3   0   0    6.70    5.65
   3   0   1    2.53    3.25
  -3   0  -1   -3.22    3.32
  -3   0  -1    3.80    3.28
   3   0   2    1.72    3.02
  -3   0  -2    4.49    4.50
   3   0   2    3.02    1.82
   3   0   3 1141.97   27.47
  -3   0  -3 1085.97   25.35
  -3   0  -3 1142.86   21.40
   3   0   3 1098.66   20.36
   3   0   4  433.88   20.90
  -3   0  -4  455.76   17.71
  -3   0  -4  441.29   15.35
   3   0   4  432.96   14.88
   3   0   5   70.78   18.68
  -3   0  -5   59.40    5.61
  -3   0  -5   61.93    5.30
   3   0   5   54.48    2.99
   3   0   6   24.04    7.12
  -3   0  -6   26.12   11.90
  -3   0  -6   24.05    2.02
   3   0   6   18.33    1.96
   3   0   7   62.52   27.57
  -3   0  -7   50.96    5.55
  -3   0  -7   44.98    1.84
   3   0   8  305.71   24.76
  -3   0  -8  344.39   21.18
   3   0   9   38.68   12.20
  -3   0  -9   38.97   18.61
   3   0  10  109.54   12.71
  -3   0 -10   96.91    9.58
   3   0  11    6.37    6.50
  -3   0 -11    3.58    3.79
   3   0  12    7.95    8.53
  -3   0 -12    1.39    4.47
  -3   0 -13   69.89    9.82
  -3   0 -14   17.78   24.13
  -3   0 -14   26.93   19.76
   3   1 -15   16.44   15.02
   3   1 -15   14.24   14.41
   3   1 -14   21.05   16.22
   3   1 -14   19.48   15.96
   3   1 -13    1.76    8.19
   3   1 -13    2.15    2.87
  -3  -1  13    2.82    5.73
   3   1 -12  155.79   10.92
   3   1 -12  164.63   11.00
  -3  -1  12  154.54    9.46
   3   1 -11    7.03    7.32
   3   1 -11    2.31    4.81
  -3  -1  11    4.11    4.53
   3   1 -10    8.72    6.03
   3   1 -10    9.64    5.95
  -3  -1  10    6.71    9.77
   3   1  -9    5.92    5.75
   3   1  -9   11.01    4.46
  -3  -1   9    4.70    5.40
   3   1  -8  492.71   13.82
   3   1  -8  450.25   19.07
  -3  -1   8  483.23   13.99
   3   1  -7 2125.80   76.90
   3   1  -7 2005.34   76.19
  -3  -1   7 2140.18   79.89
   3   1  -6  101.27    6.08
   3   1  -6  117.71    7.41
  -3  -1   6  115.15    7.24
   3   1  -5 1125.83   25.22
   3   1  -5 1215.65   28.99
  -3  -1   5 1194.97   32.56
   3   1  -4  726.06   17.09
   3   1  -4  653.95   15.43
  -3  -1   4  670.41   16.44
   3   1  -3   97.94    6.61
   3   1  -3  105.82    6.40
  -3  -1   3   99.59    6.71
   3   1  -2   12.39    7.37
   3   1  -2   12.67    4.69
  -3  -1   2   14.28    6.74
   3   1  -1  109.51    6.35
   3   1  -1   97.73    5.20
  -3  -1   1  100.14    5.25
   3   1   0    3.56    5.95
   3   1   0    3.13    1.54
  -3  -1   0    1.60    2.50
   3   1   1  419.08   19.76
   3   1   1  431.01   19.27
  -3  -1  -1  450.64    8.47
   3   1   2  874.61   21.48
  -3  -1  -2  853.31   19.36
  -3  -1  -2  869.48   17.42
   3   1   2  936.32   18.21
   3   1   3 1580.77   36.80
  -3  -1  -3 1489.07   35.00
   3   1   4  118.14   12.03
  -3  -1  -4  112.57    7.20
  -3  -1  -4  111.00    3.40
   3   1   4  104.75    4.92
   3   1   5   48.85    7.23
  -3  -1  -5   37.82    4.54
  -3  -1  -5   46.18    2.39
   3   1   6  442.76   17.77
  -3  -1  -6  409.88   12.14
  -3  -1  -6  428.01    3.30
  -3  -1  -6  411.89    3.14
   3   1   7  443.51   20.34
  -3  -1  -7  354.28   13.74
   3   1   8   34.39   11.31
  -3  -1  -8   32.38   13.97
   3   1   9   26.74   17.21
  -3  -1  -9   28.61   13.52
   3   1  10   56.05   23.35
  -3  -1 -10   50.58   22.84
   3   1  11  257.56   22.22
  -3  -1 -11  200.01   17.64
   3   1  12    5.81    6.57
  -3  -1 -12    4.15    5.62
  -3  -1 -13    1.86    3.87
   3   2 -15   13.24   14.47
   3   2 -15   18.02    9.17
   3   2 -14   66.27    7.47
   3   2 -14   71.59    8.52
  -3  -2  14   63.23    9.61
   3   2 -13   73.16    8.46
   3   2 -13   64.81    7.73
  -3  -2  13   58.12   31.57
   3   2 -12   -2.64    5.89
   3   2 -12    1.63    2.87
  -3  -2  12    3.51    4.26
   3   2 -11   72.33    7.93
   3   2 -11   59.60    7.30
  -3  -2  11   54.04    8.25
   3   2 -10  131.31   10.71
   3   2 -10  136.77    9.11
  -3  -2  10  122.58   12.10
   3   2  -9    2.65    4.18
   3   2  -9    5.93    5.55
  -3  -2   9   -2.43    6.10
   3   2  -8   16.97   15.43
   3   2  -8   14.61   11.22
  -3  -2   8   12.22    4.24
   3   2  -7   57.72    5.79
   3   2  -7   57.17    5.33
  -3  -2   7   66.39    7.09
   3   2  -6  599.60   21.94
   3   2  -6  619.03   17.27
  -3  -2   6  624.63   18.75
   3   2  -5  118.10    7.90
   3   2  -5  108.33    6.28
  -3  -2   5  111.16    7.41
   3   2  -4  863.14   21.28
   3   2  -4  835.76   20.63
  -3  -2   4  859.06   25.20
   3   2  -3   50.21    4.73
  -3  -2   3   51.82    6.73
   3   2  -2 1999.72   38.60
   3   2  -2 2057.72   38.78
  -3  -2   2 2140.19   41.52
   3   2  -1   32.80    3.66
   3   2  -1   31.66    3.83
  -3  -2   1   24.87    4.21
   3   2   0   39.08    3.88
   3   2   0   48.85    4.61
  -3  -2   0   45.40    5.37
   3   2   1  174.52    9.97
   3   2   1  163.54    9.23
  -3  -2  -1  164.52    9.70
   3   2   2  240.63   11.36
  -3  -2  -2  219.90   10.38
  -3  -2  -2  221.01    9.61
   3   2   3   38.10    4.97
  -3  -2  -3   45.08   18.72
  -3  -2  -3   32.15    2.84
   3   2   4  117.27    9.76
  -3  -2  -4   99.88   12.11
  -3  -2  -4  103.78    3.68
  -3  -2  -4  109.23    4.34
  -3  -2  -5  673.19   17.99
  -3  -2  -5  669.12   10.73
  -3  -2  -5  650.68    9.79
   3   2   6 1288.83   35.92
  -3  -2  -6 1193.47   30.72
   3   2   7  490.93   30.62
  -3  -2  -7  499.15   26.89
   3   2   8  665.35   35.01
  -3  -2  -8  621.20   31.59
   3   2   9  732.18   41.62
  -3  -2  -9  667.14   35.43
   3   2  10    4.07    3.96
  -3  -2 -10    5.19    5.06
   3   2  11   49.25   30.82
  -3  -2 -11   60.63    8.55
  -3  -2 -12  168.16   12.93
  -3  -2 -13   10.06   14.39
  -3  -2 -13   17.71   16.13
   3   3 -15   20.34   15.32
   3   3 -15   20.60   17.24
   3   3 -14   10.09    8.33
   3   3 -14    6.22    5.92
  -3  -3  14   12.87    9.15
   3   3 -13   17.21   19.07
   3   3 -13   15.78   12.15
  -3  -3  13   22.72    5.50
   3   3 -12    0.21    5.02
   3   3 -12    3.42    4.81
  -3  -3  12    3.46    2.35
   3   3 -11   18.01   14.24
   3   3 -11   15.41    5.63
  -3  -3  11   10.04    8.75
   3   3 -10   13.42    7.41
   3   3 -10   19.13   10.03
  -3  -3  10    8.00    7.04
   3   3  -9  772.36   38.41
   3   3  -9  740.44   37.72
  -3  -3   9  794.10   40.93
   3   3  -8  641.76   18.22
   3   3  -8  637.34   17.78
  -3  -3   8  640.27   18.55
   3   3  -7  109.78    7.28
   3   3  -7   90.07    7.33
  -3  -3   7   99.57    9.84
   3   3  -6    4.88    2.51
   3   3  -6    5.35    3.67
  -3  -3   6    3.40    4.40
   3   3  -5  186.67   10.00
   3   3  -5  204.49   10.95
  -3  -3   5  193.51   18.18
   3   3  -4    3.85    2.16
   3   3  -4    1.45    4.73
  -3  -3   4    0.75    6.64
   3   3  -3  828.31   20.30
   3   3  -3  761.85   19.50
  -3  -3   3  786.66   21.07
   3   3  -2 1377.61   30.26
   3   3  -2 1288.04   38.79
  -3  -3   2 1373.81   35.90
   3   3  -1   19.75    3.82
   3   3  -1   13.78    6.05
  -3  -3   1   19.21   11.84
   3   3   0    8.24    6.93
   3   3   0    6.70    4.42
  -3  -3   0    5.50    7.09
   3   3   1  810.60   26.47
   3   3   1  840.17   22.06
  -3  -3  -1  752.75   21.08
   3   3   2  835.06   26.61
   3   3   2  922.27   22.42
  -3  -3  -2  886.35   26.60
   3   3   3  696.89   33.28
  -3  -3  -3  697.30   27.52
  -3  -3  -3  673.67   25.15
   3   3   4   10.34   10.87
  -3  -3  -4   17.50    5.73
  -3  -3  -4   12.26    6.57
   3   3   5   87.54    9.35
  -3  -3  -5   83.00    7.21
  -3  -3  -5   73.68    4.70
  -3  -3  -5   77.47    7.90
   3   3   6   81.85   11.58
  -3  -3  -6   81.68    7.52
  -3  -3  -6   74.78    2.27
   3   3   7    2.26    4.16
  -3  -3  -7   -2.33    5.51
   3   3   8    4.14    3.77
  -3  -3  -8   -0.04    3.95
   3   3   9    6.97    6.95
  -3  -3  -9    0.90    4.85
   3   3  10   24.85   18.11
  -3  -3 -10   23.33   13.26
   3   3  11   33.61   18.89
  -3  -3 -11   26.99   16.79
  -3  -3 -12    3.91    5.79
  -3  -3 -12    3.24    4.59
   3   4 -15   33.58   14.40
   3   4 -15   26.51   18.19
  -3  -4  15   27.13   15.46
   3   4 -14  125.22   11.70
   3   4 -14  115.65   11.17
  -3  -4  14  111.20   13.40
   3   4 -13  156.68   12.56
   3   4 -13  145.36   13.12
  -3  -4  13  133.63   11.89
   3   4 -12   16.37    8.38
   3   4 -12   16.35   11.32
  -3  -4  12   16.68    8.10
   3   4 -11   51.44    5.16
   3   4 -11   60.63    8.73
  -3  -4  11   46.00   26.76
   3   4 -10    6.64    8.65
   3   4 -10   10.40    8.67
  -3  -4  10    6.74    7.41
   3   4  -9   -0.22    3.65
   3   4  -9    1.86    4.68
  -3  -4   9    3.91    5.06
   3   4  -8  131.65    7.06
   3   4  -8  124.69    9.46
  -3  -4   8  116.00   10.40
   3   4  -7    7.82    3.30
   3   4  -7    5.75    3.38
  -3  -4   7    4.00    4.80
   3   4  -6   72.96    5.64
   3   4  -6   78.23    7.66
  -3  -4   6   80.65   20.99
   3   4  -5   -0.06    2.37
   3   4  -5    0.63    3.31
  -3  -4   5    1.12    5.15
   3   4  -4  516.46   23.62
   3   4  -4  496.09   21.45
  -3  -4   4  489.05   23.50
   3   4  -3  139.41    6.05
   3   4  -3  140.71   12.31
  -3  -4   3  134.12    9.48
   3   4  -2   -0.49    3.17
   3   4  -2    3.03    4.54
  -3  -4   2   -2.31    7.10
   3   4  -1 1967.70   70.62
   3   4  -1 1781.75   68.56
  -3  -4   1 1875.33   68.64
   3   4   0   17.73   10.89
   3   4   0   15.59    7.46
  -3  -4   0   19.86   10.67
   3   4   1  173.22   12.39
   3   4   1  194.81   11.26
  -3  -4  -1  194.67   13.68
   3   4   2 1337.98   28.19
   3   4   2 1403.26   33.64
  -3  -4  -2 1344.42   24.75
   3   4   3  366.63   15.39
  -3  -4  -3  338.24   11.90
  -3  -4  -3  336.30   14.78
   3   4   4  235.14   16.37
  -3  -4  -4  233.35   29.23
  -3  -4  -4  206.89   13.21
   3   4   5  184.23   13.39
  -3  -4  -5  191.96    9.54
  -3  -4  -5  184.05    9.17
   3   4   6    0.57    4.35
  -3  -4  -6    1.13    5.98
   3   4   7  491.14   28.95
  -3  -4  -7  433.00   29.63
   3   4   8   51.92   35.84
  -3  -4  -8   66.70    9.38
   3   4   9    1.60    4.96
  -3  -4  -9    3.76    2.25
  -3  -4 -10   18.39   13.74
  -3  -4 -11    1.42    8.04
  -3  -4 -11    2.42    4.88
   3   5 -14    0.73    4.92
  -3  -5  14    1.21    5.59
   3   5 -13    1.24    5.38
  -3  -5  13    2.08    4.45
   3   5 -12    5.01    4.87
   3   5 -12    6.52    9.26
  -3  -5  12    6.27    4.98
   3   5 -11   11.41    7.60
   3   5 -11   12.23    9.89
  -3  -5  11   14.42    9.82
   3   5 -10  134.63    9.26
   3   5 -10  131.42   10.51
  -3  -5  10  129.75   16.06
   3   5  -9  234.07   16.38
   3   5  -9  251.06   23.13
  -3  -5   9  251.05   18.49
   3   5  -8  267.82   14.86
   3   5  -8  327.23   19.11
  -3  -5   8  285.68   28.80
   3   5  -7   18.19   11.05
   3   5  -7   15.54    6.24
  -3  -5   7    9.04    9.48
   3   5  -6 1537.51   64.18
   3   5  -6 1519.65   76.17
  -3  -5   6 1541.18   83.99
   3   5  -5  549.39   18.64
   3   5  -5  625.91   23.69
  -3  -5   5  641.63   23.90
   3   5  -4   46.96    4.49
   3   5  -4   42.56   26.88
  -3  -5   4   36.78   20.79
   3   5  -3  155.77    8.88
   3   5  -3  153.17   11.17
  -3  -5   3  158.23   13.50
   3   5  -2    6.36    3.58
   3   5  -2    6.44    5.44
  -3  -5   2   -3.28    7.01
   3   5  -1  161.84   11.03
   3   5  -1  178.77   11.29
  -3  -5   1  168.79   10.30
   3   5   0   99.74    8.12
   3   5   0   93.99    7.33
  -3  -5   0   91.56    8.67
   3   5   1    2.43    2.86
   3   5   1    3.70    2.26
  -3  -5  -1    2.38    3.77
   3   5   2  140.69   13.24
   3   5   2  141.98    8.47
  -3  -5  -2  140.44    8.24
   3   5   3  712.22   33.71
  -3  -5  -3  707.10   41.76
  -3  -5  -3  706.74   37.06
   3   5   4  776.62   26.44
  -3  -5  -4  763.84   19.95
  -3  -5  -4  738.84   30.37
   3   5   5   31.23   17.37
  -3  -5  -5   36.63   18.54
  -3  -5  -5   30.27    5.58
   3   5   6  314.81   19.58
  -3  -5  -6  303.55   19.30
   3   5   7    7.00    6.67
  -3  -5  -7   17.10    6.62
   3   5   8    8.34   10.75
  -3  -5  -8    7.00    4.34
  -3  -5  -9    1.10    4.50
  -3  -5 -10   69.98   12.80
  -3  -5 -10   44.52   10.14
   3   6 -14    7.55    7.38
  -3  -6  14   -2.41    7.43
   3   6 -13    5.93    5.45
  -3  -6  13    5.56    5.66
   3   6 -12   34.57   26.01
  -3  -6  12   39.07   16.97
   3   6 -11    8.97    9.78
  -3  -6  11    9.80   10.44
   3   6 -10   -2.58    7.08
  -3  -6  10   -1.16    8.30
   3   6  -9  366.02   17.14
  -3  -6   9  327.02   15.99
   3   6  -8  164.33   13.24
  -3  -6   8  165.24   14.54
   3   6  -7  134.96   11.92
  -3  -6   7  141.71   12.12
   3   6  -6    0.94    1.58
   3   6  -6   -3.37    8.98
  -3  -6   6   -7.03   10.12
   3   6  -5 3356.66   23.85
   3   6  -5 3100.45   58.73
  -3  -6   5 3340.44  110.86
   3   6  -4 2129.41   19.05
   3   6  -4 2156.76   65.08
  -3  -6   4 2210.11   49.51
   3   6  -3   70.84    5.27
   3   6  -3   76.54    9.24
  -3  -6   3   80.25    8.95
   3   6  -2   52.64    4.90
   3   6  -2   52.91   25.81
  -3  -6   2   61.63    9.17
   3   6  -1    2.76    3.19
   3   6  -1    1.56    2.33
  -3  -6   1    3.91    7.87
   3   6   0    1.73    1.85
   3   6   0   -1.24    3.55
  -3  -6   0    3.62    4.06
   3   6   1   43.39    4.60
   3   6   1   56.33    6.41
  -3  -6  -1   50.32    6.45
   3   6   2   16.02   10.78
   3   6   2   22.84   11.85
  -3  -6  -2   20.15    8.54
   3   6   3  413.42   25.87
  -3  -6  -3  389.66   25.73
  -3  -6  -3  428.65   23.75
   3   6   4    1.51    3.39
  -3  -6  -4    2.53    4.34
  -3  -6  -4    0.75    2.24
   3   6   5  134.29   20.93
  -3  -6  -5  121.55    9.57
   3   6   6  246.54   17.05
  -3  -6  -6  202.77   11.31
   3   6   7   17.12   10.68
  -3  -6  -7    8.35    5.00
  -3  -6  -8    3.45    3.25
  -3  -6  -8    4.97    5.19
  -3  -6  -9  100.18    9.59
   3   7 -13    7.49    8.54
  -3  -7  13   18.11   18.21
   3   7 -12   18.00   14.69
  -3  -7  12   20.72   17.58
   3   7 -11   -0.16    7.20
  -3  -7  11    3.70    6.90
   3   7 -10   15.59   14.24
  -3  -7  10   22.17   13.20
   3   7  -9  101.07   12.36
  -3  -7   9   82.30   10.25
   3   7  -8  125.45   11.90
  -3  -7   8  134.21   18.26
   3   7  -7   17.97   10.85
  -3  -7   7   14.10    8.93
   3   7  -6   71.18    8.16
  -3  -7   6   46.37   25.37
   3   7  -5   21.50   11.67
  -3  -7   5   16.30   10.25
   3   7  -4  269.25   17.96
  -3  -7   4  267.24   21.66
   3   7  -3  169.82   13.09
  -3  -7   3  164.67   21.11
   3   7  -2   15.96    7.46
   3   7  -2   19.33   11.04
  -3  -7   2   12.30   10.23
   3   7  -1   97.72    6.50
   3   7  -1   77.47   23.14
  -3  -7   1   90.88   38.04
   3   7   0  128.17    9.69
   3   7   0  107.95    9.19
  -3  -7   0  103.64    9.17
   3   7   1   44.48   11.63
   3   7   1   53.71    6.44
  -3  -7  -1   47.03    7.21
   3   7   2    3.58    2.71
   3   7   2    2.02    4.41
  -3  -7  -2    5.77    7.12
   3   7   3   20.93   10.67
  -3  -7  -3   13.91    9.25
  -3  -7  -3   11.23    6.06
   3   7   4   19.65   14.30
  -3  -7  -4   28.49   14.48
  -3  -7  -4   18.98   14.02
  -3  -7  -5   -0.42    4.73
  -3  -7  -6    1.63    5.17
  -3  -7  -6    0.80    4.25
  -3  -7  -7   32.04   22.32
  -3  -7  -8    6.55    5.62
   3   8 -11    2.29    5.08
  -3  -8  11   -0.45   10.90
   3   8 -10   61.94    8.55
  -3  -8  10   42.78   25.39
   3   8  -9    5.08    8.83
  -3  -8   9    0.46    3.84
   3   8  -8   93.64   11.62
  -3  -8   8   69.49   39.36
   3   8  -7  123.20   13.76
  -3  -8   7  100.28   11.79
   3   8  -6  255.89   29.66
  -3  -8   6  294.81   17.45
   3   8  -5  620.18   25.82
  -3  -8   5  637.88   30.90
   3   8  -4   74.67    9.75
  -3  -8   4   66.11   32.34
   3   8  -3  219.02   18.21
  -3  -8   3  174.92   39.41
   3   8  -2   43.90   21.89
  -3  -8   2   42.66   29.50
   3   8  -1  166.97   13.94
  -3  -8   1  155.24   14.35
   3   8   0    1.09    2.37
  -3  -8   0    6.64    8.81
   3   8   1    6.23    6.66
  -3  -8  -1    6.62    8.82
   3   8   2   30.72   18.43
  -3  -8  -2   35.78   19.72
  -3  -8  -3   27.36   22.58
  -3  -8  -3   39.29    7.81
  -3  -8  -4    6.24    4.90
  -3  -8  -4    7.35    4.53
  -3  -8  -5   30.39    5.64
  -3  -8  -6    1.27    4.41
   3   9  -9    1.28    4.59
  -3  -9   9    3.76    3.86
   3   9  -8   22.03   18.92
  -3  -9   8   18.17   20.10
   3   9  -7   -3.34    5.97
  -3  -9   7    2.56    5.85
   3   9  -6   26.38   16.24
  -3  -9   6   16.90   16.89
   3   9  -5   27.60   18.99
  -3  -9   5   19.01   13.29
   3   9  -4  188.74   12.93
  -3  -9   4  193.07   17.27
   3   9  -3   62.70    7.46
  -3  -9   3   41.43   29.35
   3   9  -2    9.10    6.19
  -3  -9   2   12.05   12.37
   3   9  -1  132.54   11.03
  -3  -9   1   88.17   41.18
   3   9   0  247.33   18.13
  -3  -9   0  233.41   15.68
   3   9   1   30.30   27.18
  -3  -9  -1   38.24   29.62
  -3  -9  -2    1.24    3.11
  -3  -9  -2   -0.02    6.25
   3  10  -5   -1.31    6.40
  -3 -10   5    4.30    5.00
   3  10  -4   93.06   12.30
  -3 -10   4   38.96   39.08
   3  10  -3    1.99    6.67
  -3 -10   3    5.51    6.85
   3  10  -2   -1.07    4.55
  -3 -10   2    1.87    6.88
  -4  10   3    1.19    7.38
  -4  10   2   17.11   11.56
  -4  10   1   20.44   16.38
  -4  10   0   50.67   42.59
  -4  10  -1    6.87    6.18
  -4  10  -2    4.21    5.14
  -4  10  -3  146.80   12.99
  -4  10  -4   11.54    9.14
  -4  10  -5    2.94    5.43
  -4  10  -6    3.93    7.22
  -4  10  -6    2.49    4.19
  -4  10  -7  102.29   11.58
  -4  10  -7   81.21   25.54
   4  -9  -6    4.75    4.88
  -4   9   6    1.73    5.38
   4  -9  -5    7.96    6.40
  -4   9   5   11.29    8.96
  -4   9   4    7.90    5.75
  -4   9   3   24.46   14.99
  -4   9   2   15.96   10.17
  -4   9   1    0.88    5.48
  -4   9   0   10.17    8.84
  -4   9  -1   28.94   18.23
  -4   9  -2  289.62   27.69
  -4   9  -3  315.35   34.19
  -4   9  -4  127.02   11.02
  -4   9  -4   99.39   24.12
  -4   9  -5   24.65   13.38
  -4   9  -5   25.07   12.98
  -4   9  -6    7.21    5.29
  -4   9  -6   11.14   14.88
  -4   9  -7    2.99    5.05
  -4   9  -7    3.10    4.04
  -4   9  -8   12.11    9.09
  -4   9  -8    7.93    5.21
  -4   9  -9   20.42   15.04
  -4   9  -9   21.18   17.13
   4  -8  -8    3.31    2.96
  -4   8   8    3.06    5.64
   4  -8  -7  209.53   15.43
  -4   8   7  198.45   15.53
   4  -8  -6    1.27    5.17
  -4   8   6   -0.94    6.45
   4  -8  -5    2.51    5.70
  -4   8   5    2.53    4.79
   4  -8  -4    0.98    4.36
  -4   8   4    4.16    2.15
   4  -8  -3  120.78   11.65
  -4   8   3  111.26   14.18
   4  -8  -2  175.49   14.53
  -4   8   2  172.63   14.38
   4  -8  -1  165.82   11.07
  -4   8   1  156.18   17.48
   4  -8   0   68.82    5.42
  -4   8   0   77.16    8.94
   4  -8   1    3.58    2.90
  -4   8  -1    2.77    4.88
  -4   8  -2  147.99    7.12
  -4   8  -2  170.88   37.66
  -4   8  -3  711.62   16.81
  -4   8  -3  737.61   26.99
  -4   8  -4 1479.70   31.04
  -4   8  -4 1490.18   33.45
  -4   8  -5   30.51   15.52
  -4   8  -5   32.31   21.26
  -4   8  -6   20.83   11.44
  -4   8  -6   18.87   10.17
  -4   8  -7    7.51    6.83
  -4   8  -7   10.75    5.07
  -4   8  -8   -2.98    5.36
  -4   8  -8    5.58    4.97
  -4   8  -9    5.72    8.65
  -4   8  -9    4.61    5.79
  -4   8 -10    3.07    4.33
  -4   8 -10    5.36    3.25
  -4   8 -11   17.41   12.40
  -4   8 -11   13.33   11.66
   4  -7 -10    8.22   11.55
   4  -7  -9   13.89    5.42
  -4   7   9    7.09    7.77
   4  -7  -8   38.11   21.42
  -4   7   8   21.50   18.07
   4  -7  -7   94.30   16.65
  -4   7   7   90.82   12.84
   4  -7  -6   26.33    8.60
  -4   7   6   25.59   14.50
   4  -7  -5    0.69    4.92
  -4   7   5    1.32    5.56
   4  -7  -4   58.38    8.41
  -4   7   4   37.78   19.90
   4  -7  -3  230.21   19.51
  -4   7   3  260.89   19.27
   4  -7  -2   76.64    7.08
  -4   7   2   83.11    8.42
   4  -7  -1  229.75   14.63
  -4   7   1  275.10   17.46
   4  -7   0  140.77   11.41
  -4   7   0  125.67    5.08
  -4   7   0  132.09    9.44
   4  -7   1   96.10    7.39
  -4   7  -1  116.52    6.40
  -4   7  -1  110.08    9.34
   4  -7   2   76.60    6.05
  -4   7  -2   70.29    4.67
  -4   7  -2   62.67    7.66
   4  -7   3  338.27   16.51
  -4   7  -3  308.00   18.82
  -4   7  -3  325.89   19.59
   4  -7   4  219.89   14.68
  -4   7  -4  232.57   14.62
  -4   7  -4  245.22   18.31
   4  -7   5  534.19   30.55
  -4   7  -5  585.52   31.02
  -4   7  -5  538.09   30.04
  -4   7  -6  160.86   10.06
  -4   7  -6  163.76   28.96
  -4   7  -7   83.37    9.29
  -4   7  -7   74.29    8.24
  -4   7  -8   91.14   10.73
  -4   7  -8   70.61   28.98
  -4   7  -9   14.59   13.25
  -4   7  -9   20.25   13.95
  -4   7 -10   34.58   21.19
  -4   7 -10   28.58   15.77
  -4   7 -11  114.41   11.36
  -4   7 -11  107.19   10.70
  -4   7 -12   33.99   27.55
  -4   7 -12   26.92   24.10
   4  -6 -11   30.66   20.73
   4  -6 -10    6.50    5.39
   4  -6  -9    4.19    5.36
  -4   6   9    2.34    3.16
   4  -6  -8    0.48    6.96
  -4   6   8    1.22    2.83
   4  -6  -7   17.31    7.07
  -4   6   7   15.36   10.21
   4  -6  -6   60.79    8.95
  -4   6   6   66.08   12.55
   4  -6  -5  183.22   15.95
  -4   6   5  194.84   15.30
   4  -6  -4  725.35   32.95
  -4   6   4  752.37   42.88
   4  -6  -3   99.28    9.36
  -4   6   3  106.00   10.40
   4  -6  -2  128.16   10.26
  -4   6   2  124.62   11.04
   4  -6  -1  113.39    7.52
  -4   6   1  101.05    3.66
  -4   6   1  134.88    9.91
   4  -6   0   44.97    4.73
  -4   6   0   47.38    3.68
  -4   6   0   44.15   22.08
   4  -6   1    2.50    3.24
  -4   6  -1    1.22    1.84
  -4   6  -1    2.36    3.05
   4  -6   2   39.33    6.84
  -4   6  -2   37.52    3.36
  -4   6  -2   37.67   18.17
   4  -6   3   66.13    5.98
  -4   6  -3   73.47    5.20
  -4   6  -3   58.91    9.02
   4  -6   4   27.71   14.57
  -4   6  -4   23.48   14.36
  -4   6  -4   19.32   12.20
   4  -6   5   50.97    5.18
  -4   6  -5   49.59    5.21
  -4   6  -5   47.67    7.12
   4  -6   6  677.59   31.04
  -4   6  -6  715.72   35.89
  -4   6  -6  707.70   34.37
   4  -6   7  476.27   28.11
  -4   6  -7  470.62   25.71
  -4   6  -7  443.21   27.91
   4  -6   8   66.73    9.03
  -4   6  -8   65.53    7.67
  -4   6  -8   74.33    8.79
   4  -6   9   94.46    8.13
  -4   6  -9  113.53   20.88
  -4   6  -9   97.06    9.41
   4  -6  10   13.78   14.04
  -4   6 -10   12.13    8.12
  -4   6 -10   16.09   12.06
  -4   6 -11   44.25   30.53
  -4   6 -11   55.78    6.50
  -4   6 -12   30.84   17.32
   4  -5 -12   14.23   13.42
   4  -5 -11   14.04    8.15
   4  -5 -10   16.37   10.94
   4  -5  -9   32.66   16.55
  -4   5   9   29.18   19.13
   4  -5  -8    3.74    3.34
  -4   5   8    7.10    4.84
   4  -5  -7    6.08    4.45
  -4   5   7    5.65    7.24
   4  -5  -6   89.23    8.42
  -4   5   6   81.22    8.64
   4  -5  -5    2.90    6.61
  -4   5   5   -1.77    4.29
   4  -5  -4   17.44    5.71
  -4   5   4   15.79    5.47
   4  -5  -3  196.61   12.71
  -4   5   3  192.56   12.58
   4  -5  -2  224.07   12.83
  -4   5   2  226.10   14.69
   4  -5  -1    2.46    4.44
  -4   5   1    4.39    2.22
  -4   5   1   10.94    7.96
   4  -5   0  129.11   10.88
  -4   5   0  129.05    6.07
  -4   5   0  121.00    9.64
   4  -5   1  509.70   13.54
  -4   5  -1  508.16    9.61
  -4   5  -1  481.76   15.11
   4  -5   2   43.35    5.10
  -4   5  -2   34.28    3.46
  -4   5  -2   40.51   13.29
   4  -5   3  604.79   21.41
  -4   5  -3  605.95   17.96
  -4   5  -3  633.96   17.08
   4  -5   4  393.36   17.19
  -4   5  -4  440.61   12.14
  -4   5  -4  408.64   17.93
   4  -5   5   20.35    7.99
  -4   5  -5   15.95    9.71
  -4   5  -5   14.87    7.49
   4  -5   6    2.05    5.04
  -4   5  -6   -5.06    5.14
  -4   5  -6    2.69    3.11
   4  -5   7  997.78   45.33
  -4   5  -7 1031.14   54.77
  -4   5  -7 1043.65   57.13
   4  -5   8  650.06   34.46
  -4   5  -8  674.80   37.01
  -4   5  -8  673.04   37.08
   4  -5   9  183.17   10.94
  -4   5  -9  190.10   11.49
  -4   5  -9  191.02   10.98
   4  -5  10    4.37    4.31
  -4   5 -10    3.11    5.56
  -4   5 -10    9.81    8.50
   4  -5  11    1.95    2.40
  -4   5 -11    2.60    5.38
  -4   5 -11    2.68    2.65
   4  -5  12    2.76    3.60
  -4   5 -12    1.36    4.95
   4  -5  13   91.62   10.48
  -4   5 -13   98.84   23.05
   4  -4 -13   59.81   20.83
   4  -4 -12   46.41   28.97
   4  -4 -11    0.50    5.60
  -4   4  11    1.63    1.87
   4  -4 -10    0.23    5.40
  -4   4  10   -1.37    3.61
   4  -4  -9   33.61   13.27
  -4   4   9   37.74   15.65
   4  -4  -8  440.71   32.35
  -4   4   8  459.24   29.65
   4  -4  -7   56.71    7.29
  -4   4   7   58.56    6.39
   4  -4  -6   15.20    9.90
  -4   4   6   20.69    7.82
   4  -4  -5   40.74    6.55
  -4   4   5   42.48    6.50
   4  -4  -4  365.06   13.59
  -4   4   4  370.18   17.30
   4  -4  -3  324.89   19.40
  -4   4   3  320.16   20.38
   4  -4  -2  460.27   23.15
  -4   4   2  410.28   15.90
  -4   4   2  462.51   26.18
   4  -4  -1   23.62   13.47
  -4   4   1   18.35    2.66
  -4   4   1   20.15    3.03
  -4   4   1   21.39   13.39
   4  -4   0   21.69    8.81
  -4   4   0   16.37    3.17
  -4   4   0   17.51   15.49
   4  -4   1   27.96   13.14
  -4   4  -1   25.19   10.37
  -4   4  -1   24.02   13.85
   4  -4   2  457.40   21.60
  -4   4  -2  449.74   20.11
   4  -4   3  161.53   10.60
  -4   4  -3  157.99    9.48
  -4   4  -3  166.61   10.35
   4  -4   4  967.14   23.39
  -4   4  -4  988.78   17.30
  -4   4  -4  895.32   18.11
   4  -4   5  180.28   11.70
  -4   4  -5  176.92   10.34
  -4   4  -5  172.62   10.30
   4  -4   6   18.47    9.09
  -4   4  -6   14.32    6.39
  -4   4  -6   15.94    9.22
   4  -4   7   74.49   10.60
  -4   4  -7   70.24    7.53
  -4   4  -7   81.41    7.95
   4  -4   8   39.22   17.63
  -4   4  -8   43.97   22.18
  -4   4  -8   42.14   18.83
   4  -4   9    1.87    4.50
  -4   4  -9    4.93    5.79
  -4   4  -9    1.85    4.97
   4  -4  10   25.13   13.52
  -4   4 -10   21.47   11.96
  -4   4 -10   13.48   11.15
   4  -4  11  116.39   12.19
  -4   4 -11  114.89   24.62
   4  -4  12   16.43    9.66
  -4   4 -12    8.65    8.96
   4  -4  13  266.31   17.89
  -4   4 -13  249.82   17.34
   4  -3 -14   10.35    8.38
   4  -3 -13    3.91    6.57
   4  -3 -12   12.19   10.79
   4  -3 -11   22.38   14.17
  -4   3  11   26.16   16.04
   4  -3 -10   -1.32    5.77
  -4   3  10    2.14    2.96
   4  -3  -9    8.52    8.03
  -4   3   9    7.35    7.15
   4  -3  -8  282.21   18.21
   4  -3  -8  242.27   11.90
  -4   3   8  260.79   11.89
   4  -3  -7  702.23   37.25
   4  -3  -7  570.38   24.59
  -4   3   7  618.61   29.50
   4  -3  -6   -1.33    6.47
   4  -3  -6    3.21    1.69
  -4   3   6    2.27    1.83
  -4   3   6    1.04    4.01
   4  -3  -5  376.02   14.79
  -4   3   5  349.32    4.41
  -4   3   5  358.00   12.17
   4  -3  -4  290.44   17.04
  -4   3   4  234.14    9.28
  -4   3   4  243.79    9.46
  -4   3   4  256.95   15.67
   4  -3  -3 1158.58   34.60
   4  -3  -2  556.36   20.46
  -4   3   2  600.13   13.36
  -4   3   2  499.18   18.13
  -4   3   2  599.60   31.14
   4  -3  -1 1075.37   39.06
  -4   3   1 1115.44   24.08
   4  -3   0 3877.00   83.36
  -4   3   0 3980.31   69.55
  -4   3   0 3891.34   70.81
   4  -3   1 1191.20   35.77
  -4   3  -1 1274.85   26.30
  -4   3  -1 1281.04   28.57
   4  -3   2    8.92    3.92
  -4   3  -2    8.76    3.34
  -4   3  -2    5.87    2.95
   4  -3   3  633.90   17.82
  -4   3  -3  654.67   17.16
  -4   3  -3  574.66   20.40
   4  -3   4  318.73   16.26
  -4   3  -4  340.97   15.47
  -4   3  -4  361.99   15.72
   4  -3   5  212.33   12.26
  -4   3  -5  220.09   13.77
  -4   3  -5  207.49   10.64
   4  -3   6  119.92   10.85
  -4   3  -6  135.82    9.56
  -4   3  -6  134.75    8.61
   4  -3   7  168.46    9.75
  -4   3  -7  183.32   10.98
  -4   3  -7  181.34    8.78
   4  -3   8   22.18    7.53
  -4   3  -8   28.24   11.99
  -4   3  -8   21.43   10.02
   4  -3   9  249.69   20.14
  -4   3  -9  217.00   14.82
  -4   3  -9  235.98   13.84
   4  -3  10  223.42   13.24
  -4   3 -10  212.77   13.07
   4  -3  11  246.61   14.62
  -4   3 -11  207.58   12.30
   4  -3  12   18.60   12.70
  -4   3 -12   10.95    9.74
   4  -3  13   14.38   13.18
  -4   3 -13    5.05    7.65
   4  -2 -14   98.24   20.27
   4  -2 -13    7.39    7.55
   4  -2 -12   35.35   21.33
  -4   2  12   43.36    5.28
   4  -2 -11   83.75   21.08
  -4   2  11   86.83    7.48
   4  -2 -10  267.96   19.01
   4  -2 -10  269.71   16.80
  -4   2  10  257.06   20.15
   4  -2  -9   13.89   10.21
   4  -2  -9    8.87    5.99
  -4   2   9    7.48    7.85
   4  -2  -8   36.08   14.36
   4  -2  -8   44.77    8.22
  -4   2   8   41.38    5.42
   4  -2  -7   20.22    6.18
   4  -2  -7   12.17    2.80
  -4   2   7   16.13    8.27
   4  -2  -6   86.78    9.69
   4  -2  -6   84.41    5.15
  -4   2   6   83.26    7.80
   4  -2  -5  158.08   11.98
   4  -2  -5  159.39    7.43
  -4   2   5  169.79    7.38
  -4   2   5  152.67    9.03
   4  -2  -4  107.51    7.99
   4  -2  -4  118.95    9.75
  -4   2   4  125.12    7.63
   4  -2  -3   89.55    6.42
   4  -2  -3   89.62    5.19
  -4   2   3   86.99    3.39
  -4   2   3   86.04    6.16
  -4   2   2 2492.78   46.93
  -4   2   2 2500.91   49.39
  -4   2   2 2655.09   60.79
   4  -2  -1 2927.31   56.95
  -4   2   1 3181.22   69.26
  -4   2   1 3016.34   64.29
   4  -2   0   60.57    6.70
  -4   2   0   57.58    5.20
  -4   2   0   49.51    5.20
   4  -2   1 1395.10   37.04
  -4   2  -1 1542.30   31.53
  -4   2  -1 1404.38   33.84
   4  -2   2   62.18   11.57
  -4   2  -2   70.42    4.68
  -4   2  -2   55.16    4.38
   4  -2   3   72.77    5.95
  -4   2  -3   88.70    7.12
  -4   2  -3   80.95    5.18
   4  -2   4    2.33    4.42
  -4   2  -4    1.37    1.85
  -4   2  -4    1.11    2.74
   4  -2   5  786.32   34.50
  -4   2  -5  717.46   30.66
  -4   2  -5  742.85   28.70
   4  -2   6   69.44    7.59
  -4   2  -6   59.37    6.21
  -4   2  -6   57.90    4.15
   4  -2   7  162.48   14.17
  -4   2  -7  175.35   12.54
  -4   2  -7  180.24    9.50
   4  -2   8  299.56   16.91
  -4   2  -8  336.95   13.32
  -4   2  -8  330.84    9.21
   4  -2   9    2.91    7.13
  -4   2  -9   11.12    9.42
  -4   2  -9    7.87    6.03
   4  -2  10    3.98    5.11
  -4   2 -10   -2.08    6.46
   4  -2  11    0.35    4.87
  -4   2 -11   -3.42    5.79
   4  -2  12   13.65   10.14
  -4   2 -12   13.57    9.60
   4  -2  13   24.37   17.17
  -4   2 -13   17.59   11.70
   4  -1 -14    4.09    8.34
   4  -1 -13  117.95   15.65
  -4   1  13  124.78   10.98
   4  -1 -12   50.74   28.39
   4  -1 -12   59.49    5.71
  -4   1  12   45.69   17.12
   4  -1 -11   29.15   15.62
   4  -1 -11   29.19    4.54
  -4   1  11   27.34   16.67
   4  -1 -10  863.18   38.63
   4  -1 -10  898.52   36.44
  -4   1  10  843.04   37.61
   4  -1  -9 1127.83   41.93
   4  -1  -9 1092.48   28.84
  -4   1   9 1177.45   22.89
   4  -1  -8  526.26   22.72
   4  -1  -8  531.20   13.14
  -4   1   8  462.40   18.58
   4  -1  -7  610.27   27.82
   4  -1  -7  645.78   12.62
  -4   1   7  621.99   19.99
   4  -1  -6  304.05   16.89
   4  -1  -6  346.87   14.67
  -4   1   6  300.50   14.67
   4  -1  -5  456.21   20.12
   4  -1  -5  462.72   19.46
  -4   1   5  410.58   16.21
   4  -1  -4 1247.80   25.44
  -4   1   4 1109.02   32.57
   4  -1  -3 1473.60   46.57
   4  -1  -3 1398.66   33.19
   4  -1  -2 1334.35   32.34
   4  -1  -2 1306.86   28.63
  -4   1   2 1444.30   32.36
   4  -1  -1  854.51   23.34
  -4   1   1  828.78   24.90
  -4   1   1  904.94   20.24
   4  -1   0  749.75   18.72
  -4   1   0  753.61   23.36
  -4   1   0  738.82   17.81
   4  -1   1 1050.16   29.55
  -4   1  -1 1000.75   23.92
  -4   1  -1  986.39   21.59
   4  -1   2    1.39    3.80
  -4   1  -2   -0.79    3.43
  -4   1  -2    2.40    2.44
   4  -1   3  293.37   13.65
  -4   1  -3  285.57   13.06
  -4   1  -3  270.04   11.33
   4  -1   4  113.38    8.33
  -4   1  -4  108.19    7.86
  -4   1  -4  121.04    6.24
   4  -1   5   63.01    8.31
  -4   1  -5   57.25    7.17
  -4   1  -5   61.62    4.39
   4  -1   6  770.92   19.33
  -4   1  -6  747.30   18.74
  -4   1  -6  732.21   13.05
   4  -1   7   42.01    9.79
  -4   1  -7   31.15   19.84
  -4   1  -7   27.06    3.19
   4  -1   8   19.31    8.89
  -4   1  -8   20.31   11.15
  -4   1  -8   18.15    6.21
   4  -1   9  113.19   17.33
  -4   1  -9   99.36   10.14
   4  -1  10   58.41   22.99
  -4   1 -10   61.19   10.25
   4  -1  11    2.88    3.85
  -4   1 -11   -2.90    6.54
   4  -1  12    3.61    5.47
  -4   1 -12   -1.43    6.30
   4  -1  13    5.43    4.14
  -4   1 -13    4.08    3.97
   4   0 -15    2.83    2.01
   4   0 -14    0.62    2.43
   4   0 -14    0.55    3.11
   4   0 -13   31.26   24.91
   4   0 -13   32.00   21.69
  -4   0  13   36.55    5.31
   4   0 -12    3.72    7.25
   4   0 -12    6.82    5.97
  -4   0  12    9.99    3.87
   4   0 -11  168.72   14.33
   4   0 -11  141.58   11.46
  -4   0  11  176.79   10.28
   4   0 -10   -4.27    7.39
   4   0 -10    1.42    4.19
  -4   0  10   -0.47    4.82
   4   0  -9  119.87   10.51
   4   0  -9  119.66    7.56
  -4   0   9  113.55    8.41
   4   0  -8   -0.03    7.41
   4   0  -8    2.92    4.06
  -4   0   8   -2.24    5.12
   4   0  -7   69.27    7.02
   4   0  -7   86.34    6.66
  -4   0   7   69.27    6.80
   4   0  -6  302.27   16.99
   4   0  -6  333.90   14.49
  -4   0   6  349.48   17.44
   4   0  -5   20.74   12.54
   4   0  -5   18.23    9.31
  -4   0   5   21.61   10.60
   4   0  -4  169.56   16.66
   4   0  -4  173.34    8.62
  -4   0   4  161.71   13.06
   4   0  -3  651.07   20.23
   4   0  -3  723.89   28.61
  -4   0   3  614.55   17.45
   4   0  -2  158.00    9.40
   4   0  -2  152.72   11.55
  -4   0   2  182.74   10.62
   4   0  -1  225.85   12.85
   4   0  -1  201.46   10.94
  -4   0   1  198.45   11.99
   4   0   0   45.54   14.89
  -4   0   0   30.59    3.98
  -4   0   0   32.48    4.50
   4   0   1  549.07   15.98
  -4   0  -1  517.02   16.35
  -4   0  -1  522.59   14.72
   4   0   2 1155.23   39.38
  -4   0  -2 1211.58   29.83
  -4   0  -2 1219.51   25.82
   4   0   3  262.02   15.72
  -4   0  -3  233.19   11.34
  -4   0  -3  273.13   15.84
   4   0   4 1287.87   52.60
  -4   0  -4 1214.10   46.27
  -4   0  -4 1140.43   40.71
   4   0   5  272.87   14.67
  -4   0  -5  281.76   21.73
  -4   0  -5  306.02    8.25
   4   0   6  188.93   16.54
  -4   0  -6  182.10   11.52
  -4   0  -6  162.28    8.16
   4   0   6  156.28    7.14
   4   0   7   34.80   16.80
  -4   0  -7   32.62   12.90
  -4   0  -7   33.02    2.25
   4   0   8    0.07    5.36
  -4   0  -8    3.76    5.57
   4   0   9   -0.05    6.30
  -4   0  -9    2.48    3.88
   4   0  10   40.02   17.99
  -4   0 -10   38.66   16.40
   4   0  11    6.08    6.73
  -4   0 -11   -3.11    6.63
   4   0  12   15.03   10.72
  -4   0 -12    5.17    6.58
   4   0  13    1.67    7.79
  -4   0 -13    2.55    3.83
   4   1 -15    6.78   10.81
   4   1 -15    8.02    8.86
   4   1 -14    0.37    4.16
   4   1 -14    2.63    3.32
  -4  -1  14    4.14    5.43
   4   1 -13   28.41   27.46
   4   1 -13   38.60    6.91
  -4  -1  13   43.29    5.39
   4   1 -12    1.60    5.30
   4   1 -12    1.41    2.37
  -4  -1  12    4.03    2.58
   4   1 -11    6.37    6.37
   4   1 -11    3.81    5.18
  -4  -1  11    3.91    6.35
   4   1 -10  161.07   11.29
   4   1 -10  143.52    9.33
  -4  -1  10  151.41   15.06
   4   1  -9   53.25    6.17
   4   1  -9   48.60    5.29
  -4  -1   9   51.55    8.18
   4   1  -8  143.91   11.34
   4   1  -8  134.29    9.25
  -4  -1   8  169.84   12.29
   4   1  -7   25.55   14.61
   4   1  -7   26.31    4.49
  -4  -1   7   34.84   14.65
   4   1  -6  560.39   29.05
   4   1  -6  547.00   28.31
  -4  -1   6  550.92   23.98
   4   1  -5  189.31   11.22
   4   1  -5  203.09   10.51
  -4  -1   5  200.31   10.74
   4   1  -4    7.84    4.22
   4   1  -4    9.94    7.44
  -4  -1   4   10.67    5.69
   4   1  -3   47.42    4.61
   4   1  -3   42.86    5.39
  -4  -1   3   38.19    5.30
   4   1  -2  724.62   19.95
   4   1  -2  755.61   18.10
  -4  -1   2  652.88   20.49
   4   1  -1 1234.41   28.29
   4   1  -1 1119.88   25.78
  -4  -1   1 1152.40   24.84
   4   1   0  207.33   11.83
   4   1   0  234.41   11.21
  -4  -1   0  214.45    9.85
   4   1   1 3032.97   58.98
  -4  -1  -1 3425.23   63.42
  -4  -1  -1 3187.03   64.10
   4   1   2 2587.95   71.17
  -4  -1  -2 2882.98   70.99
  -4  -1  -2 2616.89   59.04
   4   1   3 1326.16   37.24
  -4  -1  -3 1248.34   28.83
  -4  -1  -3 1285.00   25.39
   4   1   4   57.44   28.20
  -4  -1  -4   46.25    5.52
  -4  -1  -4   57.78    3.19
   4   1   5  220.86   16.16
  -4  -1  -5  228.04   12.39
  -4  -1  -5  203.58    8.28
   4   1   5  217.20    9.67
   4   1   6  163.97   12.55
  -4  -1  -6  147.58   11.25
  -4  -1  -6  142.14    6.12
   4   1   7  577.09   21.96
  -4  -1  -7  513.96   15.91
   4   1   8  205.68   12.66
  -4  -1  -8  187.95   10.81
   4   1   9  374.52   21.96
  -4  -1  -9  336.89   18.80
   4   1  10   25.26    9.70
  -4  -1 -10   31.96   12.79
   4   1  11   32.04   10.60
  -4  -1 -11   15.43   15.60
   4   1  12  129.76   17.55
  -4  -1 -12  126.31   10.70
   4   1  13   33.40   33.94
  -4  -1 -13   24.04   22.30
   4   2 -15    3.52    5.50
   4   2 -15    3.30    4.50
   4   2 -14    1.30    5.07
   4   2 -14    2.82    7.35
  -4  -2  14    2.56    3.09
   4   2 -13    2.57    5.17
   4   2 -13    0.44    2.88
  -4  -2  13    2.22    5.35
   4   2 -12   83.35   11.73
   4   2 -12   87.27   12.34
  -4  -2  12   90.40   11.42
   4   2 -11   -0.05    5.53
   4   2 -11    2.24    5.23
  -4  -2  11    1.11    3.46
   4   2 -10    9.05    5.90
   4   2 -10    5.09    9.31
  -4  -2  10   11.00    6.02
   4   2  -9  362.30   16.55
   4   2  -9  336.22   25.41
  -4  -2   9  326.91   26.71
   4   2  -8   19.48    5.41
   4   2  -8   14.49   11.61
  -4  -2   8    9.63    5.28
   4   2  -7   59.02    6.40
   4   2  -7   56.36    7.54
  -4  -2   7   63.99    9.42
   4   2  -6  209.97   14.91
   4   2  -6  208.69   13.93
  -4  -2   6  201.85   12.35
   4   2  -5 1346.87   54.93
   4   2  -5 1403.94   55.48
  -4  -2   5 1269.61   51.76
   4   2  -4 1488.24   41.03
   4   2  -4 1527.26   33.65
  -4  -2   4 1399.86   32.45
   4   2  -3  763.84   20.61
   4   2  -3  786.67   20.55
  -4  -2   3  678.10   26.21
   4   2  -2   47.79    4.65
   4   2  -2   55.24    6.85
  -4  -2   2   40.62    5.03
   4   2  -1  171.47    9.08
   4   2  -1  161.77    9.18
  -4  -2   1  175.50   15.95
   4   2   0  242.51   12.34
   4   2   0  259.78   12.65
  -4  -2   0  265.39   15.53
   4   2   1    7.86    3.52
   4   2   1    0.31    2.26
  -4  -2  -1    3.26    2.45
   4   2   2  107.79   10.93
  -4  -2  -2  109.75    7.11
  -4  -2  -2  118.48    7.30
   4   2   3  279.28   15.61
  -4  -2  -3  258.74   13.31
  -4  -2  -3  282.47   12.56
   4   2   4   78.52   21.88
  -4  -2  -4   73.75    6.83
  -4  -2  -4   78.26    5.82
   4   2   5   15.82    9.49
  -4  -2  -5    7.34    5.08
  -4  -2  -5   11.77    6.05
   4   2   6    2.31    5.87
  -4  -2  -6    3.21    5.59
  -4  -2  -6    2.30    2.02
   4   2   7    8.77    9.32
  -4  -2  -7    8.15    5.29
   4   2   8  735.24   27.51
  -4  -2  -8  699.38   30.93
   4   2   9   63.10   42.46
  -4  -2  -9   62.20    7.60
   4   2  10   22.65   10.17
  -4  -2 -10   18.39   10.41
   4   2  11   86.12   12.11
  -4  -2 -11   98.88   12.08
   4   2  12    9.12   11.87
  -4  -2 -12    3.17    3.88
   4   3 -15    3.46    5.19
   4   3 -15    3.24    3.96
  -4  -3  15    2.56    3.98
   4   3 -14   52.26   11.97
   4   3 -14   25.92   24.00
  -4  -3  14   46.58   12.26
   4   3 -13    3.26    6.07
   4   3 -13    5.53    4.67
  -4  -3  13    3.12    5.30
   4   3 -12   42.16    7.40
   4   3 -12   51.31    7.31
  -4  -3  12   44.61   13.51
   4   3 -11    2.24    2.35
   4   3 -11    4.09    6.11
  -4  -3  11    2.83    4.45
   4   3 -10   32.92    5.18
   4   3 -10   29.47   15.71
  -4  -3  10   23.39   13.08
   4   3  -9  598.47   30.01
   4   3  -9  559.84   18.42
  -4  -3   9  524.51   18.20
   4   3  -8  109.08    9.80
   4   3  -8  102.91   20.27
  -4  -3   8  106.55   11.71
   4   3  -7  434.76   15.55
   4   3  -7  444.61   14.69
  -4  -3   7  424.64   44.84
   4   3  -6  206.81   10.88
   4   3  -6  230.33   12.66
  -4  -3   6  207.29   14.93
   4   3  -5   88.79    7.13
   4   3  -5   94.01    7.97
  -4  -3   5   90.14    9.37
   4   3  -4    2.79    2.79
   4   3  -4    2.61    2.43
  -4  -3   4   -0.33    4.00
   4   3  -3  144.01    9.15
   4   3  -3  126.49    7.87
  -4  -3   3  142.06    9.15
   4   3  -2  236.16   14.21
   4   3  -2  226.75   12.72
  -4  -3   2  259.45   14.63
   4   3  -1  416.90   19.87
   4   3  -1  425.05   19.81
  -4  -3   1  381.08   21.05
   4   3   0   56.75    6.22
   4   3   0   49.22    5.33
  -4  -3   0   59.08   23.15
   4   3   1  313.11   16.13
   4   3   1  340.21   16.28
  -4  -3  -1  305.03   14.40
   4   3   2  913.19   20.22
  -4  -3  -2  838.65   34.10
  -4  -3  -2  808.81   23.22
   4   3   3   75.11   18.23
  -4  -3  -3   86.36    8.47
  -4  -3  -3   76.61    5.75
   4   3   4   53.64    6.90
  -4  -3  -4   46.77   19.04
  -4  -3  -4   44.94    4.45
   4   3   5  838.99   38.50
  -4  -3  -5  813.40   39.00
  -4  -3  -5  799.16   16.57
   4   3   6   37.65   15.26
  -4  -3  -6   31.82   13.10
   4   3   7  178.48   17.93
  -4  -3  -7  191.81   14.02
   4   3   8   28.23   16.76
  -4  -3  -8   28.51   14.17
   4   3   9    3.81    6.06
  -4  -3  -9    0.60    4.86
   4   3  10   12.91    8.16
  -4  -3 -10    0.74    8.21
   4   3  11   20.09   10.83
  -4  -3 -11   10.77   10.11
   4   4 -14    9.95    7.14
   4   4 -14   -0.34    8.11
  -4  -4  14    1.31    5.66
   4   4 -13   77.88    9.09
   4   4 -13   77.99   14.90
  -4  -4  13   84.87    9.22
   4   4 -12    2.71    4.54
   4   4 -12    2.18    7.17
  -4  -4  12   -1.45    5.70
   4   4 -11   31.88   18.48
   4   4 -11   37.48   21.10
  -4  -4  11   36.46   22.35
   4   4 -10   25.82   16.32
   4   4 -10   20.89   16.27
  -4  -4  10   25.60   15.23
   4   4  -9  135.84   11.01
   4   4  -9  143.03   11.17
  -4  -4   9  145.12   32.18
   4   4  -8  467.85   19.38
   4   4  -8  568.31   22.79
  -4  -4   8  507.07   19.22
   4   4  -7   70.11    5.38
   4   4  -7   57.17   27.78
  -4  -4   7   76.74   24.51
   4   4  -6  118.67    8.17
   4   4  -6  126.14   10.39
  -4  -4   6  110.78    9.84
   4   4  -5  208.35   11.00
   4   4  -5  212.83   15.98
  -4  -4   5  202.25   12.96
   4   4  -4  182.32   10.98
   4   4  -4  155.34   10.14
  -4  -4   4  177.50   21.38
   4   4  -3    9.21    4.19
   4   4  -3    7.06    5.09
  -4  -4   3   12.98    5.75
   4   4  -2  100.03   12.87
   4   4  -2  109.89    8.48
  -4  -4   2  108.23   12.53
   4   4  -1   53.75    4.82
   4   4  -1   56.61    5.98
  -4  -4   1   46.37   21.53
   4   4   0    2.71    5.47
   4   4   0    4.28    5.41
  -4  -4   0    1.21    5.96
   4   4   1   16.22    8.47
  -4  -4  -1   23.15   12.19
   4   4   2  283.50   16.82
  -4  -4  -2  275.68   14.89
   4   4   3  663.95   32.72
  -4  -4  -3  583.68   35.68
  -4  -4  -3  594.68   27.18
   4   4   4    3.43    5.57
  -4  -4  -4    5.07    6.43
  -4  -4  -4    6.87    2.80
   4   4   5  584.47   35.26
  -4  -4  -5  599.28   37.94
  -4  -4  -5  525.74   27.57
   4   4   6 1688.91   47.36
  -4  -4  -6 1739.39   44.10
   4   4   7  164.42   16.75
  -4  -4  -7  167.18   10.21
   4   4   8    3.16    6.30
  -4  -4  -8    1.93    5.60
   4   4   9   55.25   35.20
  -4  -4  -9   49.69   29.75
   4   4  10   20.12   14.66
  -4  -4 -10    7.06    7.96
   4   5 -14   25.46   24.02
  -4  -5  14   27.40   20.00
   4   5 -13    6.66    6.72
  -4  -5  13    7.23   10.49
   4   5 -12    3.84    4.51
  -4  -5  12    3.94    5.67
   4   5 -11   20.36   16.99
   4   5 -11   19.72   12.77
  -4  -5  11   29.47   16.21
   4   5 -10  287.13   20.38
   4   5 -10  358.82   26.61
  -4  -5  10  326.65   24.37
   4   5  -9  193.42   11.85
   4   5  -9  150.30   11.69
  -4  -5   9  182.26   14.41
   4   5  -8  497.73   27.03
   4   5  -8  504.46   31.17
  -4  -5   8  483.86   30.13
   4   5  -7  349.70   20.89
   4   5  -7  378.43   20.61
  -4  -5   7  407.02   22.54
   4   5  -6   40.69    9.49
   4   5  -6   25.71    9.63
  -4  -5   6   27.82   15.00
   4   5  -5  252.62    9.47
   4   5  -5  276.62   37.04
  -4  -5   5  237.09   13.02
   4   5  -4    2.85    3.00
   4   5  -4    5.64    5.31
  -4  -5   4    2.77    6.10
   4   5  -3    7.22    5.04
   4   5  -3    6.57    6.69
  -4  -5   3    8.00    8.23
   4   5  -2   33.63   15.98
   4   5  -2   42.40    5.94
  -4  -5   2   41.36   20.58
   4   5  -1  181.36   10.74
   4   5  -1  171.36   10.54
  -4  -5   1  190.31   12.27
   4   5   0  356.00   20.43
   4   5   0  336.61   18.31
  -4  -5   0  338.23   22.79
   4   5   1  100.68    7.63
   4   5   1   88.35    7.65
  -4  -5  -1   83.72    9.77
   4   5   2  136.04   13.34
   4   5   2  155.72   10.19
  -4  -5  -2  128.86    9.18
   4   5   3   95.71   10.50
  -4  -5  -3   66.40    7.96
  -4  -5  -3   79.43    8.98
   4   5   4   -0.68    5.51
  -4  -5  -4    2.25    3.78
  -4  -5  -4    3.29    3.18
   4   5   5   64.45    9.37
  -4  -5  -5   70.57    7.83
   4   5   6   -2.05    5.25
  -4  -5  -6    1.90    4.03
   4   5   7    9.89    5.85
  -4  -5  -7   10.93    8.53
   4   5   8    1.52    3.04
  -4  -5  -8    2.15    3.49
   4   5   9    8.77    4.73
  -4  -5  -9    7.31    8.87
   4   6 -13    1.45    4.38
  -4  -6  13   -1.28    8.41
   4   6 -12    1.15    4.17
  -4  -6  12   -0.84    7.41
   4   6 -11    8.22    9.29
  -4  -6  11    5.41    9.42
   4   6 -10    1.09    5.90
  -4  -6  10    4.04    6.01
   4   6  -9   61.37    9.89
  -4  -6   9   86.10   12.09
   4   6  -8   10.82    7.03
  -4  -6   8   11.85    9.74
   4   6  -7  169.71   12.47
  -4  -6   7  181.38   22.10
   4   6  -6    2.00    2.81
   4   6  -6    9.16    7.15
  -4  -6   6    3.54    6.33
   4   6  -5   71.34    8.08
   4   6  -5   87.03   14.91
  -4  -6   5   75.44   32.33
   4   6  -4  366.96   19.31
   4   6  -4  393.55   36.81
  -4  -6   4  368.38   30.02
   4   6  -3    1.84    2.48
   4   6  -3    6.55    3.97
  -4  -6   3    0.21    4.32
   4   6  -2  414.34   21.76
   4   6  -2  403.89   20.77
  -4  -6   2  402.73   28.99
   4   6  -1   77.64    7.29
   4   6  -1   72.78    7.67
  -4  -6   1   76.64   31.17
   4   6   0  120.18   11.18
   4   6   0  121.86   11.70
  -4  -6   0  107.28    8.89
   4   6   1    8.06    4.94
   4   6   1   13.45    9.70
  -4  -6  -1   12.56    7.49
   4   6   2  134.45   12.57
   4   6   2  163.34   10.69
  -4  -6  -2  137.82   10.93
   4   6   3    9.52    7.44
  -4  -6  -3    9.24    8.09
  -4  -6  -3   13.71    8.44
   4   6   4  133.84   12.91
  -4  -6  -4  118.76   11.57
  -4  -6  -4  121.13   10.72
   4   6   5   24.18   12.96
  -4  -6  -5   19.39   10.29
   4   6   6   30.27   26.01
  -4  -6  -6   21.83   13.40
   4   6   7  107.32   12.02
  -4  -6  -7   95.60   25.31
   4   6   8    8.22   12.50
  -4  -6  -8    6.95    5.77
   4   7 -12  182.90   23.06
  -4  -7  12  184.10   23.82
   4   7 -11   23.78   24.77
  -4  -7  11   21.53   16.73
   4   7 -10   34.07   20.13
  -4  -7  10   24.03    8.99
   4   7  -9  146.17   14.68
  -4  -7   9  137.55   14.06
   4   7  -8  199.17   17.80
  -4  -7   8  173.60   24.26
   4   7  -7   89.31   33.81
  -4  -7   7   68.08   36.90
   4   7  -6   34.84   22.76
  -4  -7   6   30.01   28.45
   4   7  -5   13.92    9.50
  -4  -7   5   12.12   11.56
   4   7  -4   29.16   18.72
  -4  -7   4   30.48   13.94
   4   7  -3    1.82    6.54
  -4  -7   3    3.29    7.75
   4   7  -2    3.33    3.96
  -4  -7   2    1.87    5.23
   4   7  -1  131.53    8.67
   4   7  -1  133.63   13.37
  -4  -7   1  124.70    9.36
   4   7   0   11.61    7.32
   4   7   0   18.12   11.08
  -4  -7   0    8.69    6.07
   4   7   1   14.36    5.30
  -4  -7  -1   11.98    7.58
   4   7   2    3.48    4.50
  -4  -7  -2    3.25    5.66
   4   7   3    1.43    3.15
  -4  -7  -3    2.64    8.11
  -4  -7  -3    2.94    4.72
   4   7   4    2.54    3.11
  -4  -7  -4    0.76    3.81
   4   7   5  172.87   16.00
  -4  -7  -5  152.73   11.80
   4   7   6    1.92    3.78
  -4  -7  -6    1.77    5.36
   4   8 -10    5.78    8.50
  -4  -8  10    6.40    6.52
   4   8  -9   27.42   19.83
  -4  -8   9   19.02   19.34
   4   8  -8   22.13   19.25
  -4  -8   8   23.78   17.96
   4   8  -7  281.85   19.40
  -4  -8   7  241.05   25.25
   4   8  -6  578.86   26.83
  -4  -8   6  532.83   34.38
   4   8  -5  354.54   28.86
  -4  -8   5  357.85   30.27
   4   8  -4    1.69    7.19
  -4  -8   4    4.43    7.98
   4   8  -3    9.37    9.63
  -4  -8   3    7.80   14.51
   4   8  -2   18.20   16.75
  -4  -8   2   25.19   17.02
   4   8  -1    6.90    6.10
  -4  -8   1    2.59    6.91
   4   8   0    8.08    3.58
  -4  -8   0    0.00    6.00
   4   8   1   92.31    9.70
  -4  -8  -1   83.27   12.08
  -4  -8  -2   18.55   13.19
  -4  -8  -2   12.85   13.72
  -4  -8  -3   33.07   30.55
  -4  -8  -4   99.14    9.55
   4   9  -8    1.57    4.68
  -4  -9   8   10.80   11.79
   4   9  -7   79.39   50.22
  -4  -9   7   60.75   44.17
   4   9  -6   23.75   13.07
  -4  -9   6   31.23   16.89
   4   9  -5  277.86   19.69
  -4  -9   5  235.27   48.94
   4   9  -4   25.89   24.40
  -4  -9   4   29.38   15.20
   4   9  -3    5.03    9.82
  -4  -9   3    4.23    6.25
   4   9  -2    2.80    5.40
  -4  -9   2   -1.95    6.63
   4   9  -1    0.27    3.20
  -4  -9   1    0.62    4.53
   4   9   0    4.71    6.98
  -4  -9   0    5.44    6.81
   4   9   1    0.85    6.44
  -4  -9  -1   -1.08    5.70
  -5  10   1    2.66    8.27
  -5  10   0    2.33    3.61
  -5  10  -1    2.51    4.41
  -5  10  -3  121.52   14.38
  -5  10  -4    7.02    7.03
  -5  10  -5   10.09   10.58
   5  -9  -5   13.61   15.20
  -5   9   5   18.25   17.17
  -5   9   4    2.20    7.25
  -5   9   3    5.49    3.97
  -5   9   2   21.84   15.58
  -5   9   1   40.22   36.41
  -5   9   0    3.13    5.00
  -5   9  -1    1.45    3.61
  -5   9  -2   71.59   10.73
  -5   9  -3   82.97   16.10
  -5   9  -4    3.31    6.17
  -5   9  -5    3.27    2.90
  -5   9  -5    4.03    7.64
  -5   9  -6   27.32   15.11
  -5   9  -6   26.04   16.35
  -5   9  -7    6.81    9.02
  -5   9  -7    4.85    7.54
  -5   9  -8   67.19    9.94
  -5   9  -8   43.52   18.71
   5  -8  -7    0.66    5.54
  -5   8   7    2.80    6.90
   5  -8  -6  120.40   13.78
  -5   8   6  114.65   12.86
   5  -8  -5    2.10    5.00
  -5   8   5   -2.12    5.77
   5  -8  -4    3.68    4.55
  -5   8   4    2.35    4.77
   5  -8  -3   54.34   16.89
  -5   8   3   59.06    9.91
   5  -8  -2    4.93    5.42
  -5   8   2    4.21    9.08
   5  -8  -1   71.40    8.07
  -5   8   1   91.40   10.31
   5  -8   0   73.24    8.99
  -5   8   0   72.18   11.80
   5  -8   1    4.26    5.69
  -5   8  -1    5.12    7.07
  -5   8  -2    6.12    7.59
  -5   8  -3  195.28   14.82
  -5   8  -3  202.75   20.47
  -5   8  -4   92.66    6.72
  -5   8  -4  117.69   29.32
  -5   8  -5  205.03   10.29
  -5   8  -5  192.46   14.79
  -5   8  -6  284.12   24.03
  -5   8  -6  291.29   23.44
  -5   8  -7  208.06   15.29
  -5   8  -7  165.17   21.63
  -5   8  -8    1.97    2.36
  -5   8  -8    4.49    6.93
  -5   8  -9   75.56   11.73
  -5   8  -9   83.11    8.75
  -5   8 -10  101.97   16.93
  -5   8 -10   79.04   10.94
   5  -7  -9   21.99    6.84
  -5   7   9   18.06   19.09
   5  -7  -8    5.99    7.95
  -5   7   8   11.06    8.15
   5  -7  -7    3.21    4.23
  -5   7   7   -1.20    4.22
   5  -7  -6    5.32    6.08
  -5   7   6    2.64    4.05
   5  -7  -5    3.28    6.74
  -5   7   5   -1.13    4.23
   5  -7  -4   27.47    5.42
  -5   7   4   32.54   25.23
   5  -7  -3    1.70    3.83
  -5   7   3    3.20    5.12
   5  -7  -2   42.35    6.50
  -5   7   2   44.80   25.90
   5  -7  -1  167.20   12.66
  -5   7   1  164.02   12.47
   5  -7   0  206.29   19.40
  -5   7   0  217.00   17.30
   5  -7   1  350.30   22.27
  -5   7  -1  315.29   19.41
  -5   7  -1  328.68   21.09
   5  -7   2   98.91    8.21
  -5   7  -2   98.63    8.12
  -5   7  -2   91.11    9.64
   5  -7   3    0.37    4.34
  -5   7  -3    1.04    1.67
  -5   7  -3   -5.72    8.00
   5  -7   4  256.58   12.35
  -5   7  -4  238.99   10.95
  -5   7  -4  217.04   13.95
   5  -7   5    3.45    4.26
  -5   7  -5    3.12    4.06
  -5   7  -5    2.46    5.09
   5  -7   6   31.36    6.32
  -5   7  -6   45.82    6.77
  -5   7  -6   22.49   10.39
  -5   7  -7    5.72    5.07
  -5   7  -7    8.71    5.03
  -5   7  -8   82.21   10.79
  -5   7  -8   61.21    8.73
  -5   7  -9    2.15    6.02
  -5   7  -9    4.44    4.51
  -5   7 -10   -1.06    5.77
  -5   7 -10    2.07    3.24
  -5   7 -11   15.59   11.52
  -5   7 -11   19.12   19.11
   5  -6 -10    4.29    5.39
  -5   6  10    6.46    6.03
   5  -6  -9   18.34    7.46
  -5   6   9   20.86   18.39
   5  -6  -8   26.11    9.60
  -5   6   8   36.03   17.86
   5  -6  -7    5.06    6.67
  -5   6   7    5.04    4.22
   5  -6  -6    1.85    5.52
  -5   6   6    5.11    6.03
   5  -6  -5   33.80   23.05
  -5   6   5   41.53   21.20
   5  -6  -4  360.09   26.02
  -5   6   4  362.48   33.85
   5  -6  -3  492.68   28.25
  -5   6   3  543.83   31.08
   5  -6  -2  340.12   20.14
  -5   6   2  358.59   22.04
   5  -6  -1    1.98    3.70
  -5   6   1    0.36    0.75
  -5   6   1    2.11    4.23
   5  -6   0   85.77   14.63
  -5   6   0   61.98    3.48
  -5   6   0   81.59    8.18
   5  -6   1  609.44   41.72
  -5   6  -1  625.84   16.28
   5  -6   2 2800.94   44.04
  -5   6  -2 2711.54   29.28
  -5   6  -2 2380.04   86.49
   5  -6   3  404.68   26.73
  -5   6  -3  423.90   19.31
   5  -6   4    1.61    2.29
  -5   6  -4   -1.57    4.94
  -5   6  -4   -0.37    6.16
   5  -6   5    3.89    4.41
  -5   6  -5    4.68    6.29
  -5   6  -5    6.19    8.74
   5  -6   6   18.05   11.47
  -5   6  -6   16.28    8.58
  -5   6  -6   19.31   11.11
   5  -6   7   27.36   22.17
  -5   6  -7   33.83   19.85
  -5   6  -7   28.91   11.28
   5  -6   8   95.65   11.73
  -5   6  -8   94.17   11.36
  -5   6  -8   79.19   35.26
   5  -6   9    3.68    3.67
  -5   6  -9    5.89    7.02
  -5   6  -9   10.59    6.50
   5  -6  10    1.95    3.14
  -5   6 -10    5.43    3.85
  -5   6 -10    1.14    3.98
  -5   6 -11    0.88    5.05
  -5   6 -12  145.79   20.66
   5  -5 -11   18.12   12.69
   5  -5 -10   63.93   16.46
  -5   5  10   68.69   10.91
   5  -5  -9   99.99   12.85
  -5   5   9  133.38   14.93
   5  -5  -8   23.43    7.18
  -5   5   8   19.57   10.57
   5  -5  -7   13.43   10.00
  -5   5   7   10.04    7.01
   5  -5  -6   47.62   26.22
  -5   5   6   41.86   20.69
   5  -5  -5    8.68    8.03
  -5   5   5    4.67    4.45
   5  -5  -4   49.66    9.15
  -5   5   4   50.60   10.00
   5  -5  -3   13.89    5.29
  -5   5   3   19.84   12.04
   5  -5  -2  455.71   29.67
  -5   5   2  454.15   20.56
   5  -5  -1  674.42   28.02
  -5   5   1  651.32   14.00
   5  -5   0   12.54    7.68
  -5   5   0    7.48    4.35
  -5   5   0    8.26    4.74
   5  -5   1   18.06    9.77
  -5   5  -1   19.49   10.13
  -5   5  -1   26.42   11.19
   5  -5   2  293.61   19.18
  -5   5  -2  274.47   16.51
  -5   5  -2  283.05   17.84
   5  -5   3 1697.42   84.15
  -5   5  -3 1653.77   82.94
  -5   5  -3 1810.54   77.45
   5  -5   4   70.14    6.75
  -5   5  -4   83.89   10.17
  -5   5  -4   91.68    8.42
   5  -5   5   48.11    7.06
  -5   5  -5   44.34    6.19
  -5   5  -5   47.46    7.78
   5  -5   6  311.61   18.10
  -5   5  -6  336.05   27.73
  -5   5  -6  319.11   30.34
   5  -5   7    4.28    3.27
  -5   5  -7    4.02    4.45
  -5   5  -7    5.49    8.63
   5  -5   8  113.85   10.89
  -5   5  -8   98.09   11.03
  -5   5  -8  115.19   10.09
   5  -5   9  110.74   23.85
  -5   5  -9  105.24   27.34
  -5   5  -9  108.77    9.39
   5  -5  10  189.15   15.53
  -5   5 -10  176.88   17.74
  -5   5 -10  182.92   15.07
   5  -5  11  198.75   21.74
  -5   5 -11  185.38   13.16
   5  -5  12    3.47    2.75
  -5   5 -12    1.24    5.26
   5  -4 -12    9.79    8.21
   5  -4 -11    5.74   11.68
  -5   4  11    5.48    6.28
   5  -4 -10    9.32    6.88
  -5   4  10    8.10    7.62
   5  -4  -9    8.62   14.38
  -5   4   9    9.54    8.41
   5  -4  -8  113.34   12.13
  -5   4   8  115.76   12.20
   5  -4  -7   71.05    8.91
  -5   4   7   99.27    8.90
   5  -4  -6  159.33   13.51
  -5   4   6  178.27   11.43
   5  -4  -5  497.94   30.25
  -5   4   5  502.14   28.97
   5  -4  -4   10.40    7.34
  -5   4   4    6.90    1.99
  -5   4   4    9.16    1.98
  -5   4   4   13.64    9.09
   5  -4  -3   96.30   11.11
  -5   4   3   77.58    4.50
  -5   4   3   81.07   10.56
   5  -4  -2   50.23   21.20
  -5   4   2   37.03    4.35
  -5   4   2   33.77    4.29
  -5   4   2   53.77   13.73
   5  -4  -1   76.66    8.04
  -5   4   1   73.72    5.18
  -5   4   1   85.76   11.22
   5  -4   0  290.53   18.25
  -5   4   0  321.20    8.20
  -5   4   0  301.81   17.46
   5  -4   1  208.06   15.24
  -5   4  -1  235.98   13.27
  -5   4  -1  220.19   12.62
   5  -4   2   26.42   13.75
  -5   4  -2   25.38   12.23
  -5   4  -2   20.01    8.04
   5  -4   3  581.56   26.05
  -5   4  -3  610.15   23.51
  -5   4  -3  680.17   19.41
   5  -4   4  491.02   21.18
  -5   4  -4  504.87   16.47
  -5   4  -4  508.68   16.81
   5  -4   5  881.76   42.85
  -5   4  -5  871.18   42.33
  -5   4  -5  825.52   40.58
   5  -4   6  340.36   23.38
  -5   4  -6  337.93   16.28
  -5   4  -6  330.84   21.29
   5  -4   7   76.94   17.90
  -5   4  -7   77.65    7.97
  -5   4  -7   80.77    6.34
   5  -4   8  188.35   12.69
  -5   4  -8  152.08   12.16
  -5   4  -8  169.45   11.82
   5  -4   9    8.30    5.64
  -5   4  -9    6.92    5.63
  -5   4  -9    4.26    3.78
   5  -4  10    5.53    8.57
  -5   4 -10    0.20    3.84
   5  -4  11   91.59   10.49
  -5   4 -11   75.29    9.41
   5  -4  12  135.76   10.55
  -5   4 -12  139.13   12.31
   5  -3 -13   12.73   15.45
   5  -3 -12   27.27   15.89
  -5   3  12   22.90   16.61
   5  -3 -11    8.39    7.27
  -5   3  11    4.28    4.76
   5  -3 -10   21.36   10.40
  -5   3  10   12.11    8.51
   5  -3  -9   20.69    7.85
  -5   3   9   25.90   11.75
   5  -3  -8    7.66    7.55
  -5   3   8    0.83    2.48
   5  -3  -7   27.08   15.79
   5  -3  -7   20.00    1.86
  -5   3   7   23.13   10.33
   5  -3  -6   27.93    8.60
   5  -3  -6   26.55    2.31
  -5   3   6   27.30   11.81
   5  -3  -5  435.69   30.96
  -5   3   5  381.65    8.13
  -5   3   5  404.22   20.22
  -5   3   4  721.81   10.54
  -5   3   4  699.38   15.09
  -5   3   4  771.00   27.93
   5  -3  -3  419.77   20.06
  -5   3   3  441.34    8.62
  -5   3   3  395.02   17.45
   5  -3  -2  156.59   11.72
  -5   3   2  172.22    8.19
  -5   3   2  164.01   10.20
   5  -3  -1   18.36   10.06
  -5   3   1   15.50    7.79
  -5   3   1   15.96    6.11
   5  -3   0  750.38   35.13
   5  -3   1 2745.49   47.79
  -5   3  -1 2495.20   87.28
  -5   3  -1 2591.16   48.25
   5  -3   2  515.17   16.47
  -5   3  -2  467.80   24.17
  -5   3  -2  481.60   16.35
   5  -3   3    7.22    4.90
  -5   3  -3    2.62    2.59
  -5   3  -3   -1.34    5.00
   5  -3   4  311.29   15.21
  -5   3  -4  288.88   17.37
   5  -3   5  479.06   25.28
  -5   3  -5  476.57   17.51
  -5   3  -5  477.34   14.41
   5  -3   6  605.46   31.98
  -5   3  -6  609.71   37.01
  -5   3  -6  597.41   30.35
   5  -3   7 1494.46   68.00
  -5   3  -7 1685.42   31.72
  -5   3  -7 1603.49   25.16
   5  -3   8  160.20   11.06
  -5   3  -8  158.73   10.92
  -5   3  -8  167.89   10.98
   5  -3   9   70.50    8.94
  -5   3  -9   81.68    9.44
  -5   3  -9   81.06    6.77
   5  -3  10    4.14    5.28
  -5   3 -10   13.42    8.03
   5  -3  11   20.46   15.22
  -5   3 -11   13.88   13.39
   5  -3  12   10.04   12.53
  -5   3 -12    9.45    7.20
   5  -3  13   58.93   34.54
  -5   3 -13   75.51   10.78
   5  -2 -14   51.64   27.36
   5  -2 -13   76.16   11.95
   5  -2 -12  229.42   19.67
  -5   2  12  254.60   16.79
   5  -2 -11    5.58    6.60
  -5   2  11    3.85    4.18
   5  -2 -10    3.14    7.56
  -5   2  10   11.27    7.89
   5  -2  -9  157.28   13.17
   5  -2  -9  127.54    8.89
  -5   2   9  132.85   10.41
   5  -2  -8    9.02    8.00
   5  -2  -8    6.31    3.91
  -5   2   8    9.29    5.01
   5  -2  -7  154.59   10.30
   5  -2  -7  159.89    7.21
  -5   2   7  164.74   21.03
   5  -2  -6  346.35   23.90
   5  -2  -6  332.84   12.61
  -5   2   6  340.07   22.92
   5  -2  -5  567.10   18.38
   5  -2  -5  538.25   11.20
  -5   2   5  579.53   17.52
   5  -2  -4  349.55   20.38
   5  -2  -4  360.18    8.90
  -5   2   4  338.48   16.37
   5  -2  -3   21.96   11.15
  -5   2   3   26.94    3.27
  -5   2   3   18.46   13.08
   5  -2  -2  382.00   21.10
  -5   2   2  389.83   18.03
  -5   2   2  363.07   20.14
   5  -2  -1   31.63   17.23
  -5   2   1   37.64    4.09
  -5   2   1   26.96    5.40
   5  -2   0    8.01    5.55
  -5   2   0    8.04    3.96
  -5   2   0    8.39    4.31
   5  -2   1  494.14   22.44
  -5   2  -1  461.14   20.06
  -5   2  -1  521.19   22.16
   5  -2   2  457.24   24.47
  -5   2  -2  483.37   20.87
  -5   2  -2  473.86   29.36
   5  -2   3  311.94   13.63
  -5   2  -3  331.96   14.77
  -5   2  -3  344.79   12.33
   5  -2   4  110.56    9.05
  -5   2  -4  141.97   11.27
  -5   2  -4  118.57    8.53
   5  -2   5   26.44   12.95
  -5   2  -5   25.10   13.67
  -5   2  -5   22.55   10.28
   5  -2   6    8.88   10.73
  -5   2  -6    6.60    6.14
  -5   2  -6    4.24    6.17
   5  -2   7   13.05   11.23
  -5   2  -7   15.04    7.37
  -5   2  -7   13.15    5.32
   5  -2   8  798.91   43.83
  -5   2  -8  773.44   45.99
  -5   2  -8  754.50   43.49
   5  -2   9   93.20   12.45
  -5   2  -9   95.21   10.17
   5  -2  10   10.86    6.73
  -5   2 -10    3.84    6.01
   5  -2  11    3.92    7.87
  -5   2 -11    1.73    5.83
   5  -2  12  140.40   17.33
  -5   2 -12  121.15   12.58
   5  -2  13    4.47    3.65
  -5   2 -13   -0.69    3.98
   5  -1 -14   21.33   11.07
   5  -1 -13   28.83   26.97
  -5   1  13   19.26   17.13
   5  -1 -12   49.75   33.53
  -5   1  12   67.37    7.96
   5  -1 -11   98.13   12.40
   5  -1 -11   91.44   11.51
  -5   1  11  100.31    9.54
   5  -1 -10   26.23   11.00
   5  -1 -10   17.19   10.64
  -5   1  10   19.86    6.07
   5  -1  -9   20.16    6.97
   5  -1  -9   12.28    8.77
  -5   1   9    6.81    7.15
   5  -1  -8  846.42   23.61
   5  -1  -8  779.91   15.33
  -5   1   8  742.93   23.96
   5  -1  -7   38.15    6.29
   5  -1  -7   58.44    5.82
  -5   1   7   46.06    6.81
   5  -1  -6   44.90   21.16
   5  -1  -6   46.53    5.29
  -5   1   6   44.75   24.01
   5  -1  -5  253.40   16.05
   5  -1  -5  266.89   11.69
  -5   1   5  244.34   18.78
   5  -1  -4   42.01   22.61
   5  -1  -4   46.03    5.86
  -5   1   4   34.49   22.96
   5  -1  -3 1493.59   55.72
   5  -1  -3 1465.10   56.22
  -5   1   3 1307.34   49.28
   5  -1  -2  609.45   25.80
   5  -1  -2  571.53   19.52
  -5   1   2  610.71   18.27
   5  -1  -1  923.51   25.45
  -5   1   1  851.30   23.36
  -5   1   1  816.29   25.68
   5  -1   0  581.13   21.47
  -5   1   0  631.90   19.65
  -5   1   0  618.86   18.41
   5  -1   1  123.00    9.10
  -5   1  -1  135.87    6.82
  -5   1  -1  141.05    9.15
   5  -1   2  367.76   18.84
  -5   1  -2  419.26   18.59
  -5   1  -2  388.04   16.60
   5  -1   3   80.55   20.03
  -5   1  -3   63.50    5.80
  -5   1  -3   68.97    9.07
   5  -1   4   14.54    5.57
  -5   1  -4   14.44    6.75
  -5   1  -4   13.09    8.77
   5  -1   5   41.74   20.45
  -5   1  -5   35.87   20.25
  -5   1  -5   39.33    3.92
   5  -1   6   26.31   11.25
  -5   1  -6   29.72   11.84
  -5   1  -6   30.34    3.05
   5  -1   7  123.12   16.75
  -5   1  -7  124.30    9.27
  -5   1  -7  126.27    7.02
   5  -1   8  635.21   37.50
  -5   1  -8  660.49   38.52
   5  -1   9   63.55   28.79
  -5   1  -9   43.61   19.94
   5  -1  10   74.93   18.52
  -5   1 -10   61.25   23.93
   5  -1  11  125.35   25.84
  -5   1 -11  121.03   12.01
   5  -1  12    5.78    9.44
  -5   1 -12   -2.12    7.61
   5   0 -14    7.56    9.72
  -5   0  14    1.45    7.29
   5   0 -13   17.76   10.09
   5   0 -13   10.51    9.64
  -5   0  13    7.44    6.20
   5   0 -12    5.75   11.27
   5   0 -12    3.84    5.13
  -5   0  12    2.93    4.45
   5   0 -11  115.82   11.08
   5   0 -11  111.60    8.07
  -5   0  11  118.66    9.29
   5   0 -10   32.39   20.05
   5   0 -10   25.78   12.58
  -5   0  10   26.54   14.77
   5   0  -9    6.99    7.04
   5   0  -9    6.23    5.26
  -5   0   9    6.23    5.02
   5   0  -8   31.58    6.55
   5   0  -8   29.88   15.56
  -5   0   8   39.97   15.60
   5   0  -7   96.29   12.23
   5   0  -7   98.53   11.13
  -5   0   7   83.65    8.40
   5   0  -6  502.15   18.34
   5   0  -6  455.33   15.69
  -5   0   6  464.41   15.33
   5   0  -5  111.03    9.79
   5   0  -5  142.98   13.88
  -5   0   5  115.15    8.52
   5   0  -4    4.94    5.71
   5   0  -4    1.68    2.88
  -5   0   4    1.66    3.68
   5   0  -3   72.41    7.22
   5   0  -3   82.70   11.81
  -5   0   3  102.34    9.00
   5   0  -2    3.91    4.82
   5   0  -2   13.06    5.54
  -5   0   2    5.02    5.61
   5   0  -1   33.62   18.41
   5   0  -1   35.06   17.84
  -5   0   1   29.39   10.66
   5   0   0  698.47   22.49
  -5   0   0  698.91   22.27
  -5   0   0  735.80   23.28
   5   0   1   16.39   10.50
  -5   0  -1   14.59   11.86
  -5   0  -1   19.62    9.67
   5   0   2  179.82   12.35
  -5   0  -2  157.94    9.61
  -5   0  -2  139.33    6.78
   5   0   3   42.05   21.60
  -5   0  -3   37.60   16.00
  -5   0  -3   47.37    7.07
   5   0   4  166.12   14.02
  -5   0  -4  159.40   13.33
  -5   0  -4  157.89    8.74
   5   0   5   99.48   10.61
  -5   0  -5   95.58    9.00
  -5   0  -5   87.89    5.84
   5   0   6   51.80    7.38
  -5   0  -6   58.48    6.66
  -5   0  -6   61.60    4.03
   5   0   7   54.93    9.82
  -5   0  -7   52.68    6.88
  -5   0  -7   54.17    3.51
   5   0   8    7.40    8.35
  -5   0  -8    2.36    4.55
   5   0   9    6.37    7.53
  -5   0  -9    1.56    6.17
   5   0  10  140.11   17.40
  -5   0 -10  114.45   12.25
   5   0  11    3.46    4.32
  -5   0 -11    6.67    6.76
   5   0  12    2.58    4.36
  -5   0 -12    8.24    7.17
   5   1 -14   -0.08    6.30
   5   1 -14    3.12    2.58
  -5  -1  14   -1.49    5.44
   5   1 -13    8.27    6.66
   5   1 -13   -0.17    4.38
  -5  -1  13   -0.27    3.44
   5   1 -12   54.06   27.21
   5   1 -12   46.06    7.69
  -5  -1  12   50.24    9.29
   5   1 -11  605.15   27.40
   5   1 -11  542.30   18.32
  -5  -1  11  507.57   28.21
   5   1 -10  788.42   28.76
   5   1 -10  764.38   24.77
  -5  -1  10  727.75   31.72
   5   1  -9  288.61   25.23
   5   1  -9  297.70   22.55
  -5  -1   9  325.81   18.41
   5   1  -8   97.19    8.49
   5   1  -8  111.74    8.09
  -5  -1   8  104.96   21.21
   5   1  -7  885.52   26.24
   5   1  -7  837.34   19.80
  -5  -1   7  793.96   21.95
   5   1  -6  177.52   13.46
   5   1  -6  190.49   14.78
  -5  -1   6  185.04   13.49
   5   1  -5  327.23   12.54
   5   1  -5  352.29   11.86
  -5  -1   5  360.18   27.43
   5   1  -4    5.17    4.94
   5   1  -4    6.97    4.95
  -5  -1   4    4.95    5.94
   5   1  -3  142.49    9.39
   5   1  -3  148.97    8.73
  -5  -1   3  145.24    8.83
   5   1  -2  401.22   18.87
   5   1  -2  397.50   18.30
  -5  -1   2  356.50   20.38
   5   1  -1  767.18   31.95
   5   1  -1  828.27   36.91
  -5  -1   1  852.42   33.65
   5   1   0  840.54   37.22
   5   1   0  980.90   39.81
  -5  -1   0  821.75   33.46
   5   1   1   -3.08    5.22
  -5  -1  -1    1.52    5.52
  -5  -1  -1    1.90    4.18
   5   1   2   14.98    8.29
  -5  -1  -2   -0.66    5.33
  -5  -1  -2    2.91    3.38
   5   1   3  201.53   12.80
  -5  -1  -3  219.14   12.75
  -5  -1  -3  218.09   11.17
   5   1   4  405.38   19.30
  -5  -1  -4  377.67   13.85
  -5  -1  -4  401.84   13.40
   5   1   5   59.25   26.59
  -5  -1  -5   50.64    8.80
  -5  -1  -5   53.90    4.78
   5   1   6   85.79    9.05
  -5  -1  -6   91.96    8.99
  -5  -1  -6   88.24    4.71
   5   1   7   60.76   11.50
  -5  -1  -7   40.02   21.97
   5   1   8  144.48   17.48
  -5  -1  -8  146.36   10.43
   5   1   9   12.96    9.76
  -5  -1  -9   18.30    8.43
   5   1  10  105.01   38.19
  -5  -1 -10   95.37   11.23
   5   1  11   47.38   21.11
  -5  -1 -11   35.21   23.13
   5   1  12    8.45    6.92
  -5  -1 -12    3.67    2.98
   5   2 -14    3.14    6.11
   5   2 -14    4.35    7.45
  -5  -2  14    5.65    4.95
   5   2 -13    1.80    4.85
   5   2 -13    2.85    4.92
  -5  -2  13    2.54    7.60
   5   2 -12   85.86   10.78
   5   2 -12   62.79    8.80
  -5  -2  12   73.86   10.51
   5   2 -11   -2.83    6.70
   5   2 -11    2.76    2.95
  -5  -2  11    2.23    4.66
   5   2 -10  233.37   18.77
   5   2 -10  276.35   13.45
  -5  -2  10  232.11   23.13
   5   2  -9   61.65    7.44
   5   2  -9   62.56    6.78
  -5  -2   9   65.49   12.72
   5   2  -8    3.46    4.60
   5   2  -8    3.71    5.32
  -5  -2   8    6.39   10.35
   5   2  -7    5.50    5.16
   5   2  -7    0.67    5.66
  -5  -2   7    2.89    6.50
   5   2  -6   35.21    5.85
   5   2  -6   31.05   14.92
  -5  -2   6   39.08   18.50
   5   2  -5  153.81   12.40
   5   2  -5  145.17    9.63
  -5  -2   5  155.01   10.52
   5   2  -4  301.46   14.67
   5   2  -4  297.78   13.87
  -5  -2   4  293.03   12.87
   5   2  -3  974.55   20.90
   5   2  -3  893.78   35.52
  -5  -2   3  911.34   19.09
   5   2  -2   14.65    6.78
   5   2  -2   13.73    7.47
  -5  -2   2   19.85   11.16
   5   2  -1   36.83   14.97
   5   2  -1   40.55   16.32
  -5  -2   1   31.79   20.39
   5   2   0  954.52   29.06
   5   2   0 1022.38   20.97
  -5  -2   0 1109.75   20.33
   5   2   1  154.48   10.79
  -5  -2  -1  173.63   11.21
  -5  -2  -1  174.34   10.89
   5   2   2   33.47   17.22
  -5  -2  -2   23.28    8.37
  -5  -2  -2   34.94   16.66
   5   2   3   30.74   18.85
  -5  -2  -3   35.65    6.64
  -5  -2  -3   36.61    4.54
   5   2   4  310.28   22.30
  -5  -2  -4  277.27   19.48
  -5  -2  -4  305.79   14.86
   5   2   5   63.83   25.11
  -5  -2  -5   56.49   28.69
  -5  -2  -5   62.68    4.98
   5   2   6    7.42    8.83
  -5  -2  -6    7.63    5.92
   5   2   7    4.38    8.47
  -5  -2  -7    6.56    4.64
   5   2   8    2.49    6.95
  -5  -2  -8    3.08    5.89
   5   2   9   27.04   20.68
  -5  -2  -9   32.18   21.21
   5   2  10   -1.75    5.70
  -5  -2 -10    3.38    6.20
   5   2  11    2.75    5.31
  -5  -2 -11   -2.76    5.72
   5   3 -14    9.90    5.77
   5   3 -14   -0.52    5.80
  -5  -3  14    4.40    8.07
   5   3 -13   15.01   11.43
   5   3 -13   11.14    6.63
  -5  -3  13   12.28   11.64
   5   3 -12   25.30   13.75
   5   3 -12   24.48   13.96
  -5  -3  12   17.93   11.11
   5   3 -11   63.17    7.96
   5   3 -11   39.17   20.51
  -5  -3  11   54.79   27.54
   5   3 -10    2.81    6.59
   5   3 -10    2.68    5.52
  -5  -3  10   -0.15    8.45
   5   3  -9   34.28   11.87
   5   3  -9   27.61   13.18
  -5  -3   9   31.70   12.62
   5   3  -8  132.06   13.83
   5   3  -8  166.31   11.75
  -5  -3   8  153.58   13.24
   5   3  -7  159.04   13.20
   5   3  -7  168.70   10.45
  -5  -3   7  151.39   18.61
   5   3  -6  105.24    8.77
   5   3  -6  102.69    8.19
  -5  -3   6  116.32    9.84
   5   3  -5  157.93   12.02
   5   3  -5  124.75    9.16
  -5  -3   5  124.30   11.87
   5   3  -4   81.15    8.77
   5   3  -4   80.97    8.80
  -5  -3   4   67.63    8.17
   5   3  -3    4.91    8.43
   5   3  -3    5.97    5.24
  -5  -3   3   -2.32    8.00
   5   3  -2  724.19   23.39
   5   3  -2  867.22   21.99
  -5  -3   2  757.43   21.04
   5   3  -1  261.13   14.12
   5   3  -1  263.59   12.11
  -5  -3   1  234.27   13.05
   5   3   0  864.88   22.17
   5   3   0  801.82   32.58
  -5  -3   0  719.57   21.54
   5   3   1 2706.90   43.90
   5   3   1 2682.63   69.12
  -5  -3  -1 2673.00   52.63
   5   3   2  352.45   27.26
  -5  -3  -2  323.89   23.49
  -5  -3  -2  325.39   20.50
   5   3   3  122.79    9.61
  -5  -3  -3  139.07   15.58
  -5  -3  -3  131.53    8.97
   5   3   4  400.01   38.08
  -5  -3  -4  456.96   23.69
  -5  -3  -4  416.57   21.14
   5   3   5   38.97   24.83
  -5  -3  -5   48.17   23.09
  -5  -3  -5   44.94    3.92
   5   3   6  117.71   10.70
  -5  -3  -6   90.18    8.43
   5   3   7   19.21    6.72
  -5  -3  -7   10.70    5.74
   5   3   8   30.63   15.87
  -5  -3  -8   15.99    6.38
   5   3   9  111.69   16.13
  -5  -3  -9   95.64    9.59
   5   3  10    7.77    7.81
  -5  -3 -10    2.39    3.03
   5   4 -14   21.56    9.05
   5   4 -14    8.37   10.66
  -5  -4  14   14.98   13.83
   5   4 -13   18.46   17.76
   5   4 -13   17.61   11.39
  -5  -4  13   19.45   13.47
   5   4 -12    7.56    8.06
   5   4 -12    5.88    9.59
  -5  -4  12    3.87    7.56
   5   4 -11   99.77   10.55
   5   4 -11  103.69   12.50
  -5  -4  11  108.25   13.48
   5   4 -10   85.94    9.38
   5   4 -10   75.33    9.33
  -5  -4  10   75.59   10.73
   5   4  -9    0.62    3.37
   5   4  -9    2.62    4.45
  -5  -4   9    5.70    6.98
   5   4  -8   41.33    5.63
   5   4  -8   37.15   19.52
  -5  -4   8   45.00   21.03
   5   4  -7 1128.50   47.49
   5   4  -7 1130.32   47.82
  -5  -4   7 1053.98   57.83
   5   4  -6  622.88   23.47
   5   4  -6  715.61   23.00
  -5  -4   6  600.15   32.38
   5   4  -5   19.68   16.22
   5   4  -5   32.73   23.21
  -5  -4   5   37.80   14.56
   5   4  -4  306.52   19.73
   5   4  -4  337.18   31.56
  -5  -4   4  284.80   22.45
   5   4  -3  511.86   27.28
   5   4  -3  502.19   27.17
  -5  -4   3  529.45   35.12
   5   4  -2    2.44    2.90
   5   4  -2   -1.42    5.31
  -5  -4   2    2.07    6.98
   5   4  -1   25.86   18.31
   5   4  -1   27.37   13.97
  -5  -4   1   30.76    9.06
   5   4   0  101.49    8.15
   5   4   0  101.61   21.42
  -5  -4   0   86.82   27.00
   5   4   1    4.52    6.16
   5   4   1    4.30    7.46
  -5  -4  -1    6.85    5.83
   5   4   2  697.24   31.42
  -5  -4  -2  644.37   29.58
  -5  -4  -2  752.53   31.57
   5   4   3  735.45   37.43
  -5  -4  -3  687.96   50.22
  -5  -4  -3  765.49   34.40
   5   4   4    4.06   11.40
  -5  -4  -4    9.74    7.07
  -5  -4  -4    1.74    4.29
   5   4   5  119.22   11.63
  -5  -4  -5  123.69   10.65
   5   4   6    0.69    4.45
  -5  -4  -6    7.02    4.61
   5   4   7   10.35    5.74
  -5  -4  -7    6.31    7.01
   5   4   8    2.46    3.96
  -5  -4  -8    3.70    2.83
   5   4   9    7.90    9.55
  -5  -4  -9    6.55    5.17
   5   5 -13    7.35    7.94
  -5  -5  13    7.52    7.77
   5   5 -12    1.64    4.70
  -5  -5  12    1.60    5.30
   5   5 -11   11.41   14.00
  -5  -5  11    7.16    9.77
   5   5 -10  368.75   25.62
   5   5 -10  450.70   21.88
  -5  -5  10  351.64   27.47
   5   5  -9  125.53   10.25
   5   5  -9  158.94   14.57
  -5  -5   9  140.78   17.43
   5   5  -8   27.12   11.44
   5   5  -8   27.89   27.17
  -5  -5   8   16.72   17.38
   5   5  -7    1.94    4.76
   5   5  -7   -1.30    7.22
  -5  -5   7    7.25   11.01
   5   5  -6  506.52   28.69
   5   5  -6  454.66   27.27
  -5  -5   6  429.88   31.44
   5   5  -5    1.06    3.05
   5   5  -5    1.58    5.45
  -5  -5   5    3.91    5.10
   5   5  -4   46.99    6.06
   5   5  -4   59.52    7.11
  -5  -5   4   60.34   12.30
   5   5  -3   46.13    6.62
   5   5  -3   64.61    7.92
  -5  -5   3   55.63   21.49
   5   5  -2  137.14    9.76
   5   5  -2   91.18    7.93
  -5  -5   2   88.31   11.24
   5   5  -1  382.69   23.36
   5   5  -1  367.50   19.60
  -5  -5   1  390.50   25.70
   5   5   0   99.42   10.94
   5   5   0  116.94    9.90
  -5  -5   0  100.15   11.25
   5   5   1   66.72    9.97
   5   5   1   72.34    8.13
  -5  -5  -1   59.24   20.00
   5   5   2  805.34   27.52
  -5  -5  -2  792.29   28.26
  -5  -5  -2  754.18   35.94
   5   5   3    3.31    7.86
  -5  -5  -3    1.35    4.09
  -5  -5  -3    1.99    3.39
   5   5   4   78.28   10.30
  -5  -5  -4   67.91   29.15
   5   5   5   53.52   28.99
  -5  -5  -5   64.74   25.35
   5   5   6   44.59   29.04
  -5  -5  -6   36.41   24.98
   5   5   7    4.62    6.59
  -5  -5  -7    3.43    4.36
   5   5   8   12.48    8.57
  -5  -5  -8   19.05   16.92
   5   6 -12    2.07    3.75
  -5  -6  12    4.44    6.92
   5   6 -11    3.11    4.06
  -5  -6  11    2.89    9.16
   5   6 -10    4.20    6.41
  -5  -6  10    0.94    9.18
   5   6  -9   -1.10    6.82
  -5  -6   9   -3.74    8.47
   5   6  -8    3.82    6.72
  -5  -6   8    1.86    5.54
   5   6  -7   52.32   25.97
  -5  -6   7   41.06   17.14
   5   6  -6   50.46    5.59
   5   6  -6   49.12    8.30
  -5  -6   6   30.32   24.32
   5   6  -5    3.77    5.02
   5   6  -5   13.35   10.38
  -5  -6   5    7.04    9.00
   5   6  -4   20.03   12.78
   5   6  -4   15.69    7.75
  -5  -6   4   12.21    6.79
   5   6  -3    4.61    3.69
   5   6  -3    3.46    4.18
  -5  -6   3    2.36    6.71
   5   6  -2    4.11    4.62
   5   6  -2    3.49    6.85
  -5  -6   2    4.50    4.84
   5   6  -1  170.14   13.53
   5   6  -1  168.17   11.07
  -5  -6   1  178.74   13.39
   5   6   0   29.05   22.92
   5   6   0   46.35   18.35
  -5  -6   0   39.92   21.55
   5   6   1    3.40    2.76
   5   6   1    4.20    4.58
  -5  -6  -1    7.65    8.28
   5   6   2  106.99   12.01
  -5  -6  -2   68.99   39.42
  -5  -6  -2   77.55    8.06
   5   6   3  261.67   13.07
  -5  -6  -3  232.22   14.93
  -5  -6  -3  237.10   14.62
   5   6   4  309.87   27.50
  -5  -6  -4  293.26   24.13
   5   6   5  210.30   12.73
  -5  -6  -5  211.47   18.35
   5   6   6  129.29   10.95
  -5  -6  -6  125.00   10.40
   5   6   7   11.99   12.98
  -5  -6  -7   17.15   10.99
   5   7 -11    7.78    7.67
  -5  -7  11    5.47    9.59
   5   7 -10   12.74   11.95
  -5  -7  10   14.31    9.63
   5   7  -9    2.86    6.29
  -5  -7   9    5.18    6.65
   5   7  -8   90.81   10.17
  -5  -7   8   82.71   15.60
   5   7  -7   -0.94    7.28
  -5  -7   7   -2.00    8.54
   5   7  -6   12.52   10.83
  -5  -7   6   16.37   13.76
   5   7  -5    2.22    6.34
  -5  -7   5    5.43    9.10
   5   7  -4   27.62   13.09
  -5  -7   4   24.83    9.06
   5   7  -3   -2.31    5.78
  -5  -7   3    5.40    8.18
   5   7  -2   18.04    9.11
  -5  -7   2  120.71   26.02
   5   7  -1   25.03   17.63
   5   7  -1   37.69   23.97
  -5  -7   1   25.34   17.39
   5   7   0   13.64   11.66
   5   7   0   18.93   13.00
  -5  -7   0   15.41    8.10
   5   7   1    2.06    3.08
   5   7   1    0.40    3.27
  -5  -7  -1    2.52    7.12
   5   7   2    4.72    4.40
  -5  -7  -2    4.72    5.82
  -5  -7  -2    4.91    5.93
   5   7   3   25.81   18.31
  -5  -7  -3   23.46   14.09
   5   7   4   75.20   10.60
  -5  -7  -4   45.20   22.72
   5   7   5   30.19   24.69
  -5  -7  -5   28.35   18.22
   5   8  -9   22.90   19.26
  -5  -8   9   16.84   14.57
   5   8  -8    7.02    6.78
  -5  -8   8    3.42    9.86
  -5  -8   7   15.26   13.20
   5   8  -6    4.79    6.11
  -5  -8   6    7.21   10.07
   5   8  -5  209.34   18.41
  -5  -8   5  141.33   12.82
   5   8  -4   65.28   10.73
  -5  -8   4   43.06   28.10
   5   8  -3    3.78    6.24
  -5  -8   3   -1.36    7.06
   5   8  -2    0.60    3.95
  -5  -8   2    1.54    4.59
   5   8  -1    8.21    9.49
  -5  -8   1    7.17    7.33
   5   8   0    3.00    4.60
  -5  -8   0    5.59    4.91
   5   8   1    1.91    4.51
  -5  -8  -1    6.90    6.38
  -5  -8  -2   55.57    9.48
  -6   9   4    8.07    9.08
  -6   9   3    8.54    8.18
  -6   9   2   13.26   12.47
  -6   9   1   47.74   31.60
  -6   9   0   50.00   36.50
  -6   9  -1   44.42   30.98
  -6   9  -2   29.64   14.33
  -6   9  -3   41.22   25.27
  -6   9  -4    4.99    4.56
  -6   9  -5    9.60    8.17
  -6   9  -6    2.12    4.30
   6  -8  -6   83.54    9.05
  -6   8   6   57.02   46.17
   6  -8  -5   76.84    9.94
  -6   8   5   94.57   10.73
   6  -8  -4    8.56    7.64
  -6   8   4   11.58    8.17
   6  -8  -3   94.39   11.09
  -6   8   3   83.36   52.95
   6  -8  -2    2.14    4.67
  -6   8   2   -0.81    7.60
   6  -8  -1   14.96   10.31
  -6   8   1    8.75    7.95
   6  -8   0   24.99   17.91
  -6   8   0   19.14   19.40
   6  -8   1   94.34   10.01
  -6   8  -1   74.24   29.75
   6  -8   2   16.28   10.13
  -6   8  -2   16.93    7.36
  -6   8  -3    3.76    7.17
  -6   8  -4    2.71    4.67
  -6   8  -4   -1.72    7.81
  -6   8  -5   22.92   15.78
  -6   8  -5   25.49   14.62
  -6   8  -6   34.15   24.34
  -6   8  -6   37.68   13.54
  -6   8  -7   15.63   10.08
  -6   8  -7   12.44    6.35
  -6   8  -8   66.73    9.10
  -6   8  -8   69.95    8.99
   6  -7  -8   18.42   14.80
  -6   7   8   25.52   18.27
   6  -7  -7    9.73    8.44
  -6   7   7    5.60    7.41
   6  -7  -6   48.35   18.76
  -6   7   6   29.54   28.77
   6  -7  -5    4.10    6.15
  -6   7   5    9.61   11.35
   6  -7  -4   33.45   22.11
  -6   7   4   32.07   28.35
   6  -7  -3   10.06    4.81
  -6   7   3    9.68   10.57
   6  -7  -2   42.50   27.20
  -6   7   2   77.04    9.75
   6  -7  -1    2.28    2.83
  -6   7   1    3.18    7.11
   6  -7   0   11.68    6.94
  -6   7   0    2.66    7.46
   6  -7   1   -0.01    4.54
  -6   7  -1    5.74    4.37
   6  -7   2    5.72    5.36
  -6   7  -2   14.13   10.26
  -6   7  -2   13.62    4.42
   6  -7   3   10.64    5.00
  -6   7  -3    5.53    5.72
  -6   7  -3    7.13    4.28
   6  -7   4    2.83    2.31
  -6   7  -4    3.22    4.57
  -6   7  -4    6.54    6.16
   6  -7   5   81.44    7.57
  -6   7  -5   77.48    6.86
  -6   7  -5   67.54    8.45
   6  -7   6   78.38    9.40
  -6   7  -6   78.91    8.72
  -6   7  -6   77.07   23.24
  -6   7  -7   71.30    7.93
  -6   7  -7   62.40   28.83
  -6   7  -8   54.53   12.72
  -6   7  -8   53.30    7.88
  -6   7  -9  176.94   15.04
  -6   7  -9  165.94   11.99
  -6   7 -10   25.86   16.95
  -6   7 -10   20.03   20.54
   6  -6 -10    1.64    3.15
  -6   6  10    5.43    6.20
   6  -6  -9   -2.94    6.66
  -6   6   9    4.15    5.26
   6  -6  -8   41.57   22.47
  -6   6   8   37.09   20.37
   6  -6  -7   14.13    9.59
  -6   6   7   19.13   10.19
   6  -6  -6   15.87    8.74
  -6   6   6    9.67    7.41
   6  -6  -5    3.75    4.79
  -6   6   5    7.22   11.78
   6  -6  -4    9.97    6.19
  -6   6   4   11.21    5.22
   6  -6  -3  227.71   15.13
  -6   6   3  210.05   12.88
   6  -6  -2    5.03    3.84
  -6   6   2    4.17    7.58
   6  -6  -1   -2.23    5.95
  -6   6   1    1.36    5.38
   6  -6   0   23.29    9.11
  -6   6   0   14.35    9.83
  -6   6   0   19.14   18.28
   6  -6   1  181.53   15.08
  -6   6  -1  180.68   11.78
  -6   6  -1  185.25   15.54
   6  -6   2   67.97    7.65
  -6   6  -2   66.43    5.68
  -6   6  -2   77.61   27.79
   6  -6   3  479.68   23.05
  -6   6  -3  481.87   27.22
  -6   6  -3  475.32   32.92
   6  -6   4  303.75   17.90
  -6   6  -4  331.37   22.34
  -6   6  -4  335.22   16.69
   6  -6   5  196.67   16.33
  -6   6  -5  173.65   10.03
  -6   6  -5  175.89   11.78
   6  -6   6  298.89   21.93
  -6   6  -6  258.02   17.21
  -6   6  -6  258.12   29.63
   6  -6   7   46.94   25.06
  -6   6  -7   47.50    6.09
  -6   6  -7   38.48   18.19
   6  -6   8   43.68   24.01
  -6   6  -8   37.79   27.21
  -6   6  -8   42.39   26.54
   6  -6   9   84.76   10.55
  -6   6  -9   63.11    7.57
  -6   6  -9   82.65    9.19
   6  -6  10   40.96   22.00
  -6   6 -10   32.19   23.24
  -6   6 -10   32.25   19.04
   6  -5 -11    5.91    9.82
  -6   5  11   13.11   10.90
   6  -5 -10   39.10   11.74
  -6   5  10   22.95   21.98
   6  -5  -9   12.95    7.49
  -6   5   9   18.52   11.23
   6  -5  -8   79.36   12.24
  -6   5   8   94.96   12.12
   6  -5  -7   13.19    7.02
  -6   5   7   23.31   11.50
   6  -5  -6   26.80    9.80
  -6   5   6   25.28   16.44
   6  -5  -5   71.38   11.38
  -6   5   5   90.10   10.44
   6  -5  -4    4.54    7.17
  -6   5   4    4.70    7.79
   6  -5  -3   16.33   12.20
  -6   5   3   19.21    9.34
   6  -5  -2   72.93   29.37
  -6   5   2   72.21    8.06
  -6   5   2   75.68   10.45
   6  -5  -1  757.94   34.96
  -6   5   1  697.90   30.62
  -6   5   1  742.27   36.65
   6  -5   0  381.55   21.21
  -6   5   0  415.21   17.18
  -6   5   0  430.98   19.20
   6  -5   1   73.69    7.53
  -6   5  -1   68.25    6.75
  -6   5  -1   81.83    8.34
   6  -5   2  195.03   12.59
  -6   5  -2  189.99    9.85
  -6   5  -2  188.78   13.30
   6  -5   3   21.52   10.38
  -6   5  -3   22.07   10.98
  -6   5  -3   12.35    9.68
   6  -5   4    8.77    7.27
  -6   5  -4   10.16    6.30
  -6   5  -4    9.02    5.92
   6  -5   5   49.35   16.03
  -6   5  -5   42.97    7.01
  -6   5  -5   33.83   21.67
   6  -5   6  175.52   18.08
  -6   5  -6  175.73   11.92
  -6   5  -6  165.70   11.71
   6  -5   7    5.25    7.09
  -6   5  -7    1.58    4.61
  -6   5  -7    0.92    4.55
   6  -5   8   61.75    7.13
  -6   5  -8   51.43   34.13
  -6   5  -8   66.68    8.90
   6  -5   9   10.22   16.62
  -6   5  -9   16.21   12.56
  -6   5  -9   19.08   14.38
   6  -5  10    6.20    8.57
  -6   5 -10    4.03    5.56
   6  -5  11    0.51    3.76
  -6   5 -11    0.66    7.20
   6  -4 -12    2.66    4.58
  -6   4  12    4.18    6.35
   6  -4 -11    4.35    5.55
  -6   4  11    3.47    6.83
   6  -4 -10   41.35   34.10
  -6   4  10   47.84    7.09
   6  -4  -9   31.86    9.75
  -6   4   9   15.53   10.41
   6  -4  -8    2.86    7.50
  -6   4   8    2.21    3.08
   6  -4  -7  118.70   33.01
  -6   4   7  113.34   10.05
   6  -4  -6  131.14   14.41
  -6   4   6   97.13   38.62
   6  -4  -5  623.57   36.96
  -6   4   5  561.57   33.06
  -6   4   4 1450.54   24.02
  -6   4   4 1613.57   66.72
   6  -4  -3  114.98   10.39
  -6   4   3  130.77    5.43
  -6   4   3  136.94   10.82
   6  -4  -2   92.01    9.68
  -6   4   2   73.68   14.81
  -6   4   2   79.83   10.36
   6  -4  -1 1007.90   69.40
  -6   4   1  937.77   41.85
  -6   4   1  973.72   57.80
   6  -4   0 1105.35   64.21
  -6   4   0 1002.34   43.25
  -6   4   0 1122.12   66.42
   6  -4   1  605.70   38.10
  -6   4  -1  582.23   32.75
  -6   4  -1  652.55   41.10
   6  -4   2  627.43   31.30
  -6   4  -2  598.02   31.57
  -6   4  -2  613.76   31.62
   6  -4   3   15.62    7.86
  -6   4  -3   18.44   10.50
  -6   4  -3   14.82    9.39
   6  -4   4   87.20    8.14
  -6   4  -4   75.93    6.61
  -6   4  -4   87.07   10.77
   6  -4   5   47.56    9.06
  -6   4  -5   43.40    6.48
  -6   4  -5   30.79   18.05
   6  -4   6  296.57   15.56
  -6   4  -6  291.72   16.41
  -6   4  -6  263.68   21.22
   6  -4   7    6.99    6.88
  -6   4  -7    6.39    7.86
  -6   4  -7   10.28    5.21
   6  -4   8   10.94   10.30
  -6   4  -8   13.44    9.22
  -6   4  -8   10.22    7.77
   6  -4   9   31.35   25.66
  -6   4  -9   32.43   17.86
  -6   4  -9   39.83    8.37
   6  -4  10  129.81   14.64
  -6   4 -10   92.59   17.55
   6  -4  11   27.41   12.01
  -6   4 -11   20.91   11.85
   6  -3 -12  147.95   19.17
  -6   3  12  154.30   15.04
   6  -3 -11  125.02   11.87
  -6   3  11   95.96   28.03
   6  -3 -10    2.37    4.18
  -6   3  10    0.85    4.54
   6  -3  -9    1.55    5.92
  -6   3   9    5.46    4.47
   6  -3  -8   27.54    9.06
  -6   3   8   22.47   12.77
   6  -3  -7   68.61   33.76
  -6   3   7   46.22    6.39
   6  -3  -6  148.23   13.40
  -6   3   6  121.97    8.10
  -6   3   6  132.81   14.51
   6  -3  -5   32.69   15.09
  -6   3   5    5.32    5.29
  -6   3   5   12.21    7.55
   6  -3  -4  167.28   33.36
  -6   3   4  153.51    8.68
  -6   3   4  147.70   12.25
   6  -3  -3 1755.86   78.66
  -6   3   3 1707.11   72.31
  -6   3   3 1607.44   91.38
   6  -3  -2  179.92   14.23
  -6   3   2  161.21   10.35
  -6   3   2  171.78   18.10
   6  -3  -1    9.60    6.59
  -6   3   1   11.71    7.91
  -6   3   1   12.97    7.88
   6  -3   0  556.00   23.38
  -6   3   0  562.71   15.47
  -6   3   0  575.53   38.37
   6  -3   1  380.64   20.21
  -6   3  -1  350.81   17.26
  -6   3  -1  377.89   18.25
   6  -3   2  536.83   18.80
  -6   3  -2  527.07   19.64
  -6   3  -2  558.04   25.27
   6  -3   3  286.61   23.17
  -6   3  -3  300.08   16.66
  -6   3  -3  257.84   21.06
   6  -3   4    3.72    4.01
  -6   3  -4    2.50    3.06
  -6   3  -4    3.10    3.03
   6  -3   5   48.23   21.79
  -6   3  -5   39.79   20.35
  -6   3  -5   38.44   18.28
   6  -3   6   23.02   11.59
  -6   3  -6   17.73    9.86
  -6   3  -6   16.03    7.44
   6  -3   7  842.27   35.18
  -6   3  -7  851.96   35.73
  -6   3  -7  850.60   28.41
   6  -3   8  134.60   15.37
  -6   3  -8  160.01   16.58
  -6   3  -8  173.50   12.98
   6  -3   9   63.09    8.21
  -6   3  -9   66.97    8.59
   6  -3  10   43.16   28.99
  -6   3 -10   62.23    9.34
   6  -3  11   46.28   19.55
  -6   3 -11   40.29   23.32
   6  -3  12   29.70   19.31
  -6   3 -12   20.59   35.14
   6  -2 -13   36.11   34.20
  -6   2  13   62.02    9.43
   6  -2 -12    5.26    5.41
  -6   2  12    3.31    7.12
   6  -2 -11   38.90   32.63
  -6   2  11   46.79    9.98
   6  -2 -10    1.04    7.58
  -6   2  10    3.21    3.28
   6  -2  -9    5.50    9.81
  -6   2   9    4.62    5.42
   6  -2  -8  292.17   29.53
   6  -2  -8  277.48   16.28
  -6   2   8  267.29   20.82
   6  -2  -7  109.06   13.06
   6  -2  -7  106.31    7.96
  -6   2   7  102.81    9.26
   6  -2  -6    5.50    4.38
   6  -2  -6    4.03    2.24
  -6   2   6    2.43    3.36
   6  -2  -5   -0.09    6.89
   6  -2  -5    0.51    2.03
  -6   2   5    1.86    5.98
   6  -2  -4   -0.45    7.15
   6  -2  -4   -0.19    2.47
  -6   2   4    0.20    2.91
   6  -2  -3  305.28   14.72
  -6   2   3  323.58   10.11
  -6   2   3  357.63   14.64
   6  -2  -2  259.59   17.18
  -6   2   2  247.29   14.20
  -6   2   2  253.94   16.59
   6  -2  -1  292.92   15.85
  -6   2   1  314.46   12.89
  -6   2   1  285.14   14.10
   6  -2   0  477.00   18.64
  -6   2   0  518.89   22.30
  -6   2   0  520.43   16.25
   6  -2   1   27.88   11.39
  -6   2  -1   23.32   12.93
  -6   2  -1   25.79   12.08
   6  -2   2  779.32   28.47
  -6   2  -2  775.11   25.00
  -6   2  -2  814.69   25.77
   6  -2   3  400.07   27.33
  -6   2  -3  429.88   26.36
  -6   2  -3  444.91   25.05
   6  -2   4  415.74   26.10
  -6   2  -4  406.89   26.72
  -6   2  -4  447.31   22.91
   6  -2   5  262.28   16.17
  -6   2  -5  252.30   18.67
  -6   2  -5  242.21   12.60
   6  -2   6    1.95    3.81
  -6   2  -6   -1.81    5.50
  -6   2  -6    1.45    3.34
   6  -2   7   78.30   13.57
  -6   2  -7   67.91    9.21
  -6   2  -7   68.23    5.12
   6  -2   8   79.77   11.08
  -6   2  -8   93.46   12.28
   6  -2   9   47.41   23.94
  -6   2  -9   55.47   23.82
   6  -2  10   30.29   11.43
  -6   2 -10   30.69   11.14
   6  -2  11   11.79    9.34
  -6   2 -11   11.91   10.81
   6  -2  12   30.58   15.80
   6  -1 -13    1.59    8.88
  -6   1  13    2.71    2.91
   6  -1 -12    8.70    9.68
  -6   1  12    2.68    4.81
   6  -1 -11   46.51   10.22
  -6   1  11   53.07    9.76
   6  -1 -10    0.35    6.50
   6  -1 -10    2.42    4.14
  -6   1  10    2.16    5.76
   6  -1  -9   78.64   10.32
   6  -1  -9   64.81    5.74
  -6   1   9   73.96    7.80
   6  -1  -8   10.56    8.03
   6  -1  -8    8.22    6.79
  -6   1   8    5.37    5.41
   6  -1  -7  251.53   16.03
   6  -1  -7  238.98    9.90
  -6   1   7  221.24   22.22
   6  -1  -6   17.05    9.32
   6  -1  -6   19.95   12.35
  -6   1   6   19.78   11.97
   6  -1  -5   14.01   10.36
   6  -1  -5    9.89    4.71
  -6   1   5    6.14    7.07
   6  -1  -4   18.28    9.08
   6  -1  -4   21.94   10.07
  -6   1   4   16.31    6.98
   6  -1  -3   75.64    8.98
   6  -1  -3   68.18    7.00
  -6   1   3   64.56    9.64
   6  -1  -2  859.72   22.65
  -6   1   2  873.47   20.12
  -6   1   2  818.32   22.17
   6  -1  -1 1125.17   38.87
  -6   1   1 1199.25   28.15
   6  -1   0 1270.96   30.02
  -6   1   0 1249.62   44.54
   6  -1   1  600.70   22.28
  -6   1  -1  635.03   17.25
  -6   1  -1  640.41   20.81
   6  -1   2    3.12    6.16
  -6   1  -2    2.37    4.63
  -6   1  -2    2.48    1.87
   6  -1   3 1141.31   52.26
  -6   1  -3 1011.50   57.26
  -6   1  -3  976.50   48.56
   6  -1   4  598.16   31.22
  -6   1  -4  547.02   34.51
  -6   1  -4  563.97   30.49
   6  -1   5  446.87   33.54
  -6   1  -5  468.51   26.68
  -6   1  -5  427.31   16.80
   6  -1   6  152.88   14.68
  -6   1  -6  132.15   19.84
  -6   1  -6  132.00    6.11
   6  -1   7    6.44    7.05
  -6   1  -7    7.10   13.82
  -6   1  -7    6.10    3.48
   6  -1   8   19.35   19.14
  -6   1  -8   25.47   18.28
   6  -1   9    5.30    6.50
  -6   1  -9    5.39    6.07
   6  -1  10   17.31   12.55
  -6   1 -10    8.54   11.10
   6  -1  11    9.22    9.57
  -6   1 -11   19.61    8.32
   6   0 -14   21.65   15.53
  -6   0  14   11.74   12.53
   6   0 -13    8.55    6.99
  -6   0  13    7.77    6.44
   6   0 -12   43.07   11.91
   6   0 -12   33.32    5.71
  -6   0  12   22.12   13.81
   6   0 -11   11.29    9.98
   6   0 -11    6.08    6.54
  -6   0  11    3.17    3.98
   6   0 -10   33.55   19.01
   6   0 -10   23.24   20.65
  -6   0  10   22.82   16.15
   6   0  -9    7.66    6.18
   6   0  -9    5.85    3.28
  -6   0   9    3.99    3.76
   6   0  -8  384.39   25.27
   6   0  -8  406.09   20.00
  -6   0   8  324.66   19.38
   6   0  -7  422.86   27.34
   6   0  -7  407.55   21.91
  -6   0   7  440.08   17.52
   6   0  -6   83.11   24.38
   6   0  -6   92.10    9.11
  -6   0   6   83.65    9.90
   6   0  -5  147.72   11.26
   6   0  -5  188.70   12.37
  -6   0   5  165.11   25.44
   6   0  -4  250.77   18.49
   6   0  -4  240.75   12.70
  -6   0   4  265.54   15.77
   6   0  -3  166.12   12.26
   6   0  -3  175.54   10.05
  -6   0   3  177.12   11.10
   6   0  -2    5.83    6.29
   6   0  -2    6.11    4.96
  -6   0   2    7.08    6.17
   6   0  -1    6.03    7.89
  -6   0   1   10.87    4.84
  -6   0   1    7.28    7.19
   6   0   0  642.37   23.71
  -6   0   0  648.87   23.54
  -6   0   0  670.69   19.59
   6   0   1  336.27   15.64
  -6   0  -1  349.66   14.81
  -6   0  -1  349.51   14.09
   6   0   2  136.29   13.59
  -6   0  -2  150.93   17.14
  -6   0  -2  144.50    9.75
   6   0   3  199.55   11.88
  -6   0  -3  195.53   11.55
  -6   0  -3  220.29   11.33
   6   0   4    4.16    6.50
  -6   0  -4    4.16    3.76
  -6   0  -4    6.20    3.04
   6   0   5    0.38    4.91
  -6   0  -5    2.10    5.97
  -6   0  -5    1.79    1.79
   6   0   6  225.05   18.99
  -6   0  -6  230.63   29.99
  -6   0  -6  251.24   13.73
   6   0   7   15.18   12.91
  -6   0  -7   19.35   12.31
   6   0   8    2.76    4.64
  -6   0  -8    4.52    5.15
   6   0   9    8.95   10.66
  -6   0  -9    2.81    5.36
   6   0  10    9.32    8.17
  -6   0 -10    6.82    5.28
   6   0  11  157.51   14.46
  -6   0 -11  156.79   19.64
   6   1 -14    0.63    6.94
   6   1 -14    1.93    2.59
  -6  -1  14    1.59    4.18
   6   1 -13    1.89    4.91
   6   1 -13   -0.26    4.42
  -6  -1  13    2.37    4.28
   6   1 -12    3.24    6.02
   6   1 -12   -1.50    4.89
  -6  -1  12    4.04    3.69
   6   1 -11   73.96   12.18
   6   1 -11   47.05    6.79
  -6  -1  11   50.84   31.80
   6   1 -10   33.52   20.02
   6   1 -10   21.71   13.69
  -6  -1  10   27.70   19.32
   6   1  -9    4.19    6.44
   6   1  -9    5.10    6.18
  -6  -1   9   10.60    9.82
   6   1  -8    4.93   11.48
   6   1  -8   10.98    7.94
  -6  -1   8    8.78    7.73
   6   1  -7   34.52   12.05
   6   1  -7   31.28   12.85
  -6  -1   7   26.94   12.01
   6   1  -6   38.09   17.48
   6   1  -6   36.32   18.12
  -6  -1   6   37.02   19.45
   6   1  -5  203.66   15.98
   6   1  -5  207.03   10.14
  -6  -1   5  179.29   16.78
   6   1  -4  378.44   20.02
   6   1  -4  355.86   22.98
  -6  -1   4  365.95   14.90
   6   1  -3  133.73   15.23
   6   1  -3  136.27    9.64
  -6  -1   3  136.43   13.16
   6   1  -2  359.53   16.75
   6   1  -2  325.09   12.57
  -6  -1   2  336.80   12.99
   6   1  -1  322.98   20.18
   6   1  -1  314.72   12.71
  -6  -1   1  320.51   12.55
   6   1   0   14.80   14.97
  -6  -1   0   17.39    9.20
  -6  -1   0   14.66    6.85
   6   1   1    9.56    6.48
  -6  -1  -1   11.25    6.45
  -6  -1  -1    9.84    4.97
   6   1   2  106.13    9.55
  -6  -1  -2  105.42    9.04
  -6  -1  -2   97.52    9.02
   6   1   3   29.40   15.45
  -6  -1  -3   44.13   20.89
  -6  -1  -3   41.99    4.26
   6   1   4   85.69   11.36
  -6  -1  -4   58.24   18.60
  -6  -1  -4   75.15    5.53
   6   1   5  122.18   23.23
  -6  -1  -5  141.63   20.66
  -6  -1  -5  136.43    6.76
   6   1   6  363.65   21.61
  -6  -1  -6  343.50   17.83
   6   1   7    4.23    7.75
  -6  -1  -7    3.59    6.87
   6   1   8  288.84   21.76
  -6  -1  -8  290.52   20.13
   6   1   9   64.26   30.75
  -6  -1  -9   69.10   31.82
   6   1  10   -0.25    7.30
  -6  -1 -10    2.20    8.41
   6   1  11   78.64   46.12
  -6  -1 -11  102.02   27.31
   6   2 -13  114.83   13.15
   6   2 -13   96.34    9.67
  -6  -2  13   88.16    9.54
   6   2 -12   62.29    8.25
   6   2 -12   50.61    7.50
  -6  -2  12   52.33   29.11
   6   2 -11    0.86    6.11
   6   2 -11    2.70    6.27
  -6  -2  11    2.19    6.33
   6   2 -10   -0.37    6.05
   6   2 -10    3.57    4.03
  -6  -2  10    7.33    5.64
   6   2  -9   46.37    8.26
   6   2  -9   46.49   20.52
  -6  -2   9   48.06   26.72
   6   2  -8  110.61   11.46
   6   2  -8  131.13   11.34
  -6  -2   8  107.96   10.57
   6   2  -7   39.13    5.87
   6   2  -7   36.40   23.77
  -6  -2   7   33.99   13.41
   6   2  -6    3.41    3.43
   6   2  -6    1.30    6.97
  -6  -2   6    9.69    8.10
   6   2  -5   17.94    7.46
   6   2  -5    8.76    9.47
  -6  -2   5   14.04   10.08
   6   2  -4   32.26   20.73
   6   2  -4   32.38   14.90
  -6  -2   4   46.66   22.83
   6   2  -3   11.89    7.09
   6   2  -3   12.65    4.54
  -6  -2   3   16.40    7.64
   6   2  -2    3.11    4.42
   6   2  -2    0.72    2.85
  -6  -2   2    5.65    5.89
   6   2  -1  207.61   12.18
   6   2  -1  201.99   11.80
  -6  -2   1  222.91   21.63
   6   2   0    1.74    5.54
   6   2   0    3.01    3.90
  -6  -2   0    0.48    2.93
   6   2   1  255.46   21.30
  -6  -2  -1  268.13   17.12
  -6  -2  -1  266.22   14.75
   6   2   2   22.51   10.82
  -6  -2  -2   18.97    7.70
  -6  -2  -2   19.69   10.23
   6   2   3   58.32    9.03
  -6  -2  -3   96.58   13.16
  -6  -2  -3   69.54    5.41
   6   2   4  396.00   27.65
  -6  -2  -4  361.70   22.41
  -6  -2  -4  364.24   21.36
   6   2   5    0.23    5.39
  -6  -2  -5    4.33    5.21
  -6  -2  -5    1.09    3.26
   6   2   6   10.89   12.26
  -6  -2  -6   16.19   13.70
   6   2   7  281.76   23.90
  -6  -2  -7  331.71   18.36
   6   2   8    0.39    5.02
  -6  -2  -8    2.40    4.86
   6   2   9    4.42    7.13
  -6  -2  -9    7.92    4.88
   6   2  10   14.87    8.70
   6   3 -13   12.91   13.80
   6   3 -13   19.05   23.33
   6   3 -12  437.47   21.64
   6   3 -12  450.98   23.59
  -6  -3  12  405.56   32.07
   6   3 -11  443.69   26.55
   6   3 -11  416.29   25.24
  -6  -3  11  478.83   29.43
   6   3 -10    5.64    7.48
   6   3 -10    3.69    5.22
  -6  -3  10    5.16    5.48
   6   3  -9  593.38   22.03
   6   3  -9  585.67   20.47
  -6  -3   9  490.54   30.93
   6   3  -8   18.75    5.81
   6   3  -8   22.69   10.68
  -6  -3   8   24.46   17.11
   6   3  -7   85.41    9.58
   6   3  -7   83.85    8.23
  -6  -3   7  110.48   44.54
   6   3  -6   47.46    7.88
   6   3  -6   50.60    7.55
  -6  -3   6   36.78   26.88
   6   3  -5    9.26    5.97
   6   3  -5    8.44    6.91
  -6  -3   5    5.45   12.47
   6   3  -4  102.91    8.54
   6   3  -4   95.97    8.57
  -6  -3   4   98.60    9.95
   6   3  -3  558.23   24.75
   6   3  -3  598.58   18.92
  -6  -3   3  565.93   26.72
   6   3  -2  330.36   19.00
   6   3  -2  347.46   14.15
  -6  -3   2  374.52   20.68
   6   3  -1   46.24   15.47
   6   3  -1   53.64   16.28
  -6  -3   1   42.74   19.41
   6   3   0   27.92   13.49
   6   3   0   27.07   13.01
  -6  -3   0   21.60    5.93
   6   3   1  280.08   18.56
  -6  -3  -1  272.40   44.13
  -6  -3  -1  315.72   23.69
   6   3   2  224.10   15.53
  -6  -3  -2  204.35   13.32
  -6  -3  -2  219.48   20.20
   6   3   3   15.98    8.57
  -6  -3  -3   27.78   15.20
  -6  -3  -3   18.78   11.25
   6   3   4   25.40   11.07
  -6  -3  -4   18.21    7.02
  -6  -3  -4   18.55   12.60
   6   3   5   62.85   10.67
  -6  -3  -5   50.80   27.85
   6   3   6   11.80   11.21
  -6  -3  -6   10.63    6.94
   6   3   7   15.22   11.00
  -6  -3  -7   14.77   13.92
   6   3   8    7.88    8.13
  -6  -3  -8    7.30    6.67
   6   3   9   14.29   10.39
  -6  -3  -9   11.98   12.52
   6   4 -13    8.52   11.20
   6   4 -13    2.03    4.03
  -6  -4  13   10.93    8.34
   6   4 -12   15.95   20.27
   6   4 -12   18.18   13.80
  -6  -4  12   19.73   15.01
   6   4 -11  139.37   11.92
   6   4 -11  139.46   11.79
  -6  -4  11  153.09   14.42
   6   4 -10    7.44    6.97
   6   4 -10    5.45   11.01
  -6  -4  10    7.52    9.26
   6   4  -9  233.45   14.61
   6   4  -9  207.66   13.17
  -6  -4   9  214.82   14.91
   6   4  -8  416.95   29.79
   6   4  -8  475.52   31.03
  -6  -4   8  428.37   42.10
   6   4  -7   -0.72    4.78
   6   4  -7    4.55    5.59
  -6  -4   7    3.33    5.97
   6   4  -6   70.80    9.21
   6   4  -6   69.11    8.61
  -6  -4   6   54.52   19.99
   6   4  -5   35.80    6.50
   6   4  -5   38.99   18.81
  -6  -4   5   40.02   18.90
   6   4  -4    2.85    5.20
   6   4  -4    6.00    6.56
  -6  -4   4    3.78    7.74
   6   4  -3  202.68   17.42
   6   4  -3  204.90   21.57
  -6  -4   3  178.50   13.81
   6   4  -2  200.44   17.39
   6   4  -2  196.98   11.74
  -6  -4   2  210.96   15.98
   6   4  -1  164.49   13.36
   6   4  -1  180.29   14.28
  -6  -4   1  176.58   14.06
   6   4   0   33.92   15.29
   6   4   0   14.68   13.39
  -6  -4   0   29.13   15.93
   6   4   1    8.88    8.96
  -6  -4  -1    5.44    6.95
  -6  -4  -1    7.17    5.02
   6   4   2    2.63    4.35
  -6  -4  -2    2.96    6.55
  -6  -4  -2   -4.31    5.55
   6   4   3  302.02   22.34
  -6  -4  -3  230.55   17.01
  -6  -4  -3  248.64   18.17
   6   4   4    2.67    5.08
  -6  -4  -4    6.68    3.97
   6   4   5   29.99   23.74
  -6  -4  -5   30.97   17.00
   6   4   6    5.37    5.85
  -6  -4  -6    2.33    3.60
   6   4   7   17.88   13.30
  -6  -4  -7   21.72   12.52
   6   4   8   25.07   13.14
  -6  -4  -8   15.20   12.41
  -6  -5  12   14.55    8.08
   6   5 -11    0.15    4.30
  -6  -5  11    6.14   10.39
   6   5 -10   10.05    8.67
  -6  -5  10   10.66   11.78
   6   5  -9   23.37   23.20
   6   5  -9   41.22   26.63
  -6  -5   9   26.42   16.10
   6   5  -8  263.97   17.68
   6   5  -8  305.08   17.61
  -6  -5   8  347.13   20.81
   6   5  -7    1.80    5.13
   6   5  -7   -2.29    6.85
  -6  -5   7   -6.26    8.55
   6   5  -6   37.31    5.13
   6   5  -6   21.33   12.05
  -6  -5   6   13.66   14.38
   6   5  -5   54.72    5.83
   6   5  -5   73.20    8.44
  -6  -5   5   57.07   26.26
   6   5  -4    8.65    5.35
   6   5  -4   15.66    6.78
  -6  -5   4   12.78    7.88
   6   5  -3  349.22   19.03
   6   5  -3  381.07   18.99
  -6  -5   3  370.23   17.01
   6   5  -2  252.93   16.17
   6   5  -2  233.66   13.43
  -6  -5   2  258.95   36.54
   6   5  -1   60.33    7.52
   6   5  -1   76.23    9.14
  -6  -5   1   47.97   27.57
   6   5   0  230.56   34.57
   6   5   0  245.17   13.35
  -6  -5   0  244.71   12.67
   6   5   1   47.95   23.16
  -6  -5  -1   57.61    7.08
   6   5   2   -0.05    4.33
  -6  -5  -2    2.47    3.27
  -6  -5  -2   -5.10    5.34
   6   5   3    1.49    6.58
  -6  -5  -3    4.37    4.99
  -6  -5  -3    4.28    4.83
   6   5   4   56.08   31.04
  -6  -5  -4   48.30   26.93
   6   5   5    8.21    6.36
  -6  -5  -5    6.60    8.96
   6   5   6   78.68   43.13
  -6  -5  -6   81.55    9.32
  -6  -5  -7    1.25    5.12
   6   6 -11    3.42    4.71
  -6  -6  11    3.58    6.93
   6   6 -10   28.43   21.74
  -6  -6  10   19.51    9.06
   6   6  -9   73.79    9.99
  -6  -6   9   49.99   30.29
   6   6  -8   38.53   21.17
  -6  -6   8   34.72   22.49
   6   6  -7  217.09   25.46
  -6  -6   7  219.33   22.33
   6   6  -6  186.84   18.19
  -6  -6   6  170.55   23.84
   6   6  -5   25.75   13.87
   6   6  -5   30.14   21.65
  -6  -6   5   32.46   14.00
   6   6  -4   54.15    6.04
   6   6  -4   36.61   24.83
  -6  -6   4   40.07   22.21
   6   6  -3   25.80   20.44
   6   6  -3   27.85   12.98
  -6  -6   3   28.90   16.46
   6   6  -2   15.45    9.74
   6   6  -2    9.24    8.62
  -6  -6   2   19.41   11.58
   6   6  -1    2.45    5.92
   6   6  -1    6.43    5.61
  -6  -6   1   10.32    8.54
   6   6   0   60.21    9.31
   6   6   0   45.29   22.78
  -6  -6   0   38.07   19.22
   6   6   1   17.31    5.55
  -6  -6  -1    9.38   10.82
   6   6   2   18.85   12.58
  -6  -6  -2   16.38    9.12
  -6  -6  -2   20.20   21.57
   6   6   3   -0.45    7.30
  -6  -6  -3   -2.04    6.84
   6   6   4   92.12   11.28
  -6  -6  -4  100.73   10.69
   6   6   5    2.30    5.20
  -6  -6  -5   -1.02    6.23
   6   7  -9    3.86    3.92
  -6  -7   9    6.28    9.35
  -6  -7   8   16.55   16.35
   6   7  -7   16.73    8.46
  -6  -7   7   17.99   12.61
   6   7  -6    1.18    3.94
  -6  -7   6   -0.48    9.89
  -6  -7   5   26.24   10.08
   6   7  -4    9.60   11.22
  -6  -7   4    7.71    4.46
   6   7  -3    5.16    6.49
  -6  -7   3    1.83    4.64
   6   7  -2  224.70   18.04
  -6  -7   2  217.26   21.61
   6   7  -1  134.40   12.06
  -6  -7   1  125.45   14.97
   6   7   0  114.75   11.01
  -6  -7   0   90.48   27.42
   6   7   1    1.05    5.18
  -6  -7  -1    0.76    4.24
  -6  -7  -1    1.90    6.04
   6   7   2  122.51   12.08
  -6  -7  -2  100.83   11.27
   6   7   3   25.98   19.20
  -6  -7  -3   26.96   26.27
   6   8  -6    5.26    6.25
  -6  -8   6    7.41    8.79
   6   8  -5   18.85   18.80
  -6  -8   5   18.50   19.09
   6   8  -4    8.72    7.02
  -6  -8   4   15.15   14.05
   6   8  -3    5.50    7.87
  -6  -8   3    2.85    6.12
   6   8  -2   16.10    8.48
  -6  -8   2   13.50   11.71
   6   8  -1   -0.50    4.38
  -6  -8   1   19.57   13.19
  -7   9   1   13.00   11.56
  -7   9   0   32.09   28.80
  -7   9  -1   17.47   11.88
  -7   9  -2    3.54    7.52
  -7   9  -3   39.94   29.55
   7  -8  -5   22.61    7.95
  -7   8   5   21.93   18.82
   7  -8  -4    2.94    2.91
  -7   8   4    1.31    4.44
   7  -8  -3   15.71    5.71
  -7   8   3   12.12   19.16
   7  -8  -2    3.66    8.11
  -7   8   2    4.35    4.67
   7  -8  -1    2.97    4.70
  -7   8   1    6.15    4.30
   7  -8   0   23.44   20.47
  -7   8   0   44.77   29.57
   7  -8   1   34.21    6.08
  -7   8  -1   30.80   22.94
  -7   8  -2  103.94   13.41
  -7   8  -3   46.24   31.83
  -7   8  -4  136.55   26.96
  -7   8  -5   24.75   22.30
  -7   8  -5   26.41   13.91
  -7   8  -6   24.73   22.51
  -7   8  -6   23.76   20.15
   7  -7  -7    4.20    3.68
  -7   7   7    3.85    7.32
   7  -7  -6   -2.83    7.04
  -7   7   6    3.06    4.94
   7  -7  -5    0.62    7.96
  -7   7   5    2.66    7.40
   7  -7  -4   33.45   19.43
  -7   7   4   37.42   25.28
   7  -7  -3   87.90   12.07
  -7   7   3   92.08   11.90
   7  -7  -2    6.79    6.78
  -7   7   2   20.34   14.24
   7  -7  -1   61.75   37.87
  -7   7   1   79.55   10.83
   7  -7   0  112.46   14.52
  -7   7   0  108.97   11.97
   7  -7   1  142.31   15.88
  -7   7  -1  128.13   14.08
   7  -7   2   13.18   12.75
  -7   7  -2   13.40    9.06
   7  -7   3    1.71    6.86
  -7   7  -3    2.26    4.05
  -7   7  -3    3.19   10.00
   7  -7   4   27.31   16.34
  -7   7  -4   25.26   20.57
  -7   7  -4   25.40   13.72
   7  -7   5    0.65    2.99
  -7   7  -5    3.37    4.54
  -7   7  -5    2.12    8.56
   7  -7   6   70.96   10.11
  -7   7  -6   58.38    9.04
  -7   7  -6   42.79   29.08
  -7   7  -7   54.71   36.90
  -7   7  -7   64.82    9.02
  -7   7  -8    6.55    3.35
  -7   7  -8   -0.56    5.52
   7  -6  -9   13.31    9.64
  -7   6   9    7.17    7.41
   7  -6  -8    5.94    7.49
  -7   6   8    5.31    5.51
   7  -6  -7  110.02   14.29
  -7   6   7  126.93   13.83
   7  -6  -6  178.49   16.77
  -7   6   6  231.44   23.47
   7  -6  -5   22.55   15.56
  -7   6   5   24.60    7.63
   7  -6  -4    6.33    5.99
  -7   6   4    4.80    5.26
   7  -6  -3   32.77   16.06
  -7   6   3   25.76   19.33
   7  -6  -2   15.23    7.54
  -7   6   2   25.08   17.90
   7  -6  -1    9.76    5.82
  -7   6   1    6.20    5.33
   7  -6   0   62.11   22.48
  -7   6   0   71.79   10.48
   7  -6   1    3.73    3.07
  -7   6  -1    3.39    3.87
  -7   6  -1    5.16    6.08
   7  -6   2    3.13    1.95
  -7   6  -2    2.97    2.88
   7  -6   3  205.95   18.25
  -7   6  -3  232.72   15.54
  -7   6  -3  236.06   24.94
   7  -6   4   95.06    9.87
  -7   6  -4  114.53    9.41
  -7   6  -4  124.29   11.49
   7  -6   5   23.31   10.26
  -7   6  -5   27.47   13.62
  -7   6  -5   27.81   16.33
   7  -6   6  221.80   19.39
  -7   6  -6  239.97   22.26
  -7   6  -6  213.50   16.08
   7  -6   7   43.67   25.78
  -7   6  -7   37.86   20.95
  -7   6  -7   53.03    7.54
   7  -6   8   21.54   11.92
  -7   6  -8   27.15   22.01
  -7   6  -8   18.90   18.59
   7  -6   9   97.53   12.10
  -7   6  -9   99.32   20.42
  -7   6  -9  109.97   16.87
   7  -5 -10    4.51    5.13
  -7   5  10    2.69    6.41
   7  -5  -9    6.66   13.46
  -7   5   9    5.48    5.61
   7  -5  -8   58.94   34.34
  -7   5   8   77.45   11.25
   7  -5  -7    7.22    8.22
  -7   5   7   11.55   11.61
   7  -5  -6   56.05    9.33
  -7   5   6   50.33   31.77
   7  -5  -5   15.81    7.39
  -7   5   5   14.04   10.25
   7  -5  -4    8.91    4.86
  -7   5   4    7.11    6.79
   7  -5  -3   27.09   14.15
  -7   5   3   24.18   17.77
   7  -5  -2   37.68   19.43
  -7   5   2   36.89   23.00
   7  -5  -1  145.72   28.07
  -7   5   1  170.04   11.47
  -7   5   1  170.24   12.47
   7  -5   0    3.95    8.16
  -7   5   0    2.83    4.12
  -7   5   0    7.35   12.64
  -7   5  -1   10.05    5.53
  -7   5  -1    9.84    8.68
   7  -5   2  171.22   12.46
  -7   5  -2  152.66   13.60
  -7   5  -2  164.10   12.37
   7  -5   3   20.48   15.41
  -7   5  -3   24.25   13.04
  -7   5  -3   24.44    8.13
   7  -5   4   22.78   12.86
  -7   5  -4   31.11   15.89
  -7   5  -4   18.53   20.15
   7  -5   5  139.89   15.25
  -7   5  -5  167.50   15.24
  -7   5  -5  155.90   12.87
   7  -5   6   29.31   22.41
  -7   5  -6   30.18   20.71
  -7   5  -6   25.02   23.01
   7  -5   7  461.36   27.53
  -7   5  -7  499.05   34.77
  -7   5  -7  439.69   41.55
   7  -5   8   28.46   25.75
  -7   5  -8   23.05   14.46
  -7   5  -8   24.61   15.84
   7  -5   9    3.56    7.03
  -7   5  -9    6.15    5.79
   7  -5  10    4.74    7.33
  -7   5 -10    1.88    8.22
   7  -4 -11    6.07    7.49
  -7   4  11    3.95    7.64
   7  -4 -10   25.16   26.05
  -7   4  10   25.32   16.07
   7  -4  -9   12.44   15.94
  -7   4   9   14.62    8.56
   7  -4  -8    5.23    6.57
  -7   4   8    2.59    4.15
   7  -4  -7   10.80   14.24
  -7   4   7   14.20   17.58
   7  -4  -6   11.92    7.94
  -7   4   6   15.49    8.00
   7  -4  -5   56.33    9.64
  -7   4   5   62.94    8.15
   7  -4  -4   31.46   15.23
  -7   4   4   21.34   12.77
   7  -4  -3   10.46    9.36
  -7   4   3   13.53    6.03
  -7   4   3   24.75   12.84
   7  -4  -2  107.61   21.68
  -7   4   2  107.83    6.29
  -7   4   2  116.62   31.32
   7  -4  -1   -0.76    6.69
  -7   4   1    0.04    4.26
  -7   4   1    1.48    6.72
   7  -4   0   44.21   28.33
  -7   4   0   44.07    6.45
  -7   4   0   47.49   22.53
   7  -4   1   77.12   38.73
  -7   4  -1   85.92    7.43
  -7   4  -1   94.15    8.92
   7  -4   2  313.51   26.97
  -7   4  -2  337.14   21.00
   7  -4   3  715.67   28.54
  -7   4  -3  688.37   23.02
  -7   4  -3  663.37   24.51
   7  -4   4  163.50   34.83
  -7   4  -4  181.92   10.73
  -7   4  -4  163.45   12.87
   7  -4   5   30.05   14.26
  -7   4  -5   33.50   16.16
  -7   4  -5   37.21   15.44
   7  -4   6  252.28   19.30
  -7   4  -6  268.13   23.94
  -7   4  -6  259.10   18.14
   7  -4   7   21.44   17.97
  -7   4  -7   22.99   17.70
  -7   4  -7   12.63    9.01
   7  -4   8  182.18   18.88
  -7   4  -8  195.88   20.38
  -7   4  -8  169.11   16.60
   7  -4   9   35.63   32.24
  -7   4  -9   55.28   10.49
   7  -4  10   29.02   22.51
  -7   4 -10   38.49   19.51
   7  -3 -11   12.07   14.28
  -7   3  11    8.70    7.60
   7  -3 -10   12.75   12.51
  -7   3  10   15.42   12.81
   7  -3  -9   -0.21    5.48
  -7   3   9    1.96    6.25
   7  -3  -8    4.86    4.90
  -7   3   8    7.55    7.38
   7  -3  -7    3.16    2.29
  -7   3   7   -4.31    6.01
   7  -3  -6    4.80   13.48
  -7   3   6   10.84    6.33
  -7   3   6   12.35    7.47
   7  -3  -5   30.92   10.14
  -7   3   5   26.28   11.57
  -7   3   5   29.17   14.77
   7  -3  -4    6.48    9.14
  -7   3   4    1.57    4.31
  -7   3   4    8.40    9.43
   7  -3  -3  455.61   37.76
  -7   3   3  457.02   20.19
  -7   3   3  451.00   33.54
   7  -3  -2  798.58   65.82
  -7   3   2  741.42   38.14
  -7   3   2  749.26   45.58
   7  -3  -1  161.54   12.89
  -7   3   1  156.51    8.48
  -7   3   1  175.07   12.79
   7  -3   0    3.06    8.49
  -7   3   0    5.13    4.25
  -7   3   0   -1.39    5.64
   7  -3   1  110.52   10.93
  -7   3  -1  125.38    9.03
  -7   3  -1  119.39    9.79
   7  -3   2    5.19    8.42
  -7   3  -2    2.07    4.25
  -7   3  -2    0.71    3.26
   7  -3   3  132.21   15.67
  -7   3  -3  120.96   10.21
  -7   3  -3  132.85   12.22
   7  -3   4   38.58   23.38
  -7   3  -4   50.45    6.48
  -7   3  -4   49.35    6.15
   7  -3   5    4.72    7.52
  -7   3  -5    6.25    9.95
  -7   3  -5    3.46    5.50
   7  -3   6   59.82    8.62
  -7   3  -6   51.46   25.87
  -7   3  -6   46.57   23.92
   7  -3   7   12.06   11.89
  -7   3  -7   12.85   11.68
  -7   3  -7    7.00    4.34
   7  -3   8  253.90   25.22
  -7   3  -8  262.37   20.15
   7  -3   9    9.77    9.33
  -7   3  -9    7.25    6.48
   7  -3  10   26.99   20.54
  -7   3 -10   23.18   15.41
   7  -2 -12   38.36   29.19
  -7   2  12   24.15   25.27
   7  -2 -11   10.09   12.13
  -7   2  11   10.08    6.88
   7  -2 -10    3.48    6.97
  -7   2  10    0.30    3.60
   7  -2  -9   21.04   13.28
  -7   2   9   14.09   11.65
   7  -2  -8  247.16   24.41
  -7   2   8  286.89   22.59
   7  -2  -7  423.61   35.40
   7  -2  -7  459.56   16.04
  -7   2   7  433.87   21.45
   7  -2  -6  305.57   29.74
   7  -2  -6  288.41   17.22
  -7   2   6  312.62   21.32
   7  -2  -5  370.59   25.21
  -7   2   5  349.00   20.57
   7  -2  -4  271.78   24.10
  -7   2   4  249.06   15.44
  -7   2   4  264.75   30.34
   7  -2  -3    4.46    2.95
  -7   2   3    2.81    5.94
  -7   2   3    2.23    4.96
  -7   2   2  901.44   22.72
  -7   2   2  831.55   41.98
  -7   2   1 1356.22   49.68
  -7   2   1 1326.39   62.12
   7  -2   0  380.89   23.52
  -7   2   0  341.04   12.76
  -7   2   0  389.44   21.81
   7  -2   1   25.25   15.43
  -7   2  -1   21.16   17.37
  -7   2  -1   31.41   14.53
   7  -2   2  193.93   15.89
  -7   2  -2  192.40   12.37
  -7   2  -2  212.03   12.90
   7  -2   3  296.80   19.10
  -7   2  -3  308.27   18.23
  -7   2  -3  339.21   22.85
   7  -2   4   78.06   10.76
  -7   2  -4   68.69    7.86
  -7   2  -4   80.92    6.87
   7  -2   5   80.62   33.64
  -7   2  -5   79.06    8.48
  -7   2  -5   92.15   17.78
   7  -2   6   18.26   16.11
  -7   2  -6   21.00   11.98
  -7   2  -6   15.60   13.21
   7  -2   7   73.65   41.24
  -7   2  -7   75.41    8.49
  -7   2  -7   91.26    7.38
   7  -2   8   10.70    9.51
  -7   2  -8    2.11    6.16
   7  -2   9   55.60   31.52
  -7   2  -9   43.91   27.92
   7  -2  10   33.55   30.98
  -7   2 -10   45.31   20.35
   7  -1 -12   95.58   14.98
  -7   1  12   81.16   12.49
   7  -1 -11    8.84    8.55
  -7   1  11   13.72    8.99
   7  -1 -10    3.35    4.58
  -7   1  10    2.99    5.59
   7  -1  -9    6.27    7.52
   7  -1  -9    8.20    4.50
  -7   1   9    4.01    6.83
   7  -1  -8  183.97   13.61
   7  -1  -8  164.10    8.36
  -7   1   8  210.03   14.45
   7  -1  -7   -2.51    8.42
   7  -1  -7    2.07    1.48
  -7   1   7    3.16    6.25
   7  -1  -6  118.96   14.17
   7  -1  -6  125.34    9.76
  -7   1   6  110.95   10.08
   7  -1  -5  343.56   26.05
   7  -1  -5  369.91   19.83
  -7   1   5  386.41   21.15
   7  -1  -4   19.79    9.69
   7  -1  -4   23.59   12.78
  -7   1   4   23.41   13.43
   7  -1  -3    7.16    7.53
  -7   1   3    5.82    4.06
  -7   1   3    8.87    7.10
   7  -1  -2    6.07    3.51
  -7   1   2    0.85    3.16
  -7   1   2    7.30    7.89
   7  -1  -1  401.11   20.38
  -7   1   1  395.86   25.27
  -7   1   1  420.27   15.53
   7  -1   0  301.51   19.57
  -7   1   0  294.08   12.22
  -7   1   0  299.32   17.37
   7  -1   1   81.67   11.19
  -7   1  -1   76.38    7.65
  -7   1  -1   73.43    7.42
   7  -1   2  135.52   13.31
  -7   1  -2  128.72    9.42
  -7   1  -2  140.48   10.11
   7  -1   3   23.71   13.28
  -7   1  -3   24.36   12.28
  -7   1  -3   26.07   12.27
   7  -1   4    4.83    4.98
  -7   1  -4    2.22    2.28
  -7   1  -4    3.93    4.70
   7  -1   5  196.77   16.63
  -7   1  -5  185.47   13.18
  -7   1  -5  188.79   12.50
   7  -1   6  356.21   26.91
  -7   1  -6  353.91   26.45
  -7   1  -6  314.22   22.24
   7  -1   7   36.61   34.90
  -7   1  -7   39.00   28.21
   7  -1   8   35.11   19.97
  -7   1  -8   21.40   12.76
   7  -1   9  183.14   21.77
  -7   1  -9  179.78   17.63
   7  -1  10    1.17    5.08
  -7   1 -10    5.40    8.45
   7   0 -13    7.38    9.85
  -7   0  13    1.06    4.69
   7   0 -12   12.68    7.21
  -7   0  12   13.85   10.03
   7   0 -11    4.96    8.04
   7   0 -11    2.45    4.35
  -7   0  11    6.03   10.91
   7   0 -10   13.42   14.98
   7   0 -10   15.66    7.89
  -7   0  10   11.49   10.41
   7   0  -9   64.50   11.64
   7   0  -9   53.27   11.98
  -7   0   9   45.03   27.77
   7   0  -8   80.47   19.81
   7   0  -8   82.13    7.85
  -7   0   8   86.18    8.81
   7   0  -7  113.40   12.80
   7   0  -7  113.49   15.60
  -7   0   7  109.54    9.86
   7   0  -6   60.89    9.51
   7   0  -6   61.77   26.10
  -7   0   6   49.35   21.31
   7   0  -5   66.07    8.38
   7   0  -5   66.57   19.49
  -7   0   5   55.73   26.56
   7   0  -4   30.55   19.31
   7   0  -4   42.86   17.53
  -7   0   4   39.92   24.48
   7   0  -3  138.76   13.53
   7   0  -3  147.10   14.18
  -7   0   3  108.75    9.11
   7   0  -2  385.11   22.58
  -7   0   2  370.47   14.05
  -7   0   2  401.90   16.26
   7   0  -1  323.43   28.25
  -7   0   1  302.28   13.12
  -7   0   1  256.20   33.37
   7   0   0   43.57   15.02
  -7   0   0   43.13   20.55
  -7   0   0   40.27   20.23
   7   0   1  158.22   16.63
  -7   0  -1  166.48   12.57
  -7   0  -1  198.28   10.34
   7   0   2  778.06   40.85
  -7   0  -2  869.41   39.48
  -7   0  -2  866.40   35.76
   7   0   3  237.17   18.49
  -7   0  -3  236.17   16.68
  -7   0  -3  235.57   15.21
   7   0   4    2.49    7.31
  -7   0  -4    1.51    5.18
  -7   0  -4    1.45    3.85
   7   0   5   62.15   28.04
  -7   0  -5   54.93   12.87
  -7   0  -5   61.66    7.86
   7   0   6   41.33   27.18
  -7   0  -6   47.48   32.56
   7   0   7   80.83   10.85
  -7   0  -7   79.83   12.94
   7   0   8    6.15    9.08
  -7   0  -8    0.86    3.09
   7   0   9    2.04    7.86
  -7   0  -9    2.27    4.58
   7   0  10   33.92   16.93
  -7   0 -10   25.11   24.04
   7   1 -13   -0.19    5.30
   7   1 -13    3.15    4.45
  -7  -1  13   -4.70    6.87
   7   1 -12    1.77    6.48
   7   1 -12    1.81    3.67
  -7  -1  12    1.04    5.95
   7   1 -11    5.67    7.75
   7   1 -11    1.72    3.83
  -7  -1  11    3.12    3.55
   7   1 -10    3.25    6.61
   7   1 -10    8.61    5.48
  -7  -1  10    2.07    4.85
   7   1  -9   24.26   14.53
   7   1  -9   13.43   10.71
  -7  -1   9   17.24    7.52
   7   1  -8   30.64    8.13
   7   1  -8   26.19   17.70
  -7  -1   8   30.33   12.82
   7   1  -7   28.28   18.53
   7   1  -7   24.54   13.66
  -7  -1   7   25.84    7.74
   7   1  -6    4.07    6.75
   7   1  -6    1.70    3.15
  -7  -1   6    8.67   10.05
   7   1  -5   27.29   26.84
   7   1  -5   37.60   13.20
  -7  -1   5   30.59   14.52
   7   1  -4  867.32   38.85
   7   1  -4  838.64   37.07
  -7  -1   4  699.67   36.60
   7   1  -3  153.60   12.92
   7   1  -3  171.52   15.25
  -7  -1   3  163.12   15.41
   7   1  -2  764.44   22.35
  -7  -1   2  672.11   32.57
  -7  -1   1 1396.44   40.01
  -7  -1   1 1479.88   41.44
   7   1   0  122.79   38.78
  -7  -1   0  112.53   35.50
  -7  -1   0  105.77   10.03
   7   1   1  173.49   15.60
  -7  -1  -1  172.37   35.52
  -7  -1  -1  163.17   12.43
   7   1   2  377.44   32.40
  -7  -1  -2  404.78   31.18
  -7  -1  -2  438.46   24.62
   7   1   3  552.66   24.33
  -7  -1  -3  529.66   22.76
  -7  -1  -3  523.70   30.79
   7   1   4   59.98   34.53
  -7  -1  -4   75.90    9.21
  -7  -1  -4   86.63    8.17
   7   1   5   35.92   15.97
  -7  -1  -5   38.84   22.45
  -7  -1  -5   41.54   10.81
   7   1   6   29.55   24.24
  -7  -1  -6   22.07   21.93
   7   1   7   89.92   41.09
  -7  -1  -7   81.90   10.58
   7   1   8   13.74   12.44
  -7  -1  -8   15.27    9.50
   7   1   9   12.99   13.48
  -7  -1  -9    6.31    6.54
   7   2 -12   11.65    8.49
  -7  -2  12    3.85    5.09
   7   2 -11    9.50    7.49
   7   2 -11   14.99    9.68
  -7  -2  11    5.67    7.99
   7   2 -10   18.85    6.82
   7   2 -10   20.44   16.09
  -7  -2  10   20.23   11.24
   7   2  -9  263.69   20.69
   7   2  -9  313.58   17.12
  -7  -2   9  271.00   19.34
   7   2  -8   91.16   11.79
   7   2  -8   91.50    9.43
  -7  -2   8   81.20   34.17
   7   2  -7   59.86   31.93
   7   2  -7   48.41   23.60
  -7  -2   7   39.80   21.68
   7   2  -6  154.74   12.45
   7   2  -6  156.22   12.40
  -7  -2   6  130.77   11.29
   7   2  -5  166.63   16.39
   7   2  -5  180.74   14.45
  -7  -2   5  171.05   14.73
   7   2  -4   -0.20    6.45
   7   2  -4   -0.04    5.99
  -7  -2   4   -2.42    8.91
   7   2  -3   58.38   28.72
   7   2  -3   61.39   13.42
  -7  -2   3   62.66   26.15
   7   2  -2   73.86    8.98
   7   2  -2   78.91   24.25
  -7  -2   2   66.08   27.19
   7   2  -1  214.82   16.09
   7   2  -1  229.42   20.96
  -7  -2   1  209.36   13.28
   7   2   0  409.80   29.39
  -7  -2   0  363.17   23.01
  -7  -2   0  387.41   23.50
   7   2   1  593.05   36.57
  -7  -2  -1  605.37   34.61
  -7  -2  -1  612.45   39.43
   7   2   2    8.98    8.38
  -7  -2  -2   17.55   10.93
  -7  -2  -2   13.33    5.42
   7   2   3   23.98   14.06
  -7  -2  -3   41.91   19.19
  -7  -2  -3   29.82   12.88
   7   2   4   11.08   12.14
  -7  -2  -4    7.37    5.45
  -7  -2  -4   17.86    9.05
   7   2   5    7.38    8.18
  -7  -2  -5   -0.62    6.08
   7   2   6   73.34   36.74
  -7  -2  -6   87.01   12.50
   7   2   7    6.19    7.49
  -7  -2  -7    2.28   10.05
   7   2   8   38.23   32.74
  -7  -2  -8   60.22    8.99
   7   3 -12   12.66    9.34
   7   3 -12    1.99    5.27
  -7  -3  12    5.07    5.91
   7   3 -11    3.09    6.76
   7   3 -11    5.69    8.14
  -7  -3  11    8.40    5.24
   7   3 -10    4.84    5.54
   7   3 -10    4.22    5.60
  -7  -3  10    7.24    9.87
   7   3  -9    1.28    8.50
   7   3  -9    0.56    7.87
  -7  -3   9   -7.39    9.32
   7   3  -8  338.63   16.49
   7   3  -8  283.28   31.16
  -7  -3   8  276.49   16.46
   7   3  -7    6.80    8.34
   7   3  -7    4.45    6.03
  -7  -3   7   10.02   11.57
   7   3  -6    1.02    4.66
   7   3  -6    2.33    3.03
  -7  -3   6    6.44    5.18
   7   3  -5  307.05   15.86
  -7  -3   5  296.83   19.20
   7   3  -4  247.05   21.47
   7   3  -4  225.57   13.40
  -7  -3   4  269.63   19.23
   7   3  -3   29.03   15.77
   7   3  -3   46.00   17.13
  -7  -3   3   29.84   11.42
   7   3  -2   -0.50    6.58
   7   3  -2    7.67    5.86
  -7  -3   2   -0.90    7.32
   7   3  -1   44.98   27.26
   7   3  -1   54.33    8.46
  -7  -3   1   49.27   14.93
   7   3   0   33.99   32.06
  -7  -3   0   35.98   18.54
  -7  -3   0   35.38   15.32
   7   3   1  188.02   17.65
  -7  -3  -1  191.03   14.16
  -7  -3  -1  209.77   11.54
   7   3   2  300.78   31.12
  -7  -3  -2  286.14   20.74
  -7  -3  -2  312.01   20.31
   7   3   3   25.75   17.49
  -7  -3  -3   33.39   18.09
  -7  -3  -3   20.53   14.90
   7   3   4   38.97   14.79
  -7  -3  -4   33.54   14.62
   7   3   5  162.58   19.23
  -7  -3  -5  121.70   16.67
   7   3   6   22.61   13.17
  -7  -3  -6   20.84   14.29
   7   3   7   82.07   12.34
  -7  -3  -7   27.59   22.57
   7   4 -11    0.44    4.56
   7   4 -11   -0.33    6.97
  -7  -4  11    8.91    9.67
   7   4 -10    2.84    7.48
   7   4 -10    4.56    7.42
  -7  -4  10   -0.56    7.36
   7   4  -9    0.07    5.42
   7   4  -9   -2.23    6.74
  -7  -4   9    1.99    4.46
   7   4  -8   -1.93    5.22
   7   4  -8    1.63    5.70
  -7  -4   8    2.69    4.34
   7   4  -7   29.65    8.90
   7   4  -7   19.40   16.71
  -7  -4   7   21.65   13.21
   7   4  -6   18.62   12.62
   7   4  -6   12.99    9.69
  -7  -4   6   19.02   10.34
   7   4  -5    4.90    5.81
   7   4  -5   -0.26    7.06
  -7  -4   5    3.56    8.11
   7   4  -4   59.96   15.93
   7   4  -4   71.32   23.44
  -7  -4   4   58.22   38.26
   7   4  -3    2.42    7.70
   7   4  -3    6.50    3.99
  -7  -4   3    3.59    4.20
   7   4  -2    1.10    6.12
   7   4  -2    2.85    3.02
  -7  -4   2    7.40    7.61
   7   4  -1   -0.70    6.03
   7   4  -1   -2.51    6.42
  -7  -4   1    3.36    7.37
   7   4   0   58.43    9.73
   7   4   0   49.88   24.89
  -7  -4   0   42.70   27.12
   7   4   1  389.12   17.55
  -7  -4  -1  399.15   19.12
  -7  -4  -1  411.95   40.90
   7   4   2   36.74   29.75
  -7  -4  -2   47.00   21.84
  -7  -4  -2   38.41   24.99
   7   4   3   33.21   21.37
  -7  -4  -3   34.74   18.16
  -7  -4  -3   34.10    5.41
   7   4   4  145.65   15.64
  -7  -4  -4  149.29   13.50
   7   4   5    1.87    4.17
  -7  -4  -5    4.11    3.77
   7   4   6   18.66   15.59
  -7  -4  -6   10.91   10.84
   7   5 -10    5.61    3.99
  -7  -5  10    8.01    8.85
   7   5  -9   45.93   27.65
  -7  -5   9   44.55   32.79
   7   5  -8   58.15    9.14
   7   5  -8   42.31   29.75
  -7  -5   8   55.82   14.19
   7   5  -7    1.97    4.99
   7   5  -7   -0.33    7.71
  -7  -5   7    1.83    8.58
   7   5  -6   74.44    8.98
   7   5  -6   64.78   24.41
  -7  -5   6   92.69   12.49
   7   5  -5   81.49   12.27
   7   5  -5   75.22    9.87
  -7  -5   5   65.29   11.77
   7   5  -4  120.33   13.79
   7   5  -4  138.59   20.12
  -7  -5   4  129.64   16.81
   7   5  -3   68.66   35.53
   7   5  -3   79.45   10.84
  -7  -5   3   62.67   10.62
   7   5  -2  120.81   13.47
   7   5  -2  130.33   15.28
  -7  -5   2  112.18   11.54
   7   5  -1   15.91   10.81
   7   5  -1   16.08   11.03
  -7  -5   1   13.09    9.82
   7   5   0   43.20    7.75
   7   5   0   31.37   14.64
  -7  -5   0   33.57   21.66
   7   5   1   30.32   28.97
  -7  -5  -1   28.10   13.33
  -7  -5  -1   37.76   23.52
  -7  -5  -2   12.81    7.25
  -7  -5  -2   10.61    7.90
   7   5   3    2.59    4.33
  -7  -5  -3    2.52    3.75
   7   5   4    2.51    7.10
  -7  -5  -4    2.44    3.48
   7   5   5    1.54    6.84
  -7  -5  -5    4.03    7.03
   7   6  -9    4.61    4.36
  -7  -6   9    5.67    8.23
   7   6  -8   10.60   13.43
  -7  -6   8   19.44   15.35
   7   6  -7   13.53   10.84
  -7  -6   7    4.73    7.87
   7   6  -6    0.24    8.75
  -7  -6   6    4.87    5.29
   7   6  -5   12.90    8.02
  -7  -6   5   14.01   10.97
   7   6  -4   81.55   10.22
   7   6  -4   70.93   19.21
  -7  -6   4   59.05   38.92
   7   6  -3  203.57   12.96
   7   6  -3  175.27   12.60
  -7  -6   3  197.31   14.42
   7   6  -2    2.11    6.36
   7   6  -2    5.01    6.17
  -7  -6   2    6.60    7.83
   7   6  -1    2.34    4.00
   7   6  -1    5.12    3.14
  -7  -6   1    5.22    8.70
   7   6   0    3.27    4.40
   7   6   0    2.34    5.14
  -7  -6   0    8.26    5.42
   7   6   1   43.14   34.68
  -7  -6  -1   43.51   32.06
  -7  -6  -1   58.08   10.38
   7   6   2    1.38    6.83
  -7  -6  -2    0.00    6.12
   7   6   3   12.49   14.55
  -7  -6  -3   11.87    8.66
   7   7  -6   12.20   13.96
  -7  -7   6   20.47   10.18
   7   7  -5    5.01    8.43
  -7  -7   5    2.67    4.48
   7   7  -4    0.75    3.00
  -7  -7   4    3.74    6.72
   7   7  -3   86.75   12.03
  -7  -7   3   83.37   11.98
   7   7  -2  113.19   14.91
  -7  -7   2   50.39   39.38
   7   7  -1   12.63   12.99
  -7  -7   1    9.17    6.49
   8  -8  -2    4.61    8.08
  -8   8   2   10.44   12.85
   8  -8  -1   25.09   23.79
  -8   8   1   16.94   21.36
   8  -8   0    3.72    5.21
  -8   8   0    1.39    5.39
   8  -8   1    2.78    3.52
  -8   8  -1    2.34    5.05
   8  -8   2    3.67    4.40
  -8   8  -2    4.57   10.34
  -8   8  -3   28.58   25.17
   8  -7  -5   10.16   12.21
  -8   7   5    4.07    6.81
   8  -7  -4   12.74   10.90
  -8   7   4    8.30    8.29
   8  -7  -3  116.78   29.21
  -8   7   3  113.16   12.04
   8  -7  -2   95.39   24.18
  -8   7   2  137.88   16.73
   8  -7  -1   17.37   11.26
  -8   7   1   19.74    9.39
   8  -7   0    1.71    3.40
  -8   7   0   -5.99    7.75
   8  -7   1   46.51   32.94
  -8   7  -1   47.04   38.13
   8  -7   2   38.87    6.65
  -8   7  -2   34.70   19.28
   8  -7   3   10.58   10.29
  -8   7  -3   13.67   16.09
   8  -7   4  106.91   11.25
  -8   7  -4  110.44   11.15
  -8   7  -4  125.63   12.83
   8  -7   5  205.07   14.08
  -8   7  -5  200.95   14.22
  -8   7  -5  196.73   16.04
   8  -7   6   61.96   12.19
  -8   7  -6   52.35    8.08
  -8   7  -6   40.71    8.21
   8  -6  -7   10.62   13.86
  -8   6   7   10.41   10.96
   8  -6  -6  121.19   17.90
  -8   6   6  118.26   17.81
   8  -6  -5    4.88    6.72
  -8   6   5   -0.91    8.93
   8  -6  -4    6.08    6.78
  -8   6   4    3.16    6.43
   8  -6  -3    4.27    5.10
  -8   6   3    9.51    7.13
   8  -6  -2   61.20   37.23
  -8   6   2   56.35   37.97
   8  -6  -1   48.05    8.55
  -8   6   1   45.20   20.63
   8  -6   0  143.83   16.59
  -8   6   0  144.62   19.04
   8  -6   1   70.95   17.75
  -8   6  -1   65.03   39.73
   8  -6   2  110.65   15.57
  -8   6  -2  105.36   11.44
  -8   6  -2  106.65   17.19
   8  -6   3   38.72   25.90
  -8   6  -3   45.96    7.94
  -8   6  -3   35.52   17.97
   8  -6   4   25.26   17.18
  -8   6  -4   27.82   14.52
  -8   6  -4   29.88   11.70
   8  -6   5  196.15   18.98
  -8   6  -5  196.92   14.39
  -8   6  -5  203.92   18.92
   8  -6   6   87.92   10.86
  -8   6  -6   82.60   13.50
  -8   6  -6   86.48   10.54
   8  -6   7    5.19    8.97
  -8   6  -7   12.45   10.25
  -8   6  -7   11.64    5.65
   8  -5  -8   -0.41    7.07
  -8   5   8    0.87    7.70
   8  -5  -7    0.47    3.26
  -8   5   7    9.35    6.64
   8  -5  -6   24.50    8.65
  -8   5   6   22.74   22.54
   8  -5  -5  154.24   19.64
  -8   5   5  132.01   47.06
   8  -5  -4   36.58   12.41
  -8   5   4   25.13   17.46
   8  -5  -3  167.82   34.72
  -8   5   3  184.74   14.03
   8  -5  -2  229.28   27.49
  -8   5   2  259.96   18.66
   8  -5  -1   13.64   21.84
  -8   5   1   11.65    6.96
   8  -5   0    2.50    5.17
  -8   5   0    2.10    3.73
  -8   5   0    2.72    5.68
   8  -5   1   51.15   23.35
  -8   5  -1   44.55   18.48
  -8   5  -1   46.54   14.92
   8  -5   2    2.36    6.98
  -8   5  -2    1.91    3.01
  -8   5  -2    3.09    4.50
   8  -5   3    3.81    6.30
  -8   5  -3    0.79    4.07
  -8   5  -3    1.54    5.99
   8  -5   4   15.07   10.01
  -8   5  -4   15.45   13.34
  -8   5  -4   14.01    9.06
   8  -5   5  201.58   21.82
  -8   5  -5  225.12   17.17
  -8   5  -5  216.73   25.39
   8  -5   6   -0.79    8.93
  -8   5  -6    1.59    9.99
  -8   5  -6    7.58    8.97
   8  -5   7   68.72    9.58
  -8   5  -7   66.97    8.55
  -8   5  -7   58.06   17.41
   8  -5   8  160.90   18.89
  -8   5  -8  138.52   16.77
   8  -4  -9   98.74   13.80
  -8   4   9   83.90   25.21
   8  -4  -8   42.39   29.75
  -8   4   8   35.84   26.64
   8  -4  -7   46.66   10.04
  -8   4   7   60.12   33.72
   8  -4  -6   64.53   35.88
  -8   4   6   51.34   25.66
   8  -4  -5    6.71    6.93
  -8   4   5    3.73    4.85
   8  -4  -4  126.54   14.85
  -8   4   4  105.93   13.89
   8  -4  -3   28.66   19.76
  -8   4   3   20.14   12.43
   8  -4  -2   47.51   28.78
  -8   4   2   48.36    6.50
  -8   4   2   69.60   27.91
   8  -4  -1  105.01   12.67
  -8   4   1  107.90    7.96
  -8   4   1  102.35   48.38
   8  -4   0   27.70   15.67
  -8   4   0   42.98    6.37
  -8   4   0   35.96   16.01
   8  -4   1  128.54   15.57
  -8   4  -1  113.36   12.75
  -8   4  -1  158.39   14.84
   8  -4   2  161.04   16.00
  -8   4  -2  152.35   12.92
  -8   4  -2  161.89   18.12
   8  -4   3  334.19   19.02
  -8   4  -3  258.89   15.12
  -8   4  -3  261.20   37.74
   8  -4   4  151.83   17.66
  -8   4  -4  157.35   11.05
  -8   4  -4  159.87   13.29
   8  -4   5   42.54   38.46
  -8   4  -5   52.07    8.03
  -8   4  -5   56.49   11.46
   8  -4   6  378.84   25.54
  -8   4  -6  347.20   21.74
  -8   4  -6  362.59   20.45
   8  -4   7   33.10   19.78
  -8   4  -7   38.28   22.24
  -8   4  -7   23.93   18.43
   8  -4   8   92.12   10.56
  -8   4  -8   83.79   11.19
   8  -3 -10   15.70   16.62
  -8   3  10   17.83   11.90
   8  -3  -9   -1.68    8.47
  -8   3   9    1.95    2.97
   8  -3  -8    6.92    7.66
  -8   3   8    8.95    9.49
   8  -3  -7   23.21    7.44
  -8   3   7   23.73    9.20
   8  -3  -6   61.61   32.66
  -8   3   6   76.22    8.86
   8  -3  -5    7.43    4.38
  -8   3   5    3.73    3.78
  -8   3   5    6.93   10.30
   8  -3  -4  143.94   17.20
  -8   3   4  138.64    8.86
  -8   3   4  143.37   17.74
   8  -3  -3    4.54   10.14
  -8   3   3    3.32    5.21
  -8   3   3   -3.62    6.64
   8  -3  -2  156.05   18.62
  -8   3   2  150.63   10.22
  -8   3   2  117.98   42.00
   8  -3  -1   85.80   10.40
  -8   3   1   98.20    7.50
  -8   3   1   94.38   13.94
   8  -3   0    3.54    3.41
  -8   3   0   -1.84    4.45
  -8   3   0   -0.51    5.04
   8  -3   1  127.14   13.42
  -8   3  -1  117.51    9.43
  -8   3  -1  143.31   11.55
   8  -3   2   14.38    7.79
  -8   3  -2    9.98   10.45
  -8   3  -2   23.45    9.65
   8  -3   3   24.63   18.03
  -8   3  -3   35.85   17.65
  -8   3  -3   41.89   22.70
   8  -3   4  178.55   13.33
  -8   3  -4  216.73   12.65
  -8   3  -4  205.36   14.53
   8  -3   5  197.85   25.45
  -8   3  -5  207.19   20.92
  -8   3  -5  216.44   19.12
   8  -3   6    4.39    6.06
  -8   3  -6    7.78    7.80
  -8   3  -6    5.48    2.92
   8  -3   7   66.92   35.69
  -8   3  -7   46.77   24.32
   8  -3   8    3.62    5.79
  -8   3  -8    4.64    9.83
   8  -2 -11   10.54   16.64
  -8   2  11    9.76   13.75
   8  -2 -10    6.32   10.93
  -8   2  10    1.46    3.22
   8  -2  -9    2.61    4.62
  -8   2   9    2.54    5.94
   8  -2  -8   -0.33    7.14
  -8   2   8    3.13    4.66
   8  -2  -7   38.32   15.63
  -8   2   7   21.85   14.82
   8  -2  -6   -3.99    8.63
  -8   2   6    2.79    4.52
  -8   2   6   -0.64    6.81
   8  -2  -5    3.68    7.17
  -8   2   5    3.04    3.95
  -8   2   5    3.62    3.30
   8  -2  -4    1.00    6.66
  -8   2   4    2.52    3.61
  -8   2   4   -1.92    6.91
   8  -2  -3   20.97   12.65
  -8   2   3   22.68   16.27
  -8   2   3   16.36    5.90
   8  -2  -2    5.54   11.75
  -8   2   2    3.08    2.97
  -8   2   2   -3.02    6.83
   8  -2  -1   35.78   18.24
  -8   2   1   30.34   17.27
  -8   2   1   33.35   14.99
   8  -2   0  272.90   23.50
  -8   2   0  267.74   13.35
  -8   2   0  283.46   17.19
   8  -2   1  177.99   17.08
  -8   2  -1  196.40   13.67
  -8   2  -1  186.39   15.96
   8  -2   2  456.40   36.80
  -8   2  -2  478.67   18.88
  -8   2  -2  454.54   15.10
   8  -2   3   25.01   24.68
  -8   2  -3   35.83   20.33
  -8   2  -3   28.80   16.69
   8  -2   4    9.03   12.82
  -8   2  -4   13.41    9.01
  -8   2  -4   18.80    9.72
   8  -2   5    9.84   10.05
  -8   2  -5    8.22    6.78
  -8   2  -5    5.90    5.08
   8  -2   6   64.28   40.92
  -8   2  -6   77.54   11.18
  -8   2  -6   65.80    6.35
   8  -2   7    7.21   12.59
  -8   2  -7   13.78   15.63
   8  -2   8    7.97    9.45
  -8   2  -8    3.69    7.35
   8  -1 -11   -0.13    8.24
  -8   1  11    2.49    6.41
   8  -1 -10    6.24    9.49
  -8   1  10    7.42    6.14
   8  -1  -9    8.25   10.52
  -8   1   9   14.53    9.84
   8  -1  -8   14.52    9.01
   8  -1  -8   11.67    7.71
  -8   1   8   10.55    8.53
   8  -1  -7   -0.40    5.45
   8  -1  -7   -0.62    3.08
  -8   1   7   -6.08    7.09
   8  -1  -6   13.68    8.85
   8  -1  -6    9.14    7.26
  -8   1   6    4.59    8.61
   8  -1  -5   62.89   31.23
   8  -1  -5   74.46   30.65
  -8   1   5   68.23   24.27
   8  -1  -4  396.50   31.46
  -8   1   4  373.97   44.93
  -8   1   4  410.20   17.26
   8  -1  -3  312.61   24.57
  -8   1   3  262.69   28.83
  -8   1   3  358.95   19.52
   8  -1  -2    6.09   10.79
  -8   1   2   13.27    7.02
  -8   1   2   13.90    7.83
   8  -1  -1   16.41   14.83
  -8   1   1   25.26   11.36
  -8   1   1   17.98   20.48
   8  -1   0   13.24    8.52
  -8   1   0   15.62    7.74
  -8   1   0   16.41    6.48
   8  -1   1   44.20   31.98
  -8   1  -1   41.83   19.99
  -8   1  -1   55.81    7.71
   8  -1   2    1.42    5.38
  -8   1  -2   -0.27    7.28
  -8   1  -2   -1.30    5.69
   8  -1   3   20.66   11.44
  -8   1  -3   28.20   18.78
  -8   1  -3   29.62   10.91
   8  -1   4    3.99    3.46
  -8   1  -4    2.81    3.85
  -8   1  -4    0.39    3.10
   8  -1   5    5.69    6.10
  -8   1  -5    8.39    8.19
  -8   1  -5    2.97    3.05
   8  -1   6  373.64   28.14
  -8   1  -6  300.20   22.77
   8  -1   7   26.22   14.66
  -8   1  -7   30.92   15.95
   8  -1   8    9.11   10.15
  -8   1  -8    7.17    3.86
   8   0 -11    1.40    5.10
  -8   0  11    6.30    8.52
   8   0 -10   39.74   10.51
   8   0 -10   52.09    6.38
  -8   0  10   38.47   32.75
   8   0  -9   42.62    9.93
   8   0  -9   47.40    5.96
  -8   0   9   45.95   22.28
   8   0  -8  332.88   31.75
   8   0  -8  322.18   33.28
  -8   0   8  373.53   28.73
   8   0  -7  392.34   31.34
   8   0  -7  375.31   15.69
  -8   0   7  367.47   51.00
   8   0  -6  163.82   20.87
   8   0  -6  181.06   18.27
  -8   0   6  169.66   30.06
   8   0  -5    6.95    5.17
   8   0  -5   11.60    4.07
  -8   0   5    8.39    7.28
   8   0  -4   50.04   25.45
  -8   0   4   48.47   32.37
  -8   0   3  844.44   29.60
  -8   0   3  891.95   30.07
  -8   0   2  699.00   24.19
  -8   0   2  719.40   27.93
   8   0  -1    6.71    8.84
  -8   0   1    5.93    7.56
  -8   0   1    3.27    3.53
   8   0   0   55.61   30.08
  -8   0   0   75.82   29.11
  -8   0   0   66.68    7.24
   8   0   1  121.81   12.43
  -8   0  -1  135.69   21.15
  -8   0  -1  132.03   28.18
   8   0   2  212.28   19.75
  -8   0  -2  192.67   33.17
  -8   0  -2  194.96   12.45
   8   0   3  234.09   23.34
  -8   0  -3  243.11   20.60
  -8   0  -3  230.77   25.57
   8   0   4   33.19   26.85
  -8   0  -4   25.09   15.28
  -8   0  -4   25.22   13.94
   8   0   5   92.52   53.87
  -8   0  -5   48.57   32.65
   8   0   6    3.28    7.42
  -8   0  -6    9.99    9.24
   8   0   7   82.81   49.61
  -8   0  -7   82.19   11.66
   8   0   8   31.30   18.94
  -8   0  -8   22.34   21.82
   8   1 -11    8.82    8.99
   8   1 -11    5.21    6.92
  -8  -1  11    6.40    9.53
   8   1 -10   25.86   18.85
   8   1 -10   20.49   11.13
  -8  -1  10   18.38   17.33
   8   1  -9    4.95    4.12
   8   1  -9    2.97    3.27
  -8  -1   9    1.60    6.85
   8   1  -8    2.53    8.54
   8   1  -8    2.94    5.12
  -8  -1   8   -3.69    8.15
   8   1  -7   88.87   11.91
   8   1  -7  107.34   18.54
  -8  -1   7  107.45   14.82
   8   1  -6  125.50   16.03
   8   1  -6  129.41   11.62
  -8  -1   6  108.19   11.14
   8   1  -5    0.28    7.90
   8   1  -5    2.20    4.87
  -8  -1   5    3.45    7.91
   8   1  -4   52.30   33.34
   8   1  -4   49.68   25.76
  -8  -1   4   51.94   34.06
   8   1  -3    6.51   14.82
   8   1  -3    6.90    4.62
  -8  -1   3    4.91    5.72
   8   1  -2  248.81   19.29
  -8  -1   2  232.63   14.15
  -8  -1   2  256.40   16.52
   8   1  -1   70.16   21.84
  -8  -1   1   64.62   19.89
  -8  -1   1   55.28   25.69
   8   1   0    4.90   10.65
  -8  -1   0   10.36    9.33
  -8  -1   0    9.10    8.60
   8   1   1  104.88   12.02
  -8  -1  -1  103.83   11.37
  -8  -1  -1  119.88   12.76
   8   1   2    8.09    7.19
  -8  -1  -2    9.98    5.90
  -8  -1  -2    5.94    5.96
   8   1   3  144.96   14.34
  -8  -1  -3  141.36   12.27
  -8  -1  -3  144.02    9.24
   8   1   4   23.38   14.07
  -8  -1  -4   22.59   15.34
  -8  -1  -4   14.96    9.95
   8   1   5   33.04   22.90
  -8  -1  -5   19.88   12.41
   8   1   6  269.72   25.54
  -8  -1  -6  276.70   15.31
   8   1   7    3.64    6.82
  -8  -1  -7   -2.01    8.30
   8   2 -11    2.50    6.38
   8   2 -11   -1.35    5.02
  -8  -2  11    6.07    7.93
   8   2 -10  169.73   15.97
   8   2 -10  154.77   11.86
  -8  -2  10  158.59   17.11
   8   2  -9   81.68   13.37
   8   2  -9   64.22   31.25
  -8  -2   9   48.79   36.02
   8   2  -8  187.98   19.35
   8   2  -8  176.99   14.53
  -8  -2   8  163.09   19.66
   8   2  -7   13.02    9.76
   8   2  -7   16.94    9.85
  -8  -2   7    7.75    7.16
   8   2  -6    5.04    4.30
   8   2  -6    5.73    5.43
  -8  -2   6    5.53    7.33
   8   2  -5   59.61    9.38
   8   2  -5   81.80   14.58
  -8  -2   5   80.90   11.62
   8   2  -4  294.55   24.31
   8   2  -4  289.31   21.57
  -8  -2   4  282.07   23.71
   8   2  -3  132.37   21.16
   8   2  -3  139.54   13.05
  -8  -2   3  122.36   12.45
   8   2  -2   30.57   24.27
   8   2  -2   29.58   14.33
  -8  -2   2   24.71   10.46
   8   2  -1   78.62   11.23
  -8  -2   1   85.91   37.38
  -8  -2   1   82.75    9.22
   8   2   0  225.82   19.29
  -8  -2   0  223.13   23.95
  -8  -2   0  254.84   20.20
   8   2   1   96.10   13.29
  -8  -2  -1  104.03   17.85
  -8  -2  -1  114.97    8.98
   8   2   2    1.78    8.67
  -8  -2  -2    2.67    4.22
  -8  -2  -2    3.30    6.47
   8   2   3   -1.54    8.79
  -8  -2  -3   -0.34    6.71
  -8  -2  -3    3.02    5.11
   8   2   4    1.02    6.70
  -8  -2  -4    0.82    4.93
   8   2   5    1.95   10.46
  -8  -2  -5    3.72    8.52
   8   2   6    4.07    8.36
  -8  -2  -6    2.06    7.73
   8   3 -10    2.23    5.82
   8   3 -10    3.04    5.77
  -8  -3  10    5.49    6.27
   8   3  -9  234.69   18.10
   8   3  -9  231.55   15.28
  -8  -3   9  213.36   48.89
   8   3  -8   36.27   25.83
   8   3  -8   49.17   16.96
  -8  -3   8   33.29   17.64
   8   3  -7  175.56   17.49
   8   3  -7  180.78   16.79
  -8  -3   7  151.38   15.14
   8   3  -6    0.89    4.04
   8   3  -6    3.24    3.88
  -8  -3   6   -8.37    8.26
   8   3  -5  178.82   15.93
   8   3  -5  163.74   16.07
  -8  -3   5  171.73   18.03
   8   3  -4  563.55   24.99
  -8  -3   4  494.90   51.06
   8   3  -3  401.51   20.86
  -8  -3   3  402.47   19.09
   8   3  -2  313.68   20.81
   8   3  -2  352.99   17.68
  -8  -3   2  346.34   17.63
   8   3  -1  171.04   15.01
  -8  -3   1  154.83   13.40
  -8  -3   1  151.26   14.62
   8   3   0   55.36   33.22
  -8  -3   0   55.63   35.54
  -8  -3   0   65.18   30.85
   8   3   1  178.82   20.02
  -8  -3  -1  174.95   22.98
  -8  -3  -1  138.01   13.28
   8   3   2  345.93   24.05
  -8  -3  -2  372.69   33.08
  -8  -3  -2  356.87   20.94
   8   3   3    2.94    3.39
  -8  -3  -3   10.05   11.27
   8   3   4   68.64   12.92
  -8  -3  -4   47.57   23.60
   8   3   5   18.58   35.15
  -8  -3  -5   21.36   13.79
   8   4  -9   58.07   37.31
   8   4  -9   93.25   22.38
  -8  -4   9   82.50   17.24
   8   4  -8    3.66    5.96
   8   4  -8   11.69    8.20
  -8  -4   8    9.14    9.00
   8   4  -7   35.66   27.90
   8   4  -7   29.71   24.21
  -8  -4   7   48.04   25.36
   8   4  -6   42.13    8.90
   8   4  -6   28.65   30.24
  -8  -4   6   24.49   17.44
   8   4  -5    6.17   10.62
   8   4  -5    5.35    9.78
  -8  -4   5    5.36    7.08
   8   4  -4  112.21   15.72
   8   4  -4   82.96   38.31
  -8  -4   4  106.50   27.52
   8   4  -3   28.73   22.59
   8   4  -3   30.70   18.43
  -8  -4   3   37.82   22.31
   8   4  -2    6.59    6.31
   8   4  -2    2.34    3.50
  -8  -4   2   11.63    6.86
   8   4  -1    8.53    6.58
   8   4  -1    7.64    7.06
  -8  -4   1    4.90    9.48
   8   4   0    7.04    6.09
  -8  -4   0    4.21    5.98
  -8  -4   0    1.96    6.21
   8   4   1   41.73   34.26
  -8  -4  -1   40.56   29.14
  -8  -4  -1   48.05    8.40
   8   4   2    0.00    8.26
  -8  -4  -2    1.43    4.19
  -8  -4  -2   -0.48    4.65
  -8  -4  -3   16.36   14.92
   8   4   4    3.78    6.69
  -8  -4  -4    5.52    5.91
   8   5  -8   27.93   19.77
  -8  -5   8   39.29   10.54
   8   5  -7   13.99   12.23
   8   5  -7   16.31   12.73
  -8  -5   7   12.89   17.86
   8   5  -6    4.03    4.32
   8   5  -6    6.73    4.31
  -8  -5   6   -1.43    8.61
   8   5  -5   18.52   10.22
   8   5  -5    8.94    7.72
  -8  -5   5   13.93   10.31
   8   5  -4   30.61   22.82
   8   5  -4   42.00   24.66
  -8  -5   4   28.99   22.62
   8   5  -3    2.79    9.89
   8   5  -3    3.08    6.74
  -8  -5   3    1.74    6.77
   8   5  -2    1.73    6.84
   8   5  -2    1.32    3.75
  -8  -5   2    0.40    4.43
   8   5  -1    1.56    5.21
   8   5  -1    2.26    3.44
  -8  -5   1    2.15    6.40
   8   5   0   32.55   39.17
  -8  -5   0   22.47   21.61
  -8  -5   0   31.14   24.78
   8   5   1   28.29   27.52
  -8  -5  -1   32.19   21.91
  -8  -5  -1   19.89   25.45
   8   5   2   30.13   23.59
  -8  -5  -2   21.45   13.15
   8   6  -4    3.22    6.98
  -8  -6   4    5.20    6.28
   8   6  -3   30.13   19.30
  -8  -6   3   27.65   25.00
   8   6  -2    8.70   16.71
   8   6  -2   12.09   12.91
  -8  -6   2   11.77    6.56
   9  -7  -1    8.65    9.18
  -9   7   1    9.83   12.02
   9  -7   0    4.25    5.60
  -9   7   0    2.52    3.21
   9  -7   1   10.87   10.02
  -9   7  -1    3.56    6.82
   9  -6  -5   15.72   13.83
  -9   6   5   27.98   20.70
   9  -6  -4   25.65   31.06
  -9   6   4   32.24   22.50
   9  -6  -3    4.69    4.81
  -9   6   3    6.66    7.77
   9  -6  -2    7.00    5.98
  -9   6   2    6.22    8.55
   9  -6  -1   12.48   10.72
  -9   6   1    5.56    7.67
   9  -6   0    0.81    7.55
  -9   6   0    3.08    6.24
   9  -6   1  138.80   22.76
  -9   6  -1  129.07   15.01
   9  -6   2   97.89   33.85
  -9   6  -2  100.23   10.46
   9  -6   3  115.20   11.96
  -9   6  -3  121.09   14.51
  -9   6  -3  110.54   11.22
   9  -6   4  130.69   15.81
  -9   6  -4   97.78   34.57
  -9   6  -4  117.46   14.89
   9  -5  -6    2.97    6.99
  -9   5   6   16.73    7.75
   9  -5  -5   39.78   36.30
  -9   5   5   77.89   23.32
   9  -5  -4   90.16   13.32
  -9   5   4   84.52   10.33
   9  -5  -3   21.01   28.81
  -9   5   3   39.22   21.35
   9  -5  -2   53.04   33.68
  -9   5   2   83.62   28.24
   9  -5  -1   25.81   18.96
  -9   5   1   29.00   24.29
   9  -5   0    7.75    4.22
  -9   5   0   14.10   11.09
   9  -5   1   24.57   15.66
  -9   5  -1   13.37   16.93
  -9   5  -1   31.10    7.46
   9  -5   2   94.39   12.49
  -9   5  -2   93.17    9.96
  -9   5  -2   98.91   35.71
   9  -5   3  139.34   17.51
  -9   5  -3  110.77   12.75
  -9   5  -3  123.63   11.64
   9  -5   4  101.61   20.69
  -9   5  -4   95.82   16.27
  -9   5  -4   78.47   39.27
   9  -5   5   45.00   34.74
  -9   5  -5   55.49   33.37
  -9   5  -5   33.73   28.55
   9  -4  -8   18.48   18.83
  -9   4   8   19.97   18.22
   9  -4  -7   45.07   31.44
  -9   4   7   39.85   33.38
   9  -4  -6   16.50    9.30
  -9   4   6   14.73    8.96
   9  -4  -5   14.34   19.41
  -9   4   5    5.38    6.19
   9  -4  -4   67.37   37.60
  -9   4   4   61.29   42.73
   9  -4  -3  126.89   25.62
  -9   4   3  154.78   16.77
   9  -4  -2   37.39   25.84
  -9   4   2   40.67   24.03
   9  -4  -1   65.59   22.26
  -9   4   1   74.70    8.48
  -9   4   1   78.50   38.69
   9  -4   0   69.47   13.81
  -9   4   0   84.98    9.82
  -9   4   0   69.64   35.53
   9  -4   1   36.09   23.27
  -9   4  -1   30.10   21.64
  -9   4  -1   37.67   24.55
   9  -4   2   22.01   13.31
  -9   4  -2   18.82    9.52
  -9   4  -2   24.09   12.05
   9  -4   3   10.76   11.92
  -9   4  -3   22.16   23.14
  -9   4  -3   27.32    8.29
   9  -4   4   59.57   31.35
  -9   4  -4   51.43   29.50
  -9   4  -4   77.80   11.65
   9  -4   5   32.84   21.32
  -9   4  -5   39.21   21.78
  -9   4  -5   30.09   23.98
   9  -4   6   31.04   18.38
  -9   4  -6   44.39   31.16
  -9   4  -6   46.04    7.61
   9  -3  -8    6.62    8.14
  -9   3   8    6.32    5.37
   9  -3  -7    3.79    6.09
  -9   3   7    6.75    5.84
   9  -3  -6   23.22   20.36
  -9   3   6   12.59   15.00
   9  -3  -5   63.09   48.90
  -9   3   5   58.90   33.87
   9  -3  -4    6.34    6.45
  -9   3   4    2.47    4.72
   9  -3  -3   77.74   38.29
  -9   3   3   75.15    7.98
  -9   3   3   90.13   15.26
   9  -3  -2   17.68    9.41
  -9   3   2   10.80    8.54
  -9   3   2    9.24   13.28
   9  -3  -1    5.64    9.28
  -9   3   1    1.48    4.81
  -9   3   1    0.68    4.01
   9  -3   0    9.38    9.91
  -9   3   0    3.48    5.19
  -9   3   0    6.74    7.61
   9  -3   1    5.72    9.57
  -9   3  -1    2.38    3.13
  -9   3  -1    6.19    8.32
   9  -3   2   23.29   16.20
  -9   3  -2   29.33   16.55
  -9   3  -2   46.04   24.95
   9  -3   3   40.10   34.70
  -9   3  -3   36.51   27.48
  -9   3  -3   45.89   22.91
   9  -3   4   94.42   33.29
  -9   3  -4   56.97   36.62
  -9   3  -4   95.53    9.25
   9  -3   5   31.72   30.46
  -9   3  -5   47.89   34.41
  -9   3  -5   62.12    7.49
   9  -3   6  134.88   16.60
  -9   3  -6  137.42   16.44
   9  -2  -9    3.12    8.28
  -9   2   9    8.49    6.46
   9  -2  -8   56.97    9.71
  -9   2   8   43.99   29.41
   9  -2  -7   37.31   12.21
  -9   2   7   25.47   18.53
   9  -2  -6    9.12   10.46
  -9   2   6    8.41    4.73
   9  -2  -5    7.44   10.24
  -9   2   5    4.87    4.24
  -9   2   5    8.99   10.36
   9  -2  -4   30.12   22.99
  -9   2   4   40.99    5.96
  -9   2   4   35.80   13.03
   9  -2  -3    1.17    2.94
  -9   2   3   10.42    9.05
  -9   2   3   16.17   10.63
   9  -2  -2    4.64    3.45
  -9   2   2    6.30    5.31
  -9   2   2    9.45    7.91
   9  -2  -1   62.10   12.91
  -9   2   1   46.85    7.81
  -9   2   1   47.37   29.08
   9  -2   0  347.90   28.36
  -9   2   0  288.38   24.24
  -9   2   0  313.13   31.27
   9  -2   1  181.76   20.50
  -9   2  -1  162.57   16.68
  -9   2  -1  167.91   18.68
   9  -2   2  191.73   17.27
  -9   2  -2  186.52   17.16
  -9   2  -2  203.39   19.78
   9  -2   3  227.84   23.21
  -9   2  -3  195.73   19.30
  -9   2  -3  240.06   17.95
   9  -2   4  258.85   36.03
  -9   2  -4  241.16   17.14
  -9   2  -4  243.00   26.84
   9  -2   5  115.46   21.82
  -9   2  -5   87.35   41.70
  -9   2  -5  100.92   22.19
   9  -2   6   26.20   18.95
  -9   2  -6   11.46    8.82
   9  -1  -9   19.38   10.55
  -9   1   9   17.23   14.97
   9  -1  -8   10.43    8.06
  -9   1   8    2.12    3.01
   9  -1  -7   11.75   11.01
   9  -1  -7    5.77    3.22
  -9   1   7   13.23    8.40
   9  -1  -6   22.50    8.89
  -9   1   6   45.14    6.55
  -9   1   6   19.38   10.34
   9  -1  -5    7.45    8.29
  -9   1   5    9.32    5.32
  -9   1   5    1.94    5.62
   9  -1  -4  123.73   18.01
  -9   1   4  138.78   14.11
  -9   1   4  125.47   17.44
   9  -1  -3  140.31   34.39
  -9   1   3  152.68   14.91
  -9   1   3  124.91   35.18
   9  -1  -2   43.56   24.45
  -9   1   2   37.77   28.16
  -9   1   2   31.64   21.81
  -9   1   1    4.30    8.31
  -9   1   1    7.93    6.42
   9  -1   0   22.24   20.72
  -9   1   0   11.45   10.01
  -9   1   0   26.16   10.75
   9  -1   1  125.87   14.79
  -9   1  -1  155.61   14.77
  -9   1  -1  160.65   15.77
   9  -1   2   29.98   18.83
  -9   1  -2   22.95   12.58
  -9   1  -2   22.83   18.32
   9  -1   3   54.97   24.09
  -9   1  -3   48.83    8.63
  -9   1  -3   33.06   22.39
   9  -1   4   46.06   29.69
  -9   1  -4   41.00   29.02
  -9   1  -4   52.81    7.69
   9  -1   5   43.87   21.00
  -9   1  -5   42.74    9.23
   9  -1   6    2.29    4.61
  -9   1  -6    0.98    5.01
   9   0  -9   26.72    8.95
   9   0  -9   37.79    5.90
  -9   0   9   32.22    8.89
   9   0  -8    6.43    9.84
   9   0  -8   -0.04    2.40
  -9   0   8   -4.19    5.89
   9   0  -7    0.47    4.98
   9   0  -7   -0.03    3.81
  -9   0   7    1.78    4.84
   9   0  -6   -0.77    8.68
   9   0  -6    4.13    5.64
  -9   0   6    2.17    4.54
   9   0  -5   38.19    9.07
   9   0  -5   48.02   21.51
  -9   0   5   57.23    8.93
   9   0  -4    7.89    5.42
  -9   0   4   11.76    8.85
  -9   0   4   14.20    9.75
   9   0  -3   10.58   13.11
  -9   0   3   14.35   12.46
  -9   0   3   19.16    7.30
   9   0  -2  198.50   22.90
  -9   0   2  208.17   17.68
  -9   0   2  219.84   19.67
   9   0  -1   20.99   22.74
  -9   0   1    6.25    9.17
  -9   0   1   14.56    7.26
   9   0   0  170.74   19.79
  -9   0   0  202.77   18.58
  -9   0   0  213.34   20.17
   9   0   1   49.87   39.47
  -9   0  -1   64.17   31.36
  -9   0  -1   44.32   32.35
   9   0   2    1.28    4.25
  -9   0  -2    1.60    4.47
  -9   0  -2    0.56    4.36
   9   0   3    1.63    5.42
  -9   0  -3    2.30    8.44
  -9   0  -3    3.15    3.83
   9   0   4   48.17   37.60
  -9   0  -4   34.62   28.02
  -9   0  -4   53.54    8.44
   9   0   5    3.90    8.10
  -9   0  -5    0.92    4.14
   9   0   6    4.33   10.47
  -9   0  -6    3.73    8.77
   9   1  -9    4.37    6.10
   9   1  -9    6.79    5.53
  -9  -1   9    3.45    5.88
   9   1  -8   -1.24    6.02
   9   1  -8    0.48    2.93
  -9  -1   8    4.87    5.90
   9   1  -7   14.92   10.64
   9   1  -7   16.54    6.83
  -9  -1   7   10.35    6.64
   9   1  -6  119.84   38.17
   9   1  -6  141.78   11.76
  -9  -1   6  110.93   21.17
   9   1  -5   45.92   31.53
   9   1  -5   51.37   19.51
  -9  -1   5   41.84   25.14
   9   1  -4   89.74   13.95
   9   1  -4   87.96   10.54
  -9  -1   4   80.14   10.82
   9   1  -3   -0.03    6.75
  -9  -1   3   -0.64    6.58
  -9  -1   3    0.64    5.88
   9   1  -2   25.46   23.25
  -9  -1   2   24.00   13.65
  -9  -1   2   24.76   13.29
   9   1  -1    4.77   12.35
  -9  -1   1    9.19    8.90
  -9  -1   1   13.01    6.73
   9   1   0   32.08   39.53
  -9  -1   0   42.91   22.75
  -9  -1   0   36.88   28.91
   9   1   1  112.46   13.89
  -9  -1  -1  154.58   16.11
  -9  -1  -1  146.50   16.36
   9   1   2    7.91    7.03
  -9  -1  -2    5.53    9.34
  -9  -1  -2    7.28    5.91
   9   1   3  106.66   16.78
  -9  -1  -3  109.16   11.21
  -9  -1  -3   87.92    8.49
   9   1   4   92.37   27.08
  -9  -1  -4   75.39   24.76
   9   1   5    2.36    4.77
  -9  -1  -5   11.29    7.21
   9   2  -9  412.70   41.36
   9   2  -9  353.55   30.88
  -9  -2   9  434.58   37.96
   9   2  -8   26.28   32.97
   9   2  -8   24.69   13.23
  -9  -2   8   25.41   22.41
   9   2  -7    5.80    6.80
   9   2  -7    3.84    4.04
  -9  -2   7   -2.75    9.62
   9   2  -6  121.68   13.46
   9   2  -6   86.60    9.77
  -9  -2   6   85.19   12.87
   9   2  -5  163.04   26.20
   9   2  -5  190.04   13.99
  -9  -2   5  197.00   16.67
   9   2  -4  126.12   14.83
   9   2  -4  135.01   14.17
  -9  -2   4  109.81   11.61
   9   2  -3  102.51   12.46
   9   2  -3  116.66   12.74
  -9  -2   3  115.72   16.72
   9   2  -2    9.73    8.49
  -9  -2   2    3.10    5.56
  -9  -2   2   -0.45    5.12
   9   2  -1  345.70   20.68
  -9  -2   1  306.69   26.28
  -9  -2   1  333.86   16.51
   9   2   0   10.63    9.58
  -9  -2   0   11.94    8.70
  -9  -2   0    9.47    8.26
   9   2   1  309.52   19.06
  -9  -2  -1  324.19   18.44
  -9  -2  -1  337.25   17.34
   9   2   2   90.83   17.67
  -9  -2  -2   54.76   35.39
  -9  -2  -2   81.43    7.64
   9   2   3    6.88   11.24
  -9  -2  -3    8.63   10.36
   9   2   4   14.46   22.58
  -9  -2  -4   20.42   20.16
   9   3  -8   65.79   12.90
   9   3  -8   63.00   37.69
  -9  -3   8   45.66   29.53
   9   3  -7    2.19    4.02
   9   3  -7    0.63    3.41
  -9  -3   7    7.66    6.12
   9   3  -6   20.43   14.80
   9   3  -6   23.20   10.38
  -9  -3   6    8.37    9.83
   9   3  -5    2.21    6.78
   9   3  -5   -1.14    5.91
  -9  -3   5    5.43    6.08
   9   3  -4    1.35    6.41
   9   3  -4    5.96    6.19
  -9  -3   4    6.27    7.47
   9   3  -3   77.21   13.04
   9   3  -3   69.86   36.28
  -9  -3   3  102.18   14.16
   9   3  -2   47.91   24.55
  -9  -3   2   39.69   17.98
  -9  -3   2   31.38   22.62
   9   3  -1    4.42    6.00
  -9  -3   1    1.10    4.88
  -9  -3   1    3.43    3.51
   9   3   0   40.60   29.04
  -9  -3   0   30.41   20.73
  -9  -3   0   21.81   22.20
   9   3   1   37.72   18.62
  -9  -3  -1   36.57   24.22
  -9  -3  -1   54.52   12.28
   9   3   2   44.39   34.83
  -9  -3  -2   53.07   32.17
  -9  -3  -2   52.55    7.28
   9   4  -6   20.92   14.89
   9   4  -6   28.98   15.19
  -9  -4   6   27.76   18.75
   9   4  -5  134.35   17.17
   9   4  -5  137.19   16.21
  -9  -4   5  145.76   17.08
   9   4  -4   54.35   36.74
   9   4  -4   42.24   26.47
  -9  -4   4   51.85   35.39
   9   4  -3   17.11   14.83
   9   4  -3   19.05   19.33
  -9  -4   3   21.10   14.12
   9   4  -2    8.21    8.20
  -9  -4   2    6.95    7.92
  -9  -4   2   13.14    7.48
   9   4  -1   49.04   11.90
  -9  -4   1   28.98   25.86
  -9  -4   1   37.55    7.35
   9   4   0    2.54   12.52
  -9  -4   0   -2.51    8.06
  -9  -4   0    4.82    8.72
  10  -5  -1   24.86   22.80
 -10   5   1   25.77   23.10
  10  -4  -4   36.08   23.04
 -10   4   4   41.89   29.44
  10  -4  -3   -1.79    7.54
 -10   4   3    2.61    3.87
  10  -4  -2    4.75    5.10
 -10   4   2    6.03    4.60
  10  -4  -1    3.80    5.12
 -10   4   1   12.81    5.52
  10  -4   0  149.26   26.68
 -10   4   0  140.29   10.62
 -10   4   0  146.18   14.99
  10  -4   1  124.46   37.32
 -10   4  -1  134.16   14.58
 -10   4  -1  161.43   20.33
  10  -4   2  158.67   20.11
 -10   4  -2  114.25   12.39
 -10   4  -2  146.46   18.83
  10  -3  -5   53.92   49.34
 -10   3   5   57.49   41.55
  10  -3  -4  102.99   16.35
 -10   3   4   83.17   10.58
  10  -3  -3   17.63   14.69
 -10   3   3    7.25    5.15
  10  -3  -2   16.73    8.95
 -10   3   2   11.82   11.13
 -10   3   2   17.54   13.43
  10  -3  -1   32.67   23.94
 -10   3   1   21.69   20.10
 -10   3   1   17.99   12.07
  10  -3   0    8.63    8.48
 -10   3   0    5.72   11.07
 -10   3   0    6.40    5.78
  10  -3   1  100.66   15.07
 -10   3  -1  117.32   13.19
 -10   3  -1  106.98   16.61
  10  -3   2   61.71   49.84
 -10   3  -2   76.89   10.76
 -10   3  -2   74.23   11.41
  10  -3   3   26.64   21.58
 -10   3  -3   25.47   18.45
 -10   3  -3   20.94   15.06
  10  -2  -6   11.06    6.42
 -10   2   6   10.94    9.17
  10  -2  -5   68.17   55.34
 -10   2   5   87.67   13.22
  10  -2  -4   44.33   34.35
 -10   2   4   43.78   31.76
 -10   2   4   68.45   10.85
  10  -2  -3   16.66   10.03
 -10   2   3   17.79   12.75
 -10   2   3   15.73   14.76
  10  -2  -2   32.70   28.57
 -10   2   2   32.19   21.42
 -10   2   2   28.15   18.99
  10  -2  -1   33.29   26.35
 -10   2   1   27.56   25.56
 -10   2   1   30.91   29.60
  10  -2   0    6.32    8.26
 -10   2   0    4.74    4.79
 -10   2   0    5.56    6.63
  10  -2   1   11.68   15.07
 -10   2  -1   12.23    6.25
 -10   2  -1    7.37    5.15
  10  -2   2   34.39   23.13
 -10   2  -2   24.64   22.72
 -10   2  -2   27.60   28.73
  10  -2   3   42.81   25.86
 -10   2  -3   34.75   24.77
 -10   2  -3   42.59   25.89
  10  -1  -6   -2.41    6.79
 -10   1   6    1.90    5.61
 -10   1   6    1.95    6.00
  10  -1  -5   12.22    6.00
 -10   1   5   10.35   10.76
 -10   1   5   12.22   10.38
  10  -1  -4   68.99   10.96
 -10   1   4   34.20   28.56
 -10   1   4   40.27   22.36
  10  -1  -3    4.76    9.06
 -10   1   3    4.88    9.05
 -10   1   3    1.97    8.68
  10  -1  -2   28.29   13.22
 -10   1   2   18.41   12.26
 -10   1   2   18.12   12.13
  10  -1  -1    3.72    5.27
 -10   1   1    9.16    4.55
 -10   1   1    2.61    4.77
  10  -1   0   -0.32    8.75
 -10   1   0    0.76    6.67
 -10   1   0    6.01    4.51
  10  -1   1   51.70   45.28
 -10   1  -1   48.56   28.11
 -10   1  -1   63.89    9.69
  10  -1   2   53.90   36.15
 -10   1  -2   45.99   33.23
 -10   1  -2   44.32   32.56
  10  -1   3   30.83   16.01
 -10   1  -3   12.24    8.41
 -10   1  -3   14.13   12.55
  10   0  -6    0.70   11.54
 -10   0   6    1.41    3.46
 -10   0   6    4.49    5.07
  10   0  -5   -0.46    8.25
 -10   0   5   -1.46    7.22
 -10   0   5    4.89    4.19
  10   0  -4    8.04   10.18
 -10   0   4    7.24    8.98
 -10   0   4    8.44   10.73
  10   0  -3    8.68    9.38
 -10   0   3   10.27   10.06
 -10   0   3    3.87    5.59
  10   0  -2  136.78   14.14
 -10   0   2  151.09   13.16
 -10   0   2  132.69   30.12
  10   0  -1  149.34   16.71
 -10   0   1  142.63   13.44
 -10   0   1  123.76   14.71
  10   0   0   55.65   37.50
 -10   0   0   95.35   15.93
 -10   0   0   80.18   28.48
  10   0   1  328.83   25.70
 -10   0  -1  302.59   21.52
 -10   0  -1  294.92   16.89
  10   0   2  226.44   36.99
 -10   0  -2  211.73   25.89
 -10   0  -2  218.92   20.95
  10   1  -6  140.39   18.04
  10   1  -6  135.75   16.79
 -10  -1   6  126.07   19.92
  10   1  -5   53.06   39.65
 -10  -1   5   55.36    9.77
 -10  -1   5   66.22   10.34
  10   1  -4   22.22    7.98
 -10  -1   4   16.91   10.97
 -10  -1   4   16.22   12.05
  10   1  -3   23.43   14.05
 -10  -1   3   22.85   17.57
 -10  -1   3   16.30   13.01
  10   1  -2   33.93   26.47
 -10  -1   2   25.91   24.32
 -10  -1   2   30.06   17.40
  10   1  -1   23.44   27.62
 -10  -1   1   17.06   12.26
 -10  -1   1   17.84   18.81
  10   1   0   30.27   20.91
 -10  -1   0   26.47   10.67
 -10  -1   0   11.10   14.88
  10   1   1    4.33    6.09
 -10  -1  -1    4.98   12.21
 -10  -1  -1    9.54    7.98
  10   2  -4    7.23    7.10
 -10  -2   4   36.96   30.17
 -10  -2   4    2.24    5.35
  10   2  -3   27.11   28.97
 -10  -2   3   26.66   19.16
 -10  -2   3   21.94   23.20
  10   2  -2   65.33   10.57
 -10  -2   2   49.45   32.27
 -10  -2   2   43.51   32.44
  10   2  -1   -1.10    4.13
 -10  -2   1   -0.16    7.90
 -10  -2   1    1.45    5.70
   0   0   0    0.00    0.00
;
_shelx_hkl_checksum              51296
_olex2_submission_special_instructions 'No special instructions were received'
loop_
_space_group_symop_operation_xyz
'x, y, z'
'-x, -y, -z'
loop_
_atom_site_label
_atom_site_type_symbol
_atom_site_fract_x
_atom_site_fract_y
_atom_site_fract_z
_atom_site_U_iso_or_equiv
_atom_site_adp_type
_atom_site_occupancy
_atom_site_site_symmetry_order
_atom_site_calc_flag
_atom_site_refinement_flags_posn
Cl1 Cl 0.15684(5) 0.87939(6) -0.03360(4) 0.05555(19) Uani 1 1 d .
O1 O 0.97367(14) 0.62567(13) 0.14587(8) 0.0376(3) Uani 1 1 d .
O2 O 0.78851(13) 0.72347(11) 0.34145(8) 0.0314(3) Uani 1 1 d .
O3 O 0.63121(15) 0.49807(12) 0.23385(8) 0.0376(3) Uani 1 1 d .
N1 N 0.73506(15) 0.68643(14) 0.04690(9) 0.0255(3) Uani 1 1 d .
N2 N 1.0150(2) 1.05981(17) 0.30110(12) 0.0502(4) Uani 1 1 d .
C1 C 0.78760(18) 0.79611(16) 0.24214(11) 0.0274(3) Uani 1 1 d .
C2 C 0.84819(18) 0.68805(17) 0.13980(11) 0.0274(3) Uani 1 1 d .
C3 C 0.59848(17) 0.76442(16) 0.07503(11) 0.0245(3) Uani 1 1 d .
C4 C 0.62118(19) 0.83033(16) 0.19024(12) 0.0272(3) Uani 1 1 d .
C5 C 0.5026(2) 0.91451(18) 0.23617(14) 0.0365(4) Uani 1 1 d .
H5 H 0.519069 0.961480 0.314294 0.044 Uiso 1 1 calc R
C6 C 0.3585(2) 0.92958(19) 0.16636(15) 0.0412(4) Uani 1 1 d .
H6 H 0.275081 0.986497 0.196536 0.049 Uiso 1 1 calc R
C7 C 0.33751(19) 0.86108(18) 0.05266(14) 0.0350(4) Uani 1 1 d .
C8 C 0.45620(18) 0.77734(17) 0.00335(13) 0.0295(3) Uani 1 1 d .
H8 H 0.440423 0.731712 -0.074989 0.035 Uiso 1 1 calc R
C9 C 0.7510(2) 0.60635(18) -0.06706(11) 0.0309(3) Uani 1 1 d .
H9A H 0.852079 0.553831 -0.064751 0.046 Uiso 1 1 calc GR
H9B H 0.760662 0.687082 -0.116145 0.046 Uiso 1 1 calc GR
H9C H 0.650852 0.524383 -0.096774 0.046 Uiso 1 1 calc GR
C10 C 0.9155(2) 0.94541(18) 0.27785(12) 0.0334(4) Uani 1 1 d .
C11 C 0.70562(19) 0.56751(17) 0.32496(12) 0.0302(3) Uani 1 1 d .
C12 C 0.72159(19) 0.49885(18) 0.42972(12) 0.0320(4) Uani 1 1 d .
C13 C 0.8143(2) 0.58583(19) 0.53020(12) 0.0368(4) Uani 1 1 d .
H13 H 0.866980 0.694462 0.534106 0.044 Uiso 1 1 calc R
C14 C 0.8302(2) 0.5141(2) 0.62519(13) 0.0425(4) Uani 1 1 d .
H14 H 0.894148 0.573850 0.693781 0.051 Uiso 1 1 calc R
C15 C 0.7538(3) 0.3573(2) 0.62019(14) 0.0546(5) Uani 1 1 d .
H15 H 0.766038 0.307849 0.684772 0.065 Uiso 1 1 calc R
C16 C 0.6586(3) 0.2718(2) 0.52028(17) 0.0807(8) Uani 1 1 d .
H16 H 0.603723 0.164126 0.517115 0.097 Uiso 1 1 calc R
C17 C 0.6428(3) 0.3419(2) 0.42485(15) 0.0612(6) Uani 1 1 d .
H17 H 0.578037 0.282199 0.356522 0.073 Uiso 1 1 calc R
loop_
_atom_site_aniso_label
_atom_site_aniso_U_11
_atom_site_aniso_U_22
_atom_site_aniso_U_33
_atom_site_aniso_U_23
_atom_site_aniso_U_13
_atom_site_aniso_U_12
Cl1 0.0264(2) 0.0594(3) 0.0906(4) 0.0423(3) 0.0028(2) 0.01034(19)
O1 0.0337(6) 0.0470(7) 0.0327(6) 0.0050(5) -0.0017(5) 0.0171(5)
O2 0.0411(6) 0.0287(6) 0.0216(5) 0.0043(4) 0.0003(4) -0.0006(5)
O3 0.0481(7) 0.0337(6) 0.0253(6) 0.0047(4) -0.0072(5) -0.0021(5)
N1 0.0259(6) 0.0283(6) 0.0215(6) 0.0023(5) 0.0006(5) 0.0068(5)
N2 0.0525(10) 0.0420(8) 0.0475(9) -0.0019(7) 0.0058(7) -0.0087(7)
C1 0.0311(8) 0.0264(7) 0.0234(7) 0.0042(6) 0.0019(6) 0.0019(6)
C2 0.0289(8) 0.0280(8) 0.0248(7) 0.0046(6) 0.0020(6) 0.0048(6)
C3 0.0248(7) 0.0210(7) 0.0286(7) 0.0070(5) 0.0052(6) 0.0021(5)
C4 0.0299(7) 0.0240(7) 0.0291(7) 0.0071(6) 0.0074(6) 0.0042(6)
C5 0.0436(10) 0.0297(8) 0.0403(9) 0.0089(7) 0.0176(7) 0.0072(7)
C6 0.0374(9) 0.0343(9) 0.0629(11) 0.0202(8) 0.0243(8) 0.0158(7)
C7 0.0248(7) 0.0303(8) 0.0552(10) 0.0222(7) 0.0073(7) 0.0044(6)
C8 0.0256(7) 0.0283(8) 0.0361(8) 0.0130(6) 0.0025(6) 0.0018(6)
C9 0.0335(8) 0.0353(8) 0.0219(7) 0.0004(6) 0.0024(6) 0.0065(6)
C10 0.0395(9) 0.0328(9) 0.0259(8) 0.0015(6) 0.0060(6) 0.0031(7)
C11 0.0335(8) 0.0279(8) 0.0270(8) 0.0029(6) 0.0009(6) 0.0028(6)
C12 0.0349(8) 0.0337(8) 0.0262(8) 0.0072(6) -0.0006(6) 0.0028(7)
C13 0.0433(9) 0.0372(9) 0.0269(8) 0.0044(6) 0.0010(7) 0.0005(7)
C14 0.0457(10) 0.0524(10) 0.0264(8) 0.0087(7) -0.0014(7) 0.0010(8)
C15 0.0665(13) 0.0616(12) 0.0345(10) 0.0237(8) -0.0048(9) -0.0021(10)
C16 0.126(2) 0.0498(12) 0.0503(12) 0.0258(10) -0.0232(13) -0.0328(13)
C17 0.0912(17) 0.0438(11) 0.0350(10) 0.0126(8) -0.0190(10) -0.0204(10)
loop_
_atom_type_symbol
_atom_type_description
_atom_type_scat_dispersion_real
_atom_type_scat_dispersion_imag
_atom_type_scat_source
C C 0.0033 0.0016 'International Tables Vol C Tables 4.2.6.8 and 6.1.1.4'
H H 0.0000 0.0000 'International Tables Vol C Tables 4.2.6.8 and 6.1.1.4'
Cl Cl 0.1484 0.1585 'International Tables Vol C Tables 4.2.6.8 and 6.1.1.4'
N N 0.0061 0.0033 'International Tables Vol C Tables 4.2.6.8 and 6.1.1.4'
O O 0.0106 0.0060 'International Tables Vol C Tables 4.2.6.8 and 6.1.1.4'
loop_
_geom_angle_atom_site_label_1
_geom_angle_atom_site_label_2
_geom_angle_atom_site_label_3
_geom_angle
C11 O2 C1 115.58(10)
C2 N1 C3 111.83(11)
C2 N1 C9 123.74(12)
C3 N1 C9 124.37(11)
O2 C1 C2 113.19(11)
O2 C1 C4 117.43(12)
O2 C1 C10 103.97(11)
C4 C1 C2 102.59(11)
C10 C1 C2 107.13(12)
C10 C1 C4 112.35(12)
O1 C2 N1 128.67(13)
O1 C2 C1 124.86(13)
N1 C2 C1 106.44(12)
C4 C3 N1 110.62(12)
C8 C3 N1 127.48(13)
C8 C3 C4 121.90(13)
C3 C4 C1 108.11(12)
C5 C4 C1 131.45(14)
C5 C4 C3 120.41(14)
C4 C5 H5 120.5
C4 C5 C6 119.01(15)
C6 C5 H5 120.5
C5 C6 H6 120.2
C7 C6 C5 119.54(15)
C7 C6 H6 120.2
C6 C7 Cl1 119.23(12)
C6 C7 C8 122.83(15)
C8 C7 Cl1 117.94(13)
C3 C8 C7 116.30(14)
C3 C8 H8 121.9
C7 C8 H8 121.9
N1 C9 H9A 109.5
N1 C9 H9B 109.5
N1 C9 H9C 109.5
H9A C9 H9B 109.5
H9A C9 H9C 109.5
H9B C9 H9C 109.5
N2 C10 C1 177.36(16)
O2 C11 C12 112.02(12)
O3 C11 O2 121.90(13)
O3 C11 C12 126.08(14)
C13 C12 C11 122.23(14)
C17 C12 C11 117.95(14)
C17 C12 C13 119.82(15)
C12 C13 H13 120.0
C12 C13 C14 120.07(15)
C14 C13 H13 120.0
C13 C14 H14 119.9
C15 C14 C13 120.24(15)
C15 C14 H14 119.9
C14 C15 H15 120.2
C14 C15 C16 119.55(17)
C16 C15 H15 120.2
C15 C16 H16 119.7
C15 C16 C17 120.65(18)
C17 C16 H16 119.7
C12 C17 C16 119.66(16)
C12 C17 H17 120.2
C16 C17 H17 120.2
loop_
_geom_bond_atom_site_label_1
_geom_bond_atom_site_label_2
_geom_bond_distance
Cl1 C7 1.7349(16)
O1 C2 1.2038(17)
O2 C1 1.4412(17)
O2 C11 1.3674(17)
O3 C11 1.2082(17)
N1 C2 1.3633(17)
N1 C3 1.4041(17)
N1 C9 1.4601(17)
N2 C10 1.143(2)
C1 C2 1.578(2)
C1 C4 1.502(2)
C1 C10 1.486(2)
C3 C4 1.395(2)
C3 C8 1.3868(19)
C4 C5 1.380(2)
C5 H5 0.9500
C5 C6 1.391(2)
C6 H6 0.9500
C6 C7 1.384(2)
C7 C8 1.395(2)
C8 H8 0.9500
C9 H9A 0.9800
C9 H9B 0.9800
C9 H9C 0.9800
C11 C12 1.483(2)
C12 C13 1.388(2)
C12 C17 1.381(2)
C13 H13 0.9500
C13 C14 1.391(2)
C14 H14 0.9500
C14 C15 1.374(3)
C15 H15 0.9500
C15 C16 1.386(3)
C16 H16 0.9500
C16 C17 1.387(2)
C17 H17 0.9500
loop_
_geom_torsion_atom_site_label_1
_geom_torsion_atom_site_label_2
_geom_torsion_atom_site_label_3
_geom_torsion_atom_site_label_4
_geom_torsion
Cl1 C7 C8 C3 -179.65(10)
O2 C1 C2 O1 -48.21(19)
O2 C1 C2 N1 133.83(12)
O2 C1 C4 C3 -129.22(12)
O2 C1 C4 C5 53.1(2)
O2 C11 C12 C13 -1.4(2)
O2 C11 C12 C17 179.69(16)
O3 C11 C12 C13 177.90(16)
O3 C11 C12 C17 -1.1(3)
N1 C3 C4 C1 1.18(15)
N1 C3 C4 C5 179.20(13)
N1 C3 C8 C7 179.72(13)
C1 O2 C11 O3 -2.8(2)
C1 O2 C11 C12 176.53(12)
C1 C4 C5 C6 178.87(14)
C2 N1 C3 C4 3.31(16)
C2 N1 C3 C8 -175.99(13)
C2 C1 C4 C3 -4.43(14)
C2 C1 C4 C5 177.84(15)
C3 N1 C2 O1 176.11(14)
C3 N1 C2 C1 -6.03(15)
C3 C4 C5 C6 1.4(2)
C4 C1 C2 O1 -175.74(14)
C4 C1 C2 N1 6.30(14)
C4 C3 C8 C7 0.5(2)
C4 C5 C6 C7 -0.4(2)
C5 C6 C7 Cl1 179.61(11)
C5 C6 C7 C8 -0.6(2)
C6 C7 C8 C3 0.5(2)
C8 C3 C4 C1 -179.47(12)
C8 C3 C4 C5 -1.4(2)
C9 N1 C2 O1 -1.2(2)
C9 N1 C2 C1 176.64(12)
C9 N1 C3 C4 -179.38(13)
C9 N1 C3 C8 1.3(2)
C10 C1 C2 O1 65.80(18)
C10 C1 C2 N1 -112.16(13)
C10 C1 C4 C3 110.29(13)
C10 C1 C4 C5 -67.4(2)
C11 O2 C1 C2 -51.72(16)
C11 O2 C1 C4 67.59(16)
C11 O2 C1 C10 -167.62(12)
C11 C12 C13 C14 -177.83(15)
C11 C12 C17 C16 178.2(2)
C12 C13 C14 C15 -0.3(3)
C13 C12 C17 C16 -0.7(3)
C13 C14 C15 C16 -0.9(3)
C14 C15 C16 C17 1.3(4)
C15 C16 C17 C12 -0.5(4)
C17 C12 C13 C14 1.1(3)
