#------------------------------------------------------------------------------
#$Date: 2019-11-17 14:30:37 +0200 (Sun, 17 Nov 2019) $
#$Revision: 230511 $
#$URL: file:///home/coder/svn-repositories/cod/cif/7/05/77/7057774.cif $
#------------------------------------------------------------------------------
#
# This file is available in the Crystallography Open Database (COD),
# http://www.crystallography.net/
#
# All data on this site have been placed in the public domain by the
# contributors.
#
data_7057774
loop_
_publ_author_name
'Cargnelutti, Roberta'
'Delgado, C\'assia P.'
'Cervo, Rodrigo'
'Tirloni, B\'arbara'
'Burrow, Robert A.'
'Lang, Ernesto S.'
_publ_section_title
;
 Synthesis and structural chemistry of CoII, CuII, CuI and PdII complexes
 containing a flexible monoselenoether ligand
;
_journal_issue                   21
_journal_name_full               'New Journal of Chemistry'
_journal_page_first              17185
_journal_paper_doi               10.1039/C8NJ03621G
_journal_volume                  42
_journal_year                    2018
_chemical_formula_moiety         'C12 H8 Cu N2 O4, 2(H2O)'
_chemical_formula_sum            'C12 H12 Cu N2 O6'
_chemical_formula_weight         343.78
_chemical_melting_point          564.1(10)
_space_group_crystal_system      triclinic
_space_group_IT_number           2
_space_group_name_Hall           '-P 1'
_space_group_name_H-M_alt        'P -1'
_symmetry_space_group_name_Hall  '-P 1'
_symmetry_space_group_name_H-M   'P -1'
_atom_sites_solution_hydrogens   mixed
_audit_creation_method           'APEX3 v2017.3-0'
_audit_update_record
;
2018-09-12 deposited with the CCDC.
2018-09-27 downloaded from the CCDC.
;
_cell_angle_alpha                75.934(15)
_cell_angle_beta                 85.21(2)
_cell_angle_gamma                72.06(2)
_cell_formula_units_Z            1
_cell_length_a                   5.114(2)
_cell_length_b                   7.550(3)
_cell_length_c                   9.106(3)
_cell_measurement_reflns_used    9917
_cell_measurement_temperature    100(2)
_cell_measurement_theta_max      23.54
_cell_measurement_theta_min      2.59
_cell_measurement_wavelength     0.56086
_cell_volume                     324.5(2)
_computing_cell_refinement       'SAINT V8.38A (Bruker AXS Inc., 2017)'
_computing_data_collection       'APEX3 v2017.3-0 (Bruker AXS Inc., 2017'
_computing_data_reduction        'SAINT V8.38A (Bruker AXS Inc., 2016)'
_computing_molecular_graphics    'shelXle (C.B. Huebschle, rev 833)'
_computing_publication_material  vim
_computing_structure_refinement  'SHELXL-2016/6 (Sheldrick, 2016)'
_computing_structure_solution    'SHELXT 2014/5 (Sheldrick, 2014)'
_diffrn_ambient_temperature      100(2)
_diffrn_measured_fraction_theta_full 0.997
_diffrn_measured_fraction_theta_max 0.995
_diffrn_measurement_device_type  'Bruker APEX-II CCD'
_diffrn_radiation_type           AgK\a
_diffrn_radiation_wavelength     0.56086
_diffrn_reflns_av_R_equivalents  0.0424
_diffrn_reflns_av_unetI/netI     0.0151
_diffrn_reflns_Laue_measured_fraction_full 0.997
_diffrn_reflns_Laue_measured_fraction_max 0.995
_diffrn_reflns_limit_h_max       7
_diffrn_reflns_limit_h_min       -7
_diffrn_reflns_limit_k_max       10
_diffrn_reflns_limit_k_min       -10
_diffrn_reflns_limit_l_max       13
_diffrn_reflns_limit_l_min       -13
_diffrn_reflns_number            30413
_diffrn_reflns_point_group_measured_fraction_full 0.997
_diffrn_reflns_point_group_measured_fraction_max 0.995
_diffrn_reflns_theta_full        19.665
_diffrn_reflns_theta_max         23.699
_diffrn_reflns_theta_min         2.584
_exptl_absorpt_coefficient_mu    0.906
_exptl_absorpt_correction_T_max  0.7449
_exptl_absorpt_correction_T_min  0.6969
_exptl_absorpt_correction_type   multi-scan
_exptl_absorpt_process_details
;
        SADABS(Bruker, 2007) was used to perform the data scaling
        and semi-empirical absorption correction based on symmetry-
        related refkections.
;
_exptl_crystal_colour            blue
_exptl_crystal_density_diffrn    1.760
_exptl_crystal_density_method    'not measured'
_exptl_crystal_description       plate
_exptl_crystal_F_000             175
_exptl_crystal_size_max          0.198
_exptl_crystal_size_mid          0.106
_exptl_crystal_size_min          0.098
_refine_diff_density_max         0.468
_refine_diff_density_min         -0.388
_refine_diff_density_rms         0.070
_refine_ls_extinction_method     none
_refine_ls_goodness_of_fit_ref   1.128
_refine_ls_hydrogen_treatment    mixed
_refine_ls_matrix_type           full
_refine_ls_number_parameters     119
_refine_ls_number_reflns         1995
_refine_ls_number_restraints     6
_refine_ls_restrained_S_all      1.126
_refine_ls_R_factor_all          0.0259
_refine_ls_R_factor_gt           0.0231
_refine_ls_shift/su_max          0.001
_refine_ls_shift/su_mean         0.000
_refine_ls_structure_factor_coef Fsqd
_refine_ls_weighting_details
'w=1/[\s^2^(Fo^2^)+(0.0204P)^2^+0.2985P] where P=(Fo^2^+2Fc^2^)/3'
_refine_ls_weighting_scheme      calc
_refine_ls_wR_factor_gt          0.0566
_refine_ls_wR_factor_ref         0.0578
_reflns_Friedel_coverage         0.000
_reflns_number_gt                1899
_reflns_number_total             1995
_reflns_threshold_expression     'I > 2\s(I)'
_cod_data_source_file            c8nj03621g2.cif
_cod_data_source_block           compound_2d
_cod_depositor_comments
;
The following automatic conversions were performed:

'_chemical_melting_point' value '563.15-565.15 K' was changed to
'564.1(10)' - the average value was taken and precision was
estimated.

Automatic conversion script
Id: cif_fix_values 4973 2017-02-22 13:04:09Z antanas 

 Adding full bibliography for 7057773--7057780.cif.
;
_cod_original_cell_volume        324.4(2)
_cod_database_code               7057774
_shelx_shelxl_version_number     2016/4
_shelx_space_group_comment
;
The symmetry employed for this shelxl refinement is uniquely defined
by the following loop, which should always be used as a source of
symmetry information in preference to the above space-group names.
They are only intended as comments.
;
_shelx_estimated_absorpt_t_min   0.841
_shelx_estimated_absorpt_t_max   0.916
_shelx_res_file
;
TITL ag_ESLCD78oxidacao_0m_a.res in P-1
    compound_2d.res
    created by SHELXL-2017/1 at 10:52:24 on 12-Sep-2018
CELL  0.56086   5.1137   7.5500   9.1055   75.934   85.209   72.058
ZERR     1.00   0.0020   0.0026   0.0034    0.015    0.023    0.020
LATT   1
SFAC  C    H    N    O    CU
UNIT  12 12 2 6 1
HTAB
FMAP   2
PLAN   10
SIZE     0.098   0.106   0.198
ACTA
BOND   $H
CONF
LIST   4
REM Instructions for potential hydrogen bonds
EQIV $6 -x-1, -y+2, -z+1
HTAB C3 O2_$6
EQIV $5 -x+1, -y+1, -z+1
HTAB C6 O1_$5
HTAB O1W^a O2
EQIV $7 -x-1, -y+1, -z+2
HTAB O1W^a O1W^a_$7
EQIV $8 -x, -y+1, -z+2
HTAB O1W^a O1W^a_$8
HTAB O1WA^b O2
HTAB O1WA^b O1WA^b_$7
HTAB O1WA^b O1WA^b_$8
L.S.  10
REM  Try to reduce elongation of O1WA.
ISOR O1WA
REM  Treat the hydrogen atoms bound to O1W and O1WA as the same.
EXYZ H1WA H1WD
EADP H1WA H1WD
EXYZ H1WB H1WE
EADP H1WB H1WE
EXYZ H1WC H1WF
EADP H1WC H1WF
TEMP  -173.17
WGHT    0.020400    0.298500
FVAR       0.51496   0.92737
CU1   5    0.500000    0.500000    0.500000    10.50000    0.00387    0.00957 =
         0.01103    0.00004    0.00092    0.00100
C1    1   -0.036069    0.679477    0.564401    11.00000    0.00875    0.00954 =
         0.01245   -0.00416    0.00019   -0.00225
N1    3    0.281240    0.729380    0.359762    11.00000    0.00716    0.00978 =
         0.01080   -0.00212   -0.00024   -0.00155
O1    4    0.169562    0.541804    0.626826    11.00000    0.00733    0.01245 =
         0.01167   -0.00102    0.00128   -0.00046
O2    4   -0.275082    0.715782    0.616230    11.00000    0.00771    0.01541 =
         0.01606   -0.00409    0.00237   -0.00031
C2    1    0.026931    0.800603    0.414470    11.00000    0.00734    0.00973 =
         0.01154   -0.00326   -0.00124   -0.00218
C3    1   -0.156359    0.969766    0.339944    11.00000    0.00926    0.01137 =
         0.01524   -0.00403   -0.00269   -0.00012
AFIX  43
H3    2   -0.335488    1.016245    0.379838    11.00000   -1.20000
AFIX   0
C4    1   -0.070160    1.070125    0.204337    11.00000    0.01583    0.01118 =
         0.01573   -0.00071   -0.00483   -0.00151
AFIX  43
H4    2   -0.188566    1.188613    0.151781    11.00000   -1.20000
AFIX   0
C6    1    0.362103    0.822091    0.226523    11.00000    0.01034    0.01472 =
         0.01267   -0.00186    0.00066   -0.00443
AFIX  43
H6    2    0.538516    0.768726    0.186356    11.00000   -1.20000
AFIX   0
C5    1    0.191199    0.994702    0.146942    11.00000    0.01645    0.01559 =
         0.01147    0.00119   -0.00142   -0.00513
AFIX  43
H5    2    0.251939    1.060612    0.054348    11.00000   -1.20000
AFIX   0
PART 1
O1W   4   -0.269245    0.559337    0.941514    21.00000    0.02593    0.04066 =
         0.01533    0.00428    0.00054   -0.01321
H1WA  2   -0.270171    0.591606    0.849331    21.00000    0.03657
H1WB  2   -0.386900    0.533900    0.977842    20.50000    0.03264
H1WC  2   -0.138590    0.529229    0.965118    20.50000    0.04032
PART 2
O1WA  4   -0.227155    0.477742    0.922298   -21.00000    0.31372    0.09015 =
         0.02319    0.00218    0.00324   -0.13201
REM  **** These hydrogen atoms are refined to the identical to those ****
REM  **** bound to O1W using EXYZ and EADP.                          ****
H1WD  2   -0.270171    0.591606    0.849331   -21.00000    0.03657
H1WE  2   -0.386900    0.533900    0.977842   -20.50000    0.03264
H1WF  2   -0.138590    0.529229    0.965118   -20.50000    0.04032
HKLF    4




REM  ag_ESLCD78oxidacao_0m_a.res in P-1
REM R1 =  0.0231 for    1899 Fo > 4sig(Fo)  and  0.0259 for all    1995 data
REM    119 parameters refined using      6 restraints

END

WGHT      0.0200      0.3003

REM Instructions for potential hydrogen bonds
HTAB C3 O2_$6
HTAB C6 O1_$5
HTAB O1W^a O2
HTAB O1W^a O1W^a_$7
HTAB O1W^a O1W^a_$8
HTAB O1WA^b O2
HTAB O1WA^b O1WA^b_$7
HTAB O1WA^b O1WA^b_$8

REM Highest difference peak  0.468,  deepest hole -0.388,  1-sigma level  0.070
Q1    1  -0.0973  1.0234  0.2765  11.00000  0.05    0.47
Q2    1  -0.0616  0.8852  0.3809  11.00000  0.05    0.46
Q3    1   0.0012  0.7552  0.4852  11.00000  0.05    0.42
Q4    1   0.0594  1.0258  0.1835  11.00000  0.05    0.39
Q5    1   0.2551  0.9095  0.3420  11.00000  0.05    0.35
Q6    1   0.2784  0.9068  0.1896  11.00000  0.05    0.35
Q7    1   0.1430  0.7646  0.3818  11.00000  0.05    0.32
Q8    1  -0.2987  0.6528  0.6846  11.00000  0.05    0.29
Q9    1   0.3549  0.6626  0.3992  11.00000  0.05    0.28
Q10   1   0.2735  0.5443  0.5838  11.00000  0.05    0.28
;
_shelx_res_checksum              93247
_shelx_hkl_file
;
  -1   0   0    3.24    0.37
  -1   0   0    2.96    0.38
  -1   0   0    3.64    0.47
  -1   0   0    2.70    0.35
  -1   0   0    3.24    0.37
  -1   0   0    2.96    0.38
  -1   0   0    3.64    0.47
  -1   0   0    2.74    0.37
  -1   0   0    3.03    0.39
   1   0   0    2.80    0.42
   1   0   0    3.49    0.44
   1   0   0    3.18    0.44
   1   0   0    2.73    0.42
   1   0   0    2.80    0.42
   1   0   0    3.49    0.44
   1   0   0    3.18    0.44
   1   0   0    2.74    0.44
   1   0   0    3.12    0.43
  -2   0   0    8.59    0.95
  -2   0   0    9.29    0.91
  -2   0   0    8.14    0.92
  -2   0   0    9.15    0.99
  -2   0   0    8.57    0.91
  -2   0   0    9.29    0.91
  -2   0   0    8.14    0.92
  -2   0   0    9.15    0.99
  -2   0   0    7.93    0.95
   2   0   0    7.67    0.92
   2   0   0    9.53    0.89
   2   0   0    9.93    0.97
   2   0   0    8.44    0.83
   2   0   0   10.22    1.02
   2   0   0    7.61    0.88
   2   0   0    9.53    0.89
   2   0   0    8.44    0.83
   2   0   0   10.22    1.02
  -3   0   0   45.72    2.11
  -3   0   0   48.90    2.17
  -3   0   0   49.44    2.32
  -3   0   0   49.44    2.32
  -3   0   0   45.53    2.30
  -3   0   0   45.53    2.16
  -3   0   0   45.72    2.11
  -3   0   0   45.53    2.16
  -3   0   0   48.80    2.24
   3   0   0   41.60    1.94
   3   0   0   45.47    2.30
   3   0   0   45.47    2.30
   3   0   0   41.60    1.94
   3   0   0   48.09    2.19
   3   0   0   48.06    2.26
   3   0   0   47.92    2.22
   3   0   0   47.76    2.00
   3   0   0   47.76    2.00
  -4   0   0  144.24    4.73
  -4   0   0  136.12    4.55
  -4   0   0  145.85    4.54
  -4   0   0  145.85    4.54
  -4   0   0  146.96    4.66
  -4   0   0  148.16    4.57
  -4   0   0  144.58    4.54
  -4   0   0  136.12    4.55
  -4   0   0  144.58    4.54
   4   0   0  142.56    4.58
   4   0   0  140.16    4.50
   4   0   0  148.41    4.56
   4   0   0  148.01    4.84
   4   0   0  148.41    4.56
   4   0   0  141.52    4.69
   4   0   0  148.01    4.84
   4   0   0  140.16    4.50
   4   0   0  151.07    4.71
  -5   0   0   34.08    2.93
  -5   0   0   39.92    2.76
  -5   0   0   44.34    3.29
  -5   0   0   33.96    3.03
  -5   0   0   37.87    2.51
  -5   0   0   36.94    2.52
  -5   0   0   37.55    1.34
  -5   0   0   38.48    1.33
  -5   0   0   39.92    2.76
  -5   0   0   36.94    2.52
  -5   0   0   37.55    1.34
  -5   0   0   37.87    2.51
   5   0   0   39.53    3.06
   5   0   0   35.42    3.22
   5   0   0   37.92    3.15
   5   0   0   39.53    3.06
   5   0   0   39.95    3.39
   5   0   0   37.45    3.23
   5   0   0   39.95    3.39
  -6   0   0   57.73    4.20
  -6   0   0   45.00    5.16
  -6   0   0   53.98    4.06
  -6   0   0   57.73    4.20
  -6   0   0   53.98    4.21
  -6   0   0   54.59    4.24
  -6   0   0   45.00    5.16
   6   0   0   49.45    3.89
   6   0   0   55.09    4.16
   6   0   0   49.45    3.89
   6   0   0   46.38    3.69
   6   0   0   46.38    3.69
   6   0   0   49.21    4.28
   6   0   0   51.92    4.76
   6   0   0   51.92    4.76
   6  -1   0   33.86    3.57
   6  -1   0   35.79    3.63
   6  -1   0   35.79    3.63
   6  -1   0   39.06    3.94
   6  -1   0   29.81    4.48
   6  -1   0   29.81    4.48
   6  -1   0   33.63    3.62
   6  -1   0   33.86    3.57
  -6   1   0   38.12    3.73
  -6   1   0   33.59    3.52
  -6   1   0   37.99    3.58
  -6   1   0   31.70    3.48
  -6   1   0   38.25    3.36
  -6   1   0   38.85    3.42
  -6   1   0   31.70    3.48
  -6   1   0   33.59    3.52
  -6   1   0   38.25    3.36
   5  -1   0   82.40    4.02
   5  -1   0   78.71    4.28
   5  -1   0   85.29    3.90
   5  -1   0   82.40    4.02
   5  -1   0   76.35    4.05
   5  -1   0   76.35    4.05
   5  -1   0   79.22    4.28
   5  -1   0   79.22    4.28
  -5   1   0   75.40    4.09
  -5   1   0   82.14    4.10
  -5   1   0   82.71    4.02
  -5   1   0   82.71    4.02
  -5   1   0   75.93    3.98
  -5   1   0   89.48    4.37
  -5   1   0   82.14    4.10
  -5   1   0   78.88    3.64
  -5   1   0   78.88    3.64
   4  -1   0  116.53    4.30
   4  -1   0  113.89    4.27
   4  -1   0  124.17    4.29
   4  -1   0  120.19    4.20
   4  -1   0  120.19    4.20
   4  -1   0  111.86    4.35
   4  -1   0  117.64    4.39
   4  -1   0  116.53    4.30
   4  -1   0  124.17    4.29
  -4   1   0  114.37    4.02
  -4   1   0  118.38    4.18
  -4   1   0  114.37    4.02
  -4   1   0  122.53    4.25
  -4   1   0  121.33    4.04
  -4   1   0  121.33    4.04
  -4   1   0  120.38    4.43
  -4   1   0  122.50    4.38
  -4   1   0  118.38    4.18
   3  -1   0   37.68    2.25
   3  -1   0   32.59    2.24
   3  -1   0   33.12    2.16
   3  -1   0   36.78    1.91
   3  -1   0   38.40    1.92
   3  -1   0   38.81    2.14
   3  -1   0   38.40    1.92
   3  -1   0   36.78    1.91
   3  -1   0   38.81    2.14
  -3   1   0   33.42    2.00
  -3   1   0   32.82    1.87
  -3   1   0   35.38    2.27
  -3   1   0   32.83    2.19
  -3   1   0   35.46    1.86
  -3   1   0   33.42    2.00
  -3   1   0   33.01    2.12
  -3   1   0   32.82    1.87
  -3   1   0   35.46    1.86
   2  -1   0   25.09    1.34
   2  -1   0   25.80    1.58
   2  -1   0   25.92    1.53
   2  -1   0   25.09    1.34
   2  -1   0   25.72    1.48
   2  -1   0   26.90    1.40
   2  -1   0   25.72    1.48
   2  -1   0   24.75    1.38
   2  -1   0   26.90    1.40
  -2   1   0   27.18    1.42
  -2   1   0   26.78    1.37
  -2   1   0   26.16    1.49
  -2   1   0   27.96    1.39
  -2   1   0   27.22    1.37
  -2   1   0   26.47    1.59
  -2   1   0   26.78    1.37
  -2   1   0   27.96    1.39
  -2   1   0   26.16    1.49
   1  -1   0  244.67    5.38
   1  -1   0  260.88    5.47
   1  -1   0  244.67    5.38
   1  -1   0  246.77    5.26
   1  -1   0  247.78    5.40
   1  -1   0  261.27    5.43
   1  -1   0  246.77    5.26
   1  -1   0  247.78    5.40
   1  -1   0  248.15    5.45
  -1   1   0  247.14    5.44
  -1   1   0  248.40    5.45
  -1   1   0  243.14    5.24
  -1   1   0  249.35    5.41
  -1   1   0  243.10    5.39
  -1   1   0  247.58    5.40
  -1   1   0  243.10    5.39
  -1   1   0  247.58    5.40
  -1   1   0  243.14    5.24
  -1  -1   0  360.82    7.28
  -1  -1   0  373.08    7.32
  -1  -1   0  373.07    7.32
  -1  -1   0  360.82    7.28
  -1  -1   0  370.61    7.53
  -1  -1   0  358.40    7.27
  -1  -1   0  357.35    7.29
  -1  -1   0  370.61    7.53
   1   1   0  368.45    7.54
   1   1   0  362.13    7.27
   1   1   0  359.96    7.29
   1   1   0  353.80    7.32
   1   1   0  354.20    7.33
   1   1   0  359.96    7.29
   1   1   0  362.13    7.27
   1   1   0  375.05    7.33
   1   1   0  354.22    7.33
   1   1   0  368.45    7.54
   1   1   0  360.30    7.29
   1   1   0  359.81    7.30
   1   1   0  375.06    7.33
   1   1   0  358.97    7.31
  -2  -1   0   35.26    1.50
  -2  -1   0   35.57    1.09
  -2  -1   0   35.68    1.39
  -2  -1   0   36.10    1.28
  -2  -1   0   38.29    1.41
  -2  -1   0   36.10    1.28
  -2  -1   0   34.90    1.46
  -2  -1   0   38.46    1.38
  -2  -1   0   35.21    1.09
  -2  -1   0   35.26    1.50
  -2  -1   0   35.68    1.39
  -2  -1   0   35.21    1.10
   2   1   0   32.72    1.34
   2   1   0   36.54    1.34
   2   1   0   32.86    1.34
   2   1   0   34.81    1.38
   2   1   0   32.86    1.34
   2   1   0   36.80    1.63
   2   1   0   36.80    1.63
   2   1   0   32.65    1.38
   2   1   0   36.54    1.34
  -3  -1   0  159.17    4.54
  -3  -1   0  161.09    4.19
  -3  -1   0  161.09    4.19
  -3  -1   0  166.03    4.23
  -3  -1   0  165.22    4.30
  -3  -1   0  160.18    3.56
  -3  -1   0  154.71    4.32
  -3  -1   0  158.70    3.55
  -3  -1   0  160.17    3.56
  -3  -1   0  159.52    4.19
  -3  -1   0  159.52    4.19
  -3  -1   0  159.17    4.54
   3   1   0  157.98    4.56
   3   1   0  161.17    4.20
   3   1   0  161.17    4.20
   3   1   0  160.51    4.29
   3   1   0  157.98    4.56
   3   1   0  160.42    4.26
   3   1   0  157.37    4.24
   3   1   0  159.72    4.33
   3   1   0  157.37    4.24
  -4  -1   0  126.63    4.13
  -4  -1   0  128.74    3.04
  -4  -1   0  124.17    4.19
  -4  -1   0  134.21    4.09
  -4  -1   0  130.86    3.04
  -4  -1   0  129.87    4.02
  -4  -1   0  124.17    4.19
  -4  -1   0  129.36    4.24
  -4  -1   0  133.72    4.19
  -4  -1   0  126.63    4.13
  -4  -1   0  128.77    3.04
  -4  -1   0  129.87    4.02
   4   1   0  135.65    4.18
   4   1   0  128.54    4.19
   4   1   0  135.07    4.28
   4   1   0  135.40    4.08
   4   1   0  126.65    4.47
   4   1   0  126.65    4.47
   4   1   0  130.28    4.07
   4   1   0  130.28    4.07
   4   1   0  135.40    4.08
  -5  -1   0   29.15    2.48
  -5  -1   0   30.62    2.61
  -5  -1   0   31.67    2.94
  -5  -1   0   29.15    2.48
  -5  -1   0   31.67    2.94
  -5  -1   0   30.96    2.69
  -5  -1   0   28.65    2.61
  -5  -1   0   28.65    2.61
  -5  -1   0   30.62    2.71
   5   1   0   35.95    2.71
   5   1   0   33.41    2.72
   5   1   0   35.41    2.81
   5   1   0   34.54    2.66
   5   1   0   29.47    2.59
   5   1   0   39.25    2.87
   5   1   0   34.54    2.66
   5   1   0   33.41    2.72
   5   1   0   39.25    2.87
  -6  -1   0    9.40    2.62
  -6  -1   0   11.30    2.61
  -6  -1   0    9.35    2.51
  -6  -1   0   10.18    2.79
  -6  -1   0   10.18    2.79
  -6  -1   0   11.61    2.47
  -6  -1   0   11.61    2.47
   6   1   0   12.71    2.42
   6   1   0   10.72    3.10
   6   1   0    9.60    2.39
   6   1   0   10.72    3.10
   6   1   0   12.71    2.42
   6   1   0    9.60    2.39
   6   1   0   11.64    2.71
   6   1   0   13.72    2.53
  -7  -1   0    6.40    3.09
  -7  -1   0   11.45    3.52
  -7  -1   0    8.46    3.45
  -7  -1   0    6.40    3.09
  -7  -1   0    8.46    3.45
  -7  -1   0    5.83    2.93
  -7  -1   0    9.94    3.17
  -7  -1   0    5.83    2.93
  -7  -1   0    9.96    3.17
  -7  -1   0    8.38    3.18
  -7  -1   0    8.46    3.34
   7   1   0   10.87    3.28
   7   1   0    8.48    3.16
   7   1   0   10.81    3.02
   7   1   0    8.48    3.16
   7   1   0   12.81    4.07
   7   1   0    4.72    3.12
   7   1   0   12.81    4.07
   7   1   0    4.72    3.12
   6  -2   0   22.91    3.51
   6  -2   0   23.56    3.70
   6  -2   0   25.62    3.72
   6  -2   0   20.08    3.02
   6  -2   0   22.91    3.51
   6  -2   0   23.56    3.70
  -6   2   0   30.16    3.33
  -6   2   0   23.63    3.85
  -6   2   0   30.16    3.33
  -6   2   0   21.39    3.77
  -6   2   0   23.92    3.61
  -6   2   0   23.81    3.40
  -6   2   0   23.81    3.40
  -6   2   0   21.39    3.77
  -6   2   0   23.54    3.68
   5  -2   0   53.54    3.86
   5  -2   0   48.85    3.63
   5  -2   0   53.54    3.86
   5  -2   0   43.88    3.83
   5  -2   0   51.51    3.87
   5  -2   0   48.85    3.63
   5  -2   0   51.51    3.87
   5  -2   0   48.48    3.39
  -5   2   0   54.83    3.46
  -5   2   0   52.02    3.19
  -5   2   0   48.10    3.77
  -5   2   0   52.02    3.19
  -5   2   0   47.37    3.77
  -5   2   0   47.61    3.91
  -5   2   0   46.99    3.88
  -5   2   0   54.83    3.46
  -5   2   0   47.61    3.91
   4  -2   0    6.48    1.79
   4  -2   0    6.34    1.46
   4  -2   0    6.16    1.95
   4  -2   0    6.34    1.46
   4  -2   0    4.54    1.75
   4  -2   0    6.80    1.59
   4  -2   0    4.54    1.75
   4  -2   0    6.48    1.79
  -4   2   0    6.27    1.50
  -4   2   0    5.28    1.85
  -4   2   0    7.79    1.92
  -4   2   0    7.70    1.59
  -4   2   0    7.70    1.59
  -4   2   0    6.29    1.57
  -4   2   0    7.93    1.56
  -4   2   0    5.28    1.85
  -4   2   0    7.93    1.56
   3  -2   0  431.15    9.72
   3  -2   0  431.79    9.86
   3  -2   0  425.76    9.84
   3  -2   0  425.76    9.84
   3  -2   0  431.79    9.86
   3  -2   0  431.15    9.72
   3  -2   0  440.36   10.07
   3  -2   0  426.85   10.03
  -3   2   0  411.41    9.84
  -3   2   0  429.94   10.06
  -3   2   0  409.77    9.78
  -3   2   0  425.29    9.84
  -3   2   0  431.84    9.64
  -3   2   0  409.77    9.78
  -3   2   0  425.29    9.84
  -3   2   0  412.44    9.97
  -3   2   0  431.84    9.64
   2  -2   0   93.53    3.01
   2  -2   0   85.96    3.02
   2  -2   0   92.66    2.79
   2  -2   0   92.66    2.79
   2  -2   0   97.86    3.03
   2  -2   0   93.53    3.01
   2  -2   0   97.86    3.03
   2  -2   0   90.80    2.96
  -2   2   0   92.08    3.00
  -2   2   0   94.12    2.91
  -2   2   0   92.84    3.08
  -2   2   0   96.12    3.11
  -2   2   0   90.37    2.70
  -2   2   0   92.08    3.00
  -2   2   0   96.38    3.03
  -2   2   0   90.37    2.70
  -2   2   0   94.12    2.91
   1  -2   0  154.74    3.51
   1  -2   0  160.11    3.81
   1  -2   0  160.11    3.81
   1  -2   0  162.98    3.86
   1  -2   0  154.22    3.86
   1  -2   0  162.98    3.86
   1  -2   0  155.80    3.89
   1  -2   0  154.74    3.51
  -1   2   0  163.79    3.93
  -1   2   0  155.88    3.81
  -1   2   0  156.19    3.89
  -1   2   0  163.46    3.86
  -1   2   0  153.46    3.48
  -1   2   0  159.71    3.83
  -1   2   0  153.46    3.48
  -1   2   0  159.71    3.83
  -1   2   0  155.88    3.81
   0  -2   0  228.66    4.88
   0  -2   0  232.21    4.86
   0  -2   0  234.81    4.92
   0  -2   0  232.21    4.86
   0  -2   0  228.66    4.88
   0   2   0  237.13    4.90
   0   2   0  233.81    4.90
   0   2   0  231.06    4.91
   0   2   0  236.84    4.86
   0   2   0  236.84    4.86
   0   2   0  237.13    4.90
  -1  -2   0    1.01    0.39
  -1  -2   0    1.01    0.39
  -1  -2   0    1.60    0.31
  -1  -2   0    1.04    0.19
  -1  -2   0    1.69    0.20
  -1  -2   0    1.52    0.19
  -1  -2   0    1.60    0.31
  -1  -2   0    1.69    0.20
   1   2   0    1.30    0.19
   1   2   0    1.59    0.30
   1   2   0    1.41    0.21
   1   2   0    1.16    0.18
   1   2   0    1.59    0.30
   1   2   0    1.16    0.18
   1   2   0    1.51    0.41
   1   2   0    1.32    0.21
   1   2   0    1.41    0.21
   1   2   0    1.51    0.41
  -2  -2   0   13.23    0.78
  -2  -2   0   12.64    0.81
  -2  -2   0   12.74    1.12
  -2  -2   0   11.21    0.83
  -2  -2   0   13.23    0.78
  -2  -2   0   11.21    0.83
  -2  -2   0   11.57    0.80
  -2  -2   0   10.94    0.74
  -2  -2   0   10.90    0.71
  -2  -2   0   12.74    1.12
  -2  -2   0   12.64    0.81
   2   2   0   10.44    0.95
   2   2   0   11.99    0.69
   2   2   0   11.96    0.89
   2   2   0   10.44    0.95
   2   2   0   12.21    0.84
   2   2   0   10.68    0.81
   2   2   0   11.99    0.69
   2   2   0   11.56    0.82
   2   2   0   12.86    0.90
   2   2   0   10.69    0.81
   2   2   0   12.19    0.87
   2   2   0   11.56    0.82
   2   2   0   12.86    0.90
  -3  -2   0  517.14   10.57
  -3  -2   0  495.92   11.03
  -3  -2   0  483.70   10.44
  -3  -2   0  499.96   10.50
  -3  -2   0  517.15   10.57
  -3  -2   0  489.69   10.56
  -3  -2   0  495.92   11.03
  -3  -2   0  489.69   10.56
  -3  -2   0  484.89   10.52
  -3  -2   0  499.96   10.50
   3   2   0  489.24   10.47
   3   2   0  489.24   10.47
   3   2   0  485.93   10.55
   3   2   0  498.21   10.57
   3   2   0  496.89   11.08
   3   2   0  489.09   10.55
   3   2   0  498.21   10.57
   3   2   0  487.70   10.63
   3   2   0  496.89   11.08
  -4  -2   0   76.13    2.94
  -4  -2   0   73.50    2.76
  -4  -2   0   76.13    2.94
  -4  -2   0   75.35    2.89
  -4  -2   0   78.16    3.12
  -4  -2   0   73.50    2.76
  -4  -2   0   75.35    2.89
  -4  -2   0   78.16    3.12
  -4  -2   0   79.59    2.82
  -4  -2   0   74.24    3.02
  -4  -2   0   79.67    2.91
   4   2   0   71.81    2.86
   4   2   0   72.10    3.01
   4   2   0   80.10    3.49
   4   2   0   73.65    2.76
   4   2   0   80.10    3.49
   4   2   0   71.96    2.92
   4   2   0   71.81    2.88
   4   2   0   73.65    2.76
   4   2   0   71.81    2.86
  -5  -2   0   -0.33    1.31
  -5  -2   0   -0.31    1.32
  -5  -2   0   -1.99    1.75
  -5  -2   0   -1.99    1.75
  -5  -2   0   -0.69    1.35
  -5  -2   0   -2.48    1.50
  -5  -2   0   -2.48    1.50
  -5  -2   0   -0.68    1.28
  -5  -2   0    1.45    1.35
  -5  -2   0    0.95    1.57
  -5  -2   0    1.45    1.35
   5   2   0    1.83    1.48
   5   2   0    0.09    1.56
   5   2   0    3.02    1.96
   5   2   0    1.83    1.48
   5   2   0   -1.31    1.33
   5   2   0    3.02    1.96
   5   2   0    0.49    1.49
   5   2   0   -1.31    1.33
   5   2   0    0.45    1.54
  -6  -2   0   88.24    4.15
  -6  -2   0   91.29    4.37
  -6  -2   0   95.79    4.29
  -6  -2   0   88.25    4.15
  -6  -2   0   95.79    4.29
  -6  -2   0   90.54    4.82
  -6  -2   0  100.75    4.74
  -6  -2   0   91.50    4.24
  -6  -2   0   90.54    4.82
   6   2   0   90.12    4.28
   6   2   0   98.68    4.70
   6   2   0   91.21    4.39
   6   2   0   98.52    4.27
   6   2   0   98.52    4.27
   6   2   0   90.12    4.28
   6   2   0  100.59    4.57
  -7  -2   0   33.28    3.74
  -7  -2   0   36.60    3.58
  -7  -2   0   34.29    3.56
  -7  -2   0   38.81    4.11
  -7  -2   0   34.29    3.56
  -7  -2   0   33.28    3.74
  -7  -2   0   26.99    3.47
  -7  -2   0   33.03    3.73
  -7  -2   0   36.59    3.58
  -7  -2   0   26.99    3.47
  -7  -2   0   32.96    3.58
   7   2   0   32.90    4.85
   7   2   0   30.30    3.80
   7   2   0   32.16    3.88
   7   2   0   31.05    3.60
   7   2   0   34.90    3.63
   7   2   0   32.90    4.85
   7   2   0   31.05    3.60
   7   2   0   34.90    3.63
   6  -3   0   44.04    4.73
   6  -3   0   52.67    7.99
   6  -3   0   44.04    4.73
   6  -3   0   40.25    4.36
   6  -3   0   52.67    7.99
   6  -3   0   37.44    3.66
   6  -3   0   37.44    3.66
   6  -3   0   42.64    4.21
  -6   3   0   40.61    3.74
  -6   3   0   36.95    3.64
  -6   3   0   40.99    4.11
  -6   3   0   40.61    3.74
  -6   3   0   34.37    4.52
  -6   3   0   40.83    3.94
  -6   3   0   38.60    4.45
  -6   3   0   34.37    4.52
  -6   3   0   36.95    3.64
   5  -3   0   13.81    2.78
   5  -3   0   16.81    3.10
   5  -3   0   16.81    3.10
   5  -3   0   21.88    2.99
   5  -3   0   15.18    2.87
   5  -3   0   13.81    2.78
   5  -3   0   18.24    3.05
   5  -3   0   21.88    2.99
  -5   3   0   19.65    3.21
  -5   3   0   18.69    2.85
  -5   3   0   12.14    2.79
  -5   3   0   12.16    2.91
  -5   3   0   19.65    3.21
  -5   3   0   18.69    2.85
  -5   3   0   18.32    2.51
  -5   3   0   18.32    2.51
  -5   3   0   16.85    3.01
   4  -3   0   16.08    2.39
   4  -3   0   17.88    2.18
   4  -3   0   14.40    2.04
   4  -3   0   17.22    2.52
   4  -3   0   16.08    2.39
   4  -3   0   16.32    2.44
   4  -3   0   14.40    2.04
   4  -3   0   17.88    2.18
  -4   3   0   17.45    2.45
  -4   3   0   17.50    2.34
  -4   3   0   16.15    2.03
  -4   3   0   17.54    2.44
  -4   3   0   16.15    2.03
  -4   3   0   16.63    1.94
  -4   3   0   16.52    2.47
  -4   3   0   16.52    2.47
  -4   3   0   16.63    1.94
   3  -3   0   24.15    2.05
   3  -3   0   27.25    2.37
   3  -3   0   29.99    2.40
   3  -3   0   22.69    1.91
   3  -3   0   22.69    1.91
   3  -3   0   24.15    2.05
   3  -3   0   29.99    2.40
   3  -3   0   25.24    2.07
  -3   3   0   24.40    1.96
  -3   3   0   19.27    1.98
  -3   3   0   24.64    1.92
  -3   3   0   26.67    2.40
  -3   3   0   24.40    1.96
  -3   3   0   23.62    2.28
  -3   3   0   19.27    1.98
  -3   3   0   26.53    2.29
  -3   3   0   24.64    1.92
   2  -3   0  213.39    5.54
   2  -3   0  211.66    5.09
   2  -3   0  213.39    5.54
   2  -3   0  211.13    5.46
   2  -3   0  214.34    5.62
   2  -3   0  221.03    5.64
   2  -3   0  211.66    5.09
   2  -3   0  211.13    5.46
  -2   3   0  230.51    5.65
  -2   3   0  212.74    5.50
  -2   3   0  212.74    5.50
  -2   3   0  206.65    4.97
  -2   3   0  213.64    5.56
  -2   3   0  206.65    4.97
  -2   3   0  230.51    5.65
  -2   3   0  213.19    5.66
  -2   3   0  212.37    5.64
   1  -3   0  217.54    5.18
   1  -3   0  213.31    5.10
   1  -3   0  210.17    4.53
   1  -3   0  213.31    5.10
   1  -3   0  210.17    4.53
   1  -3   0  211.60    5.03
   1  -3   0  211.12    5.12
   1  -3   0  211.60    5.03
  -1   3   0  214.44    5.11
  -1   3   0  214.65    5.19
  -1   3   0  215.13    5.12
  -1   3   0  211.11    4.49
  -1   3   0  215.13    5.12
  -1   3   0  214.61    5.05
  -1   3   0  214.61    5.05
  -1   3   0  216.17    5.15
  -1   3   0  211.11    4.49
   0  -3   0   69.89    1.88
   0  -3   0   71.75    1.98
   0  -3   0   69.89    1.88
   0  -3   0   73.57    1.97
   0  -3   0   73.57    1.97
   0  -3   0   71.81    1.90
   0   3   0   72.51    1.95
   0   3   0   69.67    1.89
   0   3   0   69.08    1.94
   0   3   0   69.67    1.89
   0   3   0   72.51    1.95
   0   3   0   67.02    2.20
  -1  -3   0  178.51    3.59
  -1  -3   0  169.54    3.86
  -1  -3   0  172.22    3.56
  -1  -3   0  169.54    3.86
  -1  -3   0  173.74    3.60
  -1  -3   0  178.51    3.59
   1   3   0  175.95    3.60
   1   3   0  175.38    3.55
   1   3   0  171.31    3.92
   1   3   0  167.09    3.60
   1   3   0  176.97    3.58
   1   3   0  167.09    3.60
   1   3   0  171.31    3.92
   1   3   0  175.38    3.55
  -2  -3   0   69.63    1.92
  -2  -3   0   69.79    2.32
  -2  -3   0   69.63    1.93
  -2  -3   0   69.04    1.70
  -2  -3   0   68.19    1.82
  -2  -3   0   69.79    2.32
   2   3   0   69.40    1.69
   2   3   0   71.47    1.97
   2   3   0   67.27    1.83
   2   3   0   66.11    2.34
   2   3   0   71.08    1.81
   2   3   0   66.11    2.34
   2   3   0   67.25    1.80
   2   3   0   68.68    1.74
   2   3   0   70.92    2.30
   2   3   0   69.40    1.69
   2   3   0   71.47    1.98
   2   3   0   70.91    2.30
   2   3   0   66.95    2.27
   2   3   0   71.08    1.81
  -3  -3   0  136.03    4.07
  -3  -3   0  139.86    3.46
  -3  -3   0  143.94    3.45
  -3  -3   0  141.13    3.63
  -3  -3   0  141.71    3.64
  -3  -3   0  141.12    3.63
  -3  -3   0  139.86    3.46
  -3  -3   0  144.35    3.51
  -3  -3   0  143.76    3.64
  -3  -3   0  136.03    4.07
  -3  -3   0  143.76    3.64
   3   3   0  140.63    3.67
   3   3   0  142.90    3.62
   3   3   0  142.68    4.17
   3   3   0  137.91    3.54
   3   3   0  141.19    3.44
   3   3   0  140.62    3.73
   3   3   0  140.62    3.73
   3   3   0  142.68    4.17
   3   3   0  142.90    3.62
   3   3   0  142.92    3.73
   3   3   0  140.85    3.61
   3   3   0  141.19    3.44
  -4  -3   0   39.72    2.07
  -4  -3   0   42.56    2.63
  -4  -3   0   46.37    2.12
  -4  -3   0   39.72    2.07
  -4  -3   0   41.80    2.15
  -4  -3   0   41.80    2.15
  -4  -3   0   46.37    2.12
  -4  -3   0   51.21    2.10
  -4  -3   0   51.37    2.17
  -4  -3   0   42.56    2.63
   4   3   0   44.32    2.00
   4   3   0   45.46    2.89
   4   3   0   42.46    2.14
   4   3   0   42.83    2.16
   4   3   0   49.21    2.30
   4   3   0   44.32    2.00
   4   3   0   45.46    2.89
   4   3   0   42.97    2.10
   4   3   0   42.46    2.14
  -5  -3   0   20.76    1.88
  -5  -3   0   19.20    1.84
  -5  -3   0   19.31    1.93
  -5  -3   0   19.10    2.07
  -5  -3   0   23.58    2.38
  -5  -3   0   23.58    2.38
  -5  -3   0   22.69    2.27
  -5  -3   0   19.10    2.07
  -5  -3   0   22.35    2.02
  -5  -3   0   22.36    2.02
  -5  -3   0   20.76    1.88
   5   3   0   21.55    1.94
   5   3   0   21.68    2.06
   5   3   0   22.30    2.44
   5   3   0   20.48    2.09
   5   3   0   20.48    2.09
   5   3   0   19.50    2.06
   5   3   0   19.47    2.16
   5   3   0   21.55    1.94
   5   3   0   22.30    2.44
  -6  -3   0   27.69    2.59
  -6  -3   0   27.76    2.59
  -6  -3   0   27.91    2.72
  -6  -3   0   27.91    2.72
  -6  -3   0   27.48    2.94
  -6  -3   0   27.66    3.23
  -6  -3   0   29.48    2.59
  -6  -3   0   27.66    3.23
  -6  -3   0   29.48    2.59
   6   3   0   26.60    2.83
   6   3   0   28.32    2.54
   6   3   0   35.66    3.01
   6   3   0   28.32    2.54
   6   3   0   25.61    2.73
   6   3   0   26.50    2.71
   6   3   0   35.66    3.01
  -7  -3   0   36.20    3.55
  -7  -3   0   32.85    3.62
  -7  -3   0   37.19    3.48
  -7  -3   0   32.85    3.62
  -7  -3   0   36.20    3.55
  -7  -3   0   38.18    3.45
  -7  -3   0   38.19    3.45
  -7  -3   0   38.74    3.83
  -7  -3   0   36.57    3.41
  -7  -3   0   37.19    3.48
  -7  -3   0   36.99    3.58
   7   3   0   37.10    3.76
   7   3   0   33.80    3.58
   7   3   0   36.32    3.69
   7   3   0   30.52    4.94
   7   3   0   34.74    3.69
   7   3   0   36.32    3.69
   7   3   0   30.52    4.94
   7   3   0   33.80    3.58
   5  -4   0   46.16    3.92
   5  -4   0   41.37    3.67
   5  -4   0   44.73    3.86
   5  -4   0   47.69    4.25
   5  -4   0   44.73    3.86
   5  -4   0   47.69    4.25
   5  -4   0   44.05    3.90
   5  -4   0   44.05    3.90
  -5   4   0   42.70    3.36
  -5   4   0   48.84    4.25
  -5   4   0   35.79    3.95
  -5   4   0   48.84    4.25
  -5   4   0   35.79    3.95
  -5   4   0   36.58    4.06
  -5   4   0   42.70    3.36
  -5   4   0   49.91    4.40
  -5   4   0   36.53    3.90
   4  -4   0   39.20    3.17
   4  -4   0   40.23    3.00
   4  -4   0   47.72    3.73
   4  -4   0   39.20    3.17
   4  -4   0   40.13    3.44
   4  -4   0   40.23    3.00
   4  -4   0   40.13    3.44
   4  -4   0   43.95    3.70
  -4   4   0   43.20    3.46
  -4   4   0   51.00    3.24
  -4   4   0   43.29    3.60
  -4   4   0   40.82    3.40
  -4   4   0   45.15    2.91
  -4   4   0   43.56    3.33
  -4   4   0   40.82    3.40
  -4   4   0   45.15    2.91
  -4   4   0   43.56    3.33
   3  -4   0   55.64    3.16
   3  -4   0   54.55    3.07
   3  -4   0   60.78    2.71
   3  -4   0   53.58    3.20
   3  -4   0   53.14    3.29
   3  -4   0   54.55    3.07
   3  -4   0   55.64    3.16
   3  -4   0   60.78    2.71
  -3   4   0   63.66    3.34
  -3   4   0   56.99    2.45
  -3   4   0   56.99    2.45
  -3   4   0   58.96    3.12
  -3   4   0   63.44    3.01
  -3   4   0   64.14    3.41
  -3   4   0   58.96    3.12
  -3   4   0   63.44    3.01
  -3   4   0   63.79    3.27
   2  -4   0   18.69    1.34
   2  -4   0   17.69    1.80
   2  -4   0   18.69    1.34
   2  -4   0   17.69    1.80
   2  -4   0   18.08    1.56
   2  -4   0   19.80    1.91
   2  -4   0   18.07    1.84
   2  -4   0   18.08    1.56
  -2   4   0   20.54    1.74
  -2   4   0   21.04    1.93
  -2   4   0   19.61    1.86
  -2   4   0   19.29    1.24
  -2   4   0   19.29    1.24
  -2   4   0   19.61    1.86
  -2   4   0   14.34    1.70
  -2   4   0   20.54    1.74
  -2   4   0   14.42    1.77
   1  -4   0   12.89    1.27
   1  -4   0   11.24    1.19
   1  -4   0   11.24    1.19
   1  -4   0   12.71    1.30
   1  -4   0   11.42    1.24
   1  -4   0   11.42    1.24
  -1   4   0   10.09    1.20
  -1   4   0   10.63    1.22
  -1   4   0    9.94    1.13
  -1   4   0   10.69    1.29
  -1   4   0    9.94    1.13
  -1   4   0   10.63    1.21
  -1   4   0   10.09    1.20
   0  -4   0  497.50   10.53
   0  -4   0  502.83   10.39
   0  -4   0  513.50   10.51
   0  -4   0  502.83   10.39
   0  -4   0  500.89   10.39
   0  -4   0  513.50   10.51
   0   4   0  500.91   10.45
   0   4   0  512.27   10.51
   0   4   0  510.39   10.38
   0   4   0  462.05   10.84
   0   4   0  510.39   10.38
   0   4   0  512.27   10.51
  -1  -4   0  159.38    3.46
  -1  -4   0  162.21    3.56
  -1  -4   0  166.68    3.59
  -1  -4   0  162.21    3.56
   1   4   0  161.20    3.56
   1   4   0  164.46    3.46
   1   4   0  162.20    3.51
   1   4   0  164.46    3.46
   1   4   0  161.20    3.56
   1   4   0  165.17    3.76
   1   4   0  160.75    3.59
   1   4   0  165.17    3.76
  -2  -4   0    3.26    0.44
  -2  -4   0    3.07    0.43
  -2  -4   0    2.44    0.80
  -2  -4   0    3.07    0.43
  -2  -4   0    3.09    0.35
  -2  -4   0    3.60    0.38
  -2  -4   0    3.60    0.38
  -2  -4   0    2.44    0.80
   2   4   0    3.16    0.45
   2   4   0    2.93    0.63
   2   4   0    3.69    0.48
   2   4   0    3.83    0.86
   2   4   0    2.70    0.36
   2   4   0    3.85    0.42
   2   4   0    3.69    0.48
   2   4   0    3.83    0.86
   2   4   0    2.17    0.78
   2   4   0    2.93    0.63
   2   4   0    2.75    0.78
   2   4   0    2.17    0.78
   2   4   0    3.13    0.43
   2   4   0    2.70    0.36
  -3  -4   0  204.69    5.43
  -3  -4   0  198.92    4.73
  -3  -4   0  198.35    4.66
  -3  -4   0  204.69    5.43
  -3  -4   0  198.91    4.73
  -3  -4   0  198.21    4.44
   3   4   0  202.62    5.50
   3   4   0  205.29    4.84
   3   4   0  196.98    5.15
   3   4   0  206.41    4.45
   3   4   0  198.45    4.70
   3   4   0  202.62    5.50
   3   4   0  206.41    4.45
   3   4   0  198.84    5.14
   3   4   0  198.54    4.64
   3   4   0  196.96    5.15
   3   4   0  205.29    4.84
   3   4   0  204.24    4.65
   3   4   0  204.24    4.65
  -4  -4   0  124.64    3.49
  -4  -4   0  124.64    3.49
  -4  -4   0  136.61    3.79
  -4  -4   0  127.10    3.65
  -4  -4   0  127.09    3.65
  -4  -4   0  136.61    3.79
  -4  -4   0  127.97    4.43
  -4  -4   0  133.13    3.77
  -4  -4   0  127.97    4.43
   4   4   0  132.02    3.72
   4   4   0  131.64    3.80
   4   4   0  130.46    3.87
   4   4   0  131.82    3.73
   4   4   0  135.91    4.68
   4   4   0  131.82    3.73
   4   4   0  127.03    3.41
   4   4   0  127.72    3.87
   4   4   0  127.70    3.86
   4   4   0  127.03    3.41
   4   4   0  135.91    4.68
  -5  -4   0    8.68    1.58
  -5  -4   0    9.94    1.46
  -5  -4   0    9.94    1.46
  -5  -4   0   10.61    1.43
  -5  -4   0   10.75    1.51
  -5  -4   0   12.21    1.76
  -5  -4   0    9.43    1.56
  -5  -4   0   13.78    2.34
  -5  -4   0    9.43    1.56
  -5  -4   0    8.68    1.58
  -5  -4   0   13.78    2.34
   5   4   0   11.88    1.83
   5   4   0   12.96    1.65
   5   4   0   11.49    2.54
   5   4   0   11.49    2.54
   5   4   0   12.96    1.65
   5   4   0   11.88    1.83
  -6  -4   0    7.99    2.13
  -6  -4   0    7.99    2.13
  -6  -4   0   10.58    2.12
  -6  -4   0   10.58    2.12
  -6  -4   0   14.62    2.38
  -6  -4   0   16.08    2.26
  -6  -4   0   16.08    2.26
  -6  -4   0   14.62    2.38
   6   4   0   11.12    2.09
   6   4   0   10.74    2.09
   6   4   0   12.05    1.97
   6   4   0    9.90    2.00
   6   4   0    9.90    2.00
   6   4   0   12.05    1.97
   6   4   0   11.14    2.18
  -7  -4   0   19.10    2.76
  -7  -4   0   19.97    3.73
  -7  -4   0   17.97    2.69
  -7  -4   0   25.93    3.41
  -7  -4   0   18.80    2.92
  -7  -4   0   18.80    2.92
  -7  -4   0   25.93    3.41
  -7  -4   0   17.96    2.69
  -7  -4   0   18.90    2.63
  -7  -4   0   19.97    3.73
  -7  -4   0   22.66    3.71
   7   4   0   20.02    4.46
   7   4   0   23.56    3.26
   7   4   0   23.68    3.09
   7   4   0   24.39    3.37
   7   4   0   21.17    2.75
   7   4   0   21.17    2.75
   7   4   0   20.02    4.46
   7   4   0   24.39    3.37
   5  -5   0   37.44    4.13
   5  -5   0   26.23    4.13
   5  -5   0   35.21    3.51
   5  -5   0   41.61    3.83
   5  -5   0   26.23    4.13
   5  -5   0   35.21    3.51
   5  -5   0   42.48    4.74
   5  -5   0   41.61    3.83
  -5   5   0   34.45    4.02
  -5   5   0   44.30    4.59
  -5   5   0   34.43    4.18
  -5   5   0   39.58    4.08
  -5   5   0   44.14    4.44
  -5   5   0   44.30    4.59
  -5   5   0   39.58    4.08
   4  -5   0   53.22    4.31
   4  -5   0   65.24    4.11
   4  -5   0   61.78    4.34
   4  -5   0   57.44    3.43
   4  -5   0   65.24    4.11
   4  -5   0   53.22    4.31
   4  -5   0   57.44    3.43
   4  -5   0   60.84    4.64
  -4   5   0   60.72    3.90
  -4   5   0   53.18    4.10
  -4   5   0   61.04    3.08
  -4   5   0   61.11    4.46
  -4   5   0   60.18    4.47
  -4   5   0   61.11    4.46
  -4   5   0   60.46    4.33
  -4   5   0   60.72    3.90
  -4   5   0   61.04    3.08
   3  -5   0   13.60    2.16
   3  -5   0   11.19    2.19
   3  -5   0   14.54    2.36
   3  -5   0   13.60    2.16
   3  -5   0   11.51    1.61
   3  -5   0   11.19    2.19
   3  -5   0   11.72    2.28
   3  -5   0   11.51    1.61
  -3   5   0   10.33    1.35
  -3   5   0    9.32    1.98
  -3   5   0    9.32    1.98
  -3   5   0   14.77    2.29
  -3   5   0   12.40    2.35
  -3   5   0   10.33    1.35
  -3   5   0   11.21    2.52
  -3   5   0   14.77    2.29
  -3   5   0   12.26    2.23
   2  -5   0   84.68    3.36
   2  -5   0   80.89    4.00
   2  -5   0   67.78    3.79
   2  -5   0   84.68    3.36
   2  -5   0   86.06    2.44
   2  -5   0   86.06    2.44
   2  -5   0   84.73    3.45
   2  -5   0   67.78    3.79
  -2   5   0   88.21    3.37
  -2   5   0   88.21    3.37
  -2   5   0   86.90    3.53
  -2   5   0   86.90    3.53
  -2   5   0   88.97    3.52
  -2   5   0   82.31    3.46
  -2   5   0   82.06    3.56
   1  -5   0   59.15    2.58
   1  -5   0   58.23    2.49
   1  -5   0   58.51    2.52
   1  -5   0   57.66    2.51
   1  -5   0   58.23    2.49
   1  -5   0   57.66    2.51
  -1   5   0   59.29    2.68
  -1   5   0   54.26    2.28
  -1   5   0   59.39    2.60
  -1   5   0   54.26    2.28
  -1   5   0   58.36    2.42
  -1   5   0   63.95    2.57
  -1   5   0   63.95    2.57
   0  -5   0   77.03    2.32
   0  -5   0   77.03    2.32
   0  -5   0   76.97    2.34
   0  -5   0   79.75    2.48
   0  -5   0   79.75    2.48
   0  -5   0   75.90    2.53
   0   5   0   77.67    2.36
   0   5   0   79.42    2.48
   0   5   0   79.50    2.63
   0   5   0   79.42    2.48
   0   5   0   79.97    2.56
   0   5   0   77.67    2.36
   0   5   0   78.93    2.43
  -1  -5   0   70.25    2.00
  -1  -5   0   68.40    2.01
  -1  -5   0   70.25    2.00
   1   5   0   72.73    2.04
   1   5   0   72.01    2.01
   1   5   0   67.78    1.88
   1   5   0   73.16    1.84
   1   5   0   72.01    2.01
   1   5   0   72.73    2.04
   1   5   0   67.57    2.04
   1   5   0   73.16    1.84
  -2  -5   0    7.15    1.05
  -2  -5   0    7.15    1.05
  -2  -5   0    6.77    0.54
  -2  -5   0    6.75    0.58
  -2  -5   0    6.77    0.54
  -2  -5   0    7.74    0.58
  -2  -5   0    7.06    0.61
  -2  -5   0    7.74    0.58
   2   5   0    7.52    0.90
   2   5   0    9.42    1.44
   2   5   0    8.54    1.42
   2   5   0    5.81    0.52
   2   5   0    6.73    0.54
   2   5   0    6.73    0.54
   2   5   0    7.52    0.90
   2   5   0    6.07    1.08
   2   5   0    6.81    0.59
   2   5   0    6.81    0.59
   2   5   0    9.42    1.44
   2   5   0    6.07    1.08
  -3  -5   0   63.85    2.69
  -3  -5   0   59.87    1.63
  -3  -5   0   53.78    1.78
  -3  -5   0   62.33    1.67
  -3  -5   0   63.85    2.69
  -3  -5   0   62.33    1.67
  -3  -5   0   61.24    1.85
  -3  -5   0   53.78    1.78
   3   5   0   61.10    2.75
   3   5   0   60.49    1.93
   3   5   0   54.00    1.63
   3   5   0   64.43    2.80
   3   5   0   62.02    2.75
   3   5   0   61.13    2.22
   3   5   0   64.43    2.80
   3   5   0   61.13    2.22
   3   5   0   54.00    1.63
   3   5   0   61.10    2.75
   3   5   0   61.48    1.85
   3   5   0   60.69    1.89
   3   5   0   61.48    1.85
  -4  -5   0   78.84    2.68
  -4  -5   0   85.36    2.40
  -4  -5   0   84.14    2.73
  -4  -5   0   83.09    3.51
  -4  -5   0   83.09    3.51
  -4  -5   0   81.89    2.77
  -4  -5   0   78.84    2.68
  -4  -5   0   81.89    2.77
   4   5   0   81.12    3.20
   4   5   0   77.85    2.67
   4   5   0   83.23    2.49
   4   5   0   82.94    3.23
   4   5   0   77.87    2.74
   4   5   0   79.00    3.73
   4   5   0   85.21    2.38
   4   5   0   82.94    3.23
   4   5   0   79.00    3.73
   4   5   0   79.47    2.69
   4   5   0   85.21    2.38
   4   5   0   79.47    2.69
  -5  -5   0  108.20    3.76
  -5  -5   0  112.97    3.42
  -5  -5   0  112.97    3.42
  -5  -5   0  110.61    3.68
  -5  -5   0  108.20    3.76
  -5  -5   0  110.60    3.68
  -5  -5   0  111.27    3.75
   5   5   0  110.69    3.93
   5   5   0  110.68    3.92
   5   5   0  104.40    3.84
   5   5   0  109.47    3.67
   5   5   0  109.38    3.30
   5   5   0  106.37    3.79
   5   5   0  107.81    4.93
   5   5   0  106.52    3.70
   5   5   0  107.81    4.93
   5   5   0  109.38    3.30
   5   5   0  109.47    3.67
  -6  -5   0    0.25    1.67
  -6  -5   0    0.25    1.67
  -6  -5   0    2.72    2.00
  -6  -5   0   -0.16    1.74
  -6  -5   0   -0.16    1.74
  -6  -5   0   -1.30    1.73
  -6  -5   0   -0.10    2.35
  -6  -5   0   -0.10    2.35
  -6  -5   0    2.72    2.00
   6   5   0   -1.16    2.21
   6   5   0   -1.16    2.21
   6   5   0   -0.95    1.72
   6   5   0    0.50    1.79
   6   5   0    0.50    1.79
   6   5   0    0.87    1.54
   6   5   0    3.10    1.95
   6   5   0    3.03    1.87
   6   5   0    0.87    1.54
  -7  -5   0   21.29    2.67
  -7  -5   0   19.23    3.09
  -7  -5   0   21.32    2.68
  -7  -5   0   15.89    3.63
  -7  -5   0   15.89    3.63
  -7  -5   0   12.71    2.52
  -7  -5   0   12.71    2.52
  -7  -5   0   20.48    3.18
  -7  -5   0   20.48    3.18
   7   5   0   21.99    2.85
   7   5   0   18.25    3.07
   7   5   0   18.25    3.07
   7   5   0   21.63    4.62
   7   5   0   21.99    2.85
   7   5   0   25.13    3.32
   7   5   0   21.63    4.62
   4  -6   0   -2.39    2.77
   4  -6   0    0.95    1.93
   4  -6   0    0.77    2.50
   4  -6   0    0.77    2.50
   4  -6   0   -0.14    2.89
   4  -6   0    0.95    1.93
   4  -6   0    0.01    2.69
   4  -6   0   -0.14    2.89
  -4   6   0    0.31    2.74
  -4   6   0    1.90    3.03
  -4   6   0    6.28    2.59
  -4   6   0    2.85    2.95
  -4   6   0    6.28    2.59
  -4   6   0    1.90    3.03
  -4   6   0    2.87    3.09
   3  -6   0   45.54    2.36
   3  -6   0   47.59    3.33
   3  -6   0   50.51    3.77
   3  -6   0   47.59    3.33
   3  -6   0   51.42    4.23
   3  -6   0   45.54    2.36
  -3   6   0   43.91    3.67
  -3   6   0   44.45    3.80
  -3   6   0   37.35    3.13
  -3   6   0   43.91    3.67
  -3   6   0   39.64    3.48
  -3   6   0   37.35    3.13
  -3   6   0   44.51    3.66
   2  -6   0   98.61    4.01
   2  -6   0   87.77    3.81
   2  -6   0   96.09    3.77
   2  -6   0   96.09    3.77
   2  -6   0   96.54    4.24
   2  -6   0   98.61    4.01
  -2   6   0   95.81    3.70
  -2   6   0   96.30    4.17
  -2   6   0  106.34    4.10
  -2   6   0   95.81    3.70
  -2   6   0   96.53    4.04
  -2   6   0  106.34    4.10
  -2   6   0   85.68    3.91
   1  -6   0   32.73    2.06
   1  -6   0   32.81    2.41
   1  -6   0   31.80    2.28
   1  -6   0   27.95    2.18
   1  -6   0   27.95    2.18
   1  -6   0   32.73    2.06
  -1   6   0   31.24    1.99
  -1   6   0   30.27    2.34
  -1   6   0   32.90    2.53
  -1   6   0   31.24    1.99
  -1   6   0   32.90    2.53
  -1   6   0   30.09    2.42
  -1   6   0   35.97    2.20
   0  -6   0   72.26    2.41
   0  -6   0   73.83    2.58
   0  -6   0   73.83    2.58
   0  -6   0   71.34    2.40
   0  -6   0   71.34    2.40
   0  -6   0   72.87    2.64
   0   6   0   69.85    2.42
   0   6   0   69.97    2.38
   0   6   0   64.67    2.69
   0   6   0   72.22    2.56
   0   6   0   72.22    2.56
   0   6   0   69.97    2.38
   0   6   0   65.25    2.62
  -1  -6   0   32.61    1.27
  -1  -6   0   31.95    1.55
  -1  -6   0   33.44    1.49
  -1  -6   0   33.44    1.49
   1   6   0   33.78    1.55
   1   6   0   31.74    1.62
   1   6   0   29.83    1.24
   1   6   0   33.78    1.55
   1   6   0   33.26    1.27
   1   6   0   33.26    1.27
   1   6   0   29.83    1.24
   1   6   0   30.02    1.31
  -2  -6   0   45.58    1.42
  -2  -6   0   42.95    1.30
  -2  -6   0   41.95    1.36
  -2  -6   0   45.58    1.42
  -2  -6   0   42.95    1.30
  -2  -6   0   44.88    1.28
   2   6   0   44.66    2.75
   2   6   0   45.92    2.13
   2   6   0   42.82    1.37
   2   6   0   42.82    1.37
   2   6   0   45.80    2.75
   2   6   0   45.92    2.13
   2   6   0   44.66    2.75
   2   6   0   42.64    1.34
   2   6   0   41.67    1.45
   2   6   0   43.62    1.88
   2   6   0   43.62    1.89
  -3  -6   0   50.31    1.62
  -3  -6   0   50.63    1.44
  -3  -6   0   50.31    1.62
  -3  -6   0   47.32    2.43
  -3  -6   0   51.22    1.39
  -3  -6   0   53.84    1.53
  -3  -6   0   47.32    2.43
  -3  -6   0   50.63    1.44
   3   6   0   51.34    1.39
   3   6   0   49.22    2.93
   3   6   0   48.83    1.64
   3   6   0   52.13    2.18
   3   6   0   50.23    1.56
   3   6   0   56.10    3.00
   3   6   0   52.14    2.19
   3   6   0   49.59    2.63
   3   6   0   50.23    1.56
   3   6   0   49.08    1.60
   3   6   0   56.10    3.00
   3   6   0   49.59    2.63
   3   6   0   49.29    1.51
   3   6   0   51.34    1.39
  -4  -6   0   76.22    2.13
  -4  -6   0   72.64    3.34
  -4  -6   0   68.83    2.74
  -4  -6   0   72.64    3.34
  -4  -6   0   57.56    2.30
  -4  -6   0   57.56    2.30
  -4  -6   0   74.67    2.37
  -4  -6   0   76.22    2.13
   4   6   0   78.08    2.54
   4   6   0   76.53    2.41
   4   6   0   70.54    2.85
   4   6   0   77.60    2.46
   4   6   0   70.56    2.85
   4   6   0   76.90    3.74
   4   6   0   75.54    3.46
   4   6   0   75.54    3.46
   4   6   0   74.57    3.46
   4   6   0   76.53    2.41
   4   6   0   76.90    3.74
  -5  -6   0   14.74    1.69
  -5  -6   0   17.99    2.49
  -5  -6   0   15.82    1.36
  -5  -6   0   19.07    1.70
  -5  -6   0   17.99    2.49
  -5  -6   0   16.41    1.68
  -5  -6   0   15.92    1.71
  -5  -6   0   19.07    1.70
  -5  -6   0   15.92    1.71
  -5  -6   0   14.74    1.69
   5   6   0   14.95    2.19
   5   6   0   14.55    1.64
   5   6   0   17.81    1.70
   5   6   0   14.95    2.19
   5   6   0   18.62    1.51
   5   6   0   14.55    1.64
   5   6   0   18.62    1.51
   5   6   0   12.77    2.72
   5   6   0   17.93    1.78
   5   6   0   12.77    2.72
   5   6   0   15.93    2.18
   5   6   0   16.05    1.45
  -6  -6   0   90.90    3.76
  -6  -6   0   84.87    3.85
  -6  -6   0   92.41    3.97
  -6  -6   0   90.91    3.77
  -6  -6   0  101.83    5.15
  -6  -6   0   92.26    3.87
  -6  -6   0   84.87    3.85
  -6  -6   0  101.83    5.15
   6   6   0   89.40    3.55
   6   6   0   97.31    5.88
   6   6   0   90.58    3.28
   6   6   0   93.25    3.90
   6   6   0   97.31    5.88
   6   6   0   93.25    3.90
   6   6   0   90.58    3.28
   6   6   0   88.10    3.83
   6   6   0   87.86    3.93
   3  -7   0    9.22    2.55
   3  -7   0    8.08    2.90
   3  -7   0   13.35    3.17
   3  -7   0    5.84    2.58
   3  -7   0    8.08    2.90
   3  -7   0    9.22    2.55
  -3   7   0    8.76    3.00
  -3   7   0    8.48    2.31
  -3   7   0    8.79    3.13
  -3   7   0    5.11    2.47
  -3   7   0    8.48    2.31
   2  -7   0  103.50    4.14
   2  -7   0  104.41    5.22
   2  -7   0   99.68    5.24
   2  -7   0  104.41    5.22
   2  -7   0  101.14    4.38
   2  -7   0  103.50    4.14
  -2   7   0  104.73    4.67
  -2   7   0   89.04    4.08
  -2   7   0  100.41    4.03
  -2   7   0  100.41    4.03
  -2   7   0  104.36    4.51
  -2   7   0  102.80    4.46
  -2   7   0  102.80    4.46
   1  -7   0   13.94    1.69
   1  -7   0   13.94    1.69
   1  -7   0    9.56    1.82
   1  -7   0    9.56    1.82
  -1   7   0   10.44    1.91
  -1   7   0   10.39    1.83
  -1   7   0   14.61    1.92
  -1   7   0   14.61    1.92
  -1   7   0   12.37    1.71
   0  -7   0   10.32    1.27
   0  -7   0    9.47    1.43
   0  -7   0   13.08    1.30
   0  -7   0   10.32    1.27
   0  -7   0   11.77    1.55
   0  -7   0   11.77    1.55
   0   7   0   10.25    1.50
   0   7   0   10.50    1.57
   0   7   0   13.32    1.46
   0   7   0    9.02    1.25
   0   7   0   11.49    1.27
   0   7   0   13.32    1.46
   0   7   0   11.49    1.27
  -1  -7   0   19.16    1.61
  -1  -7   0   19.67    1.65
  -1  -7   0   19.47    1.23
  -1  -7   0   19.67    1.65
   1   7   0   18.63    0.73
   1   7   0   19.03    1.23
   1   7   0   19.03    1.23
   1   7   0   21.66    1.36
   1   7   0   18.06    1.43
   1   7   0   18.11    1.49
   1   7   0   18.97    1.57
   1   7   0   18.63    0.73
   1   7   0   18.97    1.57
  -2  -7   0  191.79    4.22
  -2  -7   0  190.25    4.29
  -2  -7   0  197.01    4.41
  -2  -7   0  195.12    4.16
  -2  -7   0  191.79    4.22
  -2  -7   0  197.01    4.41
   2   7   0  193.73    4.95
   2   7   0  194.90    4.94
   2   7   0  194.83    4.94
   2   7   0  201.10    6.12
   2   7   0  199.41    6.14
   2   7   0  189.43    4.32
   2   7   0  189.14    4.27
   2   7   0  199.41    6.14
   2   7   0  189.43    4.32
   2   7   0  193.73    4.95
   2   7   0  198.51    4.51
  -3  -7   0   30.11    1.16
  -3  -7   0   28.37    0.76
  -3  -7   0   32.06    1.24
  -3  -7   0   29.93    2.03
  -3  -7   0   28.63    0.77
  -3  -7   0   32.06    1.24
  -3  -7   0   29.93    2.03
  -3  -7   0   30.11    1.16
   3   7   0   29.58    0.96
   3   7   0   31.78    2.02
   3   7   0   32.90    3.03
   3   7   0   30.46    1.00
   3   7   0   33.35    3.06
   3   7   0   30.92    1.24
   3   7   0   29.58    0.96
   3   7   0   30.46    1.00
   3   7   0   29.09    2.32
   3   7   0   30.85    1.28
   3   7   0   31.69    1.22
   3   7   0   32.90    3.03
   3   7   0   29.09    2.32
   3   7   0   31.79    2.03
  -4  -7   0   26.13    1.55
  -4  -7   0   24.53    1.21
  -4  -7   0   25.00    2.32
  -4  -7   0   24.53    1.21
  -4  -7   0   25.79    1.23
  -4  -7   0   26.13    1.55
  -4  -7   0   25.00    2.32
   4   7   0   26.02    1.29
   4   7   0   24.78    2.19
   4   7   0   26.10    1.09
   4   7   0   25.53    1.57
   4   7   0   26.10    1.09
   4   7   0   25.66    2.75
   4   7   0   25.42    1.51
   4   7   0   26.44    1.32
   4   7   0   27.97    2.71
   4   7   0   27.98    2.71
   4   7   0   26.44    1.32
   4   7   0   24.79    2.19
   4   7   0   25.66    2.75
   4   7   0   27.24    2.69
  -5  -7   0   -2.21    1.97
  -5  -7   0   -2.21    1.97
  -5  -7   0    2.15    0.89
  -5  -7   0    2.31    1.22
  -5  -7   0    0.39    1.13
  -5  -7   0    2.31    1.22
   5   7   0    0.11    2.42
   5   7   0    0.93    0.87
   5   7   0   -2.16    2.02
   5   7   0    1.56    1.24
   5   7   0    0.57    1.12
   5   7   0   -0.15    0.92
   5   7   0    0.93    0.87
   5   7   0   -1.41    2.06
   5   7   0    1.59    1.18
   5   7   0   -2.16    2.02
   5   7   0    0.57    1.12
   5   7   0    0.11    2.42
  -6  -7   0    7.77    1.82
  -6  -7   0    4.30    1.54
  -6  -7   0   -0.11    2.42
  -6  -7   0   -0.11    2.42
  -6  -7   0    9.33    3.24
  -6  -7   0    2.85    1.37
  -6  -7   0    6.20    1.79
  -6  -7   0    9.33    3.24
  -6  -7   0    4.30    1.54
  -6  -7   0    6.21    1.80
   6   7   0    3.45    2.75
   6   7   0    3.36    1.81
   6   7   0    4.18    1.50
   6   7   0    3.87    1.37
   6   7   0    2.71    1.79
   6   7   0    3.26    1.87
   6   7   0    4.10    3.65
   6   7   0    3.87    1.37
   6   7   0    8.03    2.83
   6   7   0    3.36    1.81
   6   7   0    4.10    3.65
   6   7   0    8.02    2.82
   2  -8   0   20.21    3.07
   2  -8   0   20.60    2.56
   2  -8   0   20.60    2.56
   2  -8   0   15.56    2.68
   2  -8   0   18.95    2.99
   2  -8   0   20.21    3.07
  -2   8   0   20.90    3.05
  -2   8   0   16.94    2.37
  -2   8   0   16.94    2.37
  -2   8   0   19.74    2.58
  -2   8   0   21.08    3.21
  -2   8   0   22.01    2.91
  -2   8   0   22.01    2.91
   1  -8   0   30.13    2.50
   1  -8   0   25.81    2.60
   1  -8   0   25.81    2.60
   1  -8   0   28.31    2.56
   1  -8   0   30.13    2.50
  -1   8   0   25.97    2.31
  -1   8   0   25.97    2.31
  -1   8   0   29.03    2.79
  -1   8   0   26.29    2.37
  -1   8   0   28.39    2.90
  -1   8   0   28.24    2.77
  -1   8   0   29.03    2.79
   0  -8   0    3.18    1.64
   0  -8   0    3.48    1.26
   0  -8   0    3.48    1.26
   0  -8   0    3.18    1.59
   0  -8   0    3.17    1.24
   0  -8   0    3.18    1.64
   0   8   0    1.30    1.11
   0   8   0    4.36    1.58
   0   8   0    5.01    1.70
   0   8   0    2.17    1.19
   0   8   0    2.17    1.19
   0   8   0    4.36    1.58
   0   8   0    4.99    1.62
  -1  -8   0   94.45    3.16
  -1  -8   0   98.25    3.27
  -1  -8   0   98.25    3.27
  -1  -8   0   92.75    2.70
   1   8   0   92.04    2.67
   1   8   0   91.52    3.22
   1   8   0   92.04    2.67
   1   8   0   91.49    3.32
   1   8   0   92.82    2.85
  -2  -8   0    0.03    0.78
  -2  -8   0   -0.22    0.92
  -2  -8   0   -0.22    0.92
  -2  -8   0    0.58    0.59
  -2  -8   0   -0.20    0.66
  -2  -8   0   -0.20    0.66
   2   8   0    0.90    0.89
   2   8   0   -0.68    1.72
   2   8   0    1.25    0.63
   2   8   0    1.25    0.63
   2   8   0   -0.02    1.01
   2   8   0   -0.68    1.31
   2   8   0    0.35    0.65
   2   8   0   -0.68    1.72
   2   8   0   -0.02    1.01
   2   8   0    0.77    0.82
   2   8   0    0.85    0.93
   2   8   0    0.77    0.82
   2   8   0    1.29    1.73
   2   8   0   -0.68    1.31
  -3  -8   0   67.66    1.79
  -3  -8   0   67.66    1.79
  -3  -8   0   64.90    1.80
  -3  -8   0   64.90    1.80
   3   8   0   65.38    1.83
   3   8   0   65.57    1.93
   3   8   0   65.11    1.87
   3   8   0   69.32    2.85
   3   8   0   69.32    2.85
   3   8   0   70.72    3.35
   3   8   0   65.88    4.27
   3   8   0   68.34    4.33
   3   8   0   70.72    3.35
   3   8   0   65.88    4.27
  -4  -8   0   29.61    1.27
  -4  -8   0   29.61    1.27
  -4  -8   0   31.14    1.14
  -4  -8   0   31.14    1.14
   4   8   0   32.29    2.56
   4   8   0   28.28    3.38
   4   8   0   30.44    2.93
   4   8   0   28.27    3.38
   4   8   0   30.93    3.42
   4   8   0   32.25    2.56
   4   8   0   29.84    1.21
   4   8   0   30.44    2.93
  -5  -8   0   12.90    1.32
  -5  -8   0   18.89    2.59
  -5  -8   0   18.89    2.59
  -5  -8   0   12.90    1.32
  -5  -8   0   13.71    0.91
  -5  -8   0   10.63    1.05
  -5  -8   0   10.63    1.05
   5   8   0   17.19    3.35
   5   8   0   15.26    3.04
   5   8   0   12.52    1.03
   5   8   0   12.04    1.34
   5   8   0   12.96    1.13
   5   8   0    6.75    2.83
   5   8   0    6.75    2.83
   5   8   0   12.96    1.13
   5   8   0   11.85    1.39
   5   8   0   12.88    1.11
   5   8   0   17.19    3.35
   5   8   0   12.52    1.03
  -6  -8   0   13.78    1.52
  -6  -8   0   11.80    1.83
  -6  -8   0   11.80    1.83
  -6  -8   0   11.58    1.31
  -6  -8   0   13.78    1.52
  -6  -8   0   13.14    3.17
  -6  -8   0   13.14    3.17
   6   8   0    9.06    1.21
   6   8   0    9.06    1.21
   6   8   0   15.17    1.56
   6   8   0   13.31    1.94
   6   8   0   12.91    3.53
   6   8   0   17.57    4.20
   6   8   0   12.39    3.47
   6   8   0   17.57    4.20
   6   8   0   12.91    3.53
   1  -9   0   30.49    2.75
   1  -9   0   28.49    3.09
   1  -9   0   30.49    2.75
   1  -9   0   26.55    3.07
   1  -9   0   28.49    3.09
   1  -9   0   28.43    2.45
  -1   9   0   29.10    3.25
  -1   9   0   29.10    3.25
  -1   9   0   27.77    2.55
  -1   9   0   27.23    2.41
  -1   9   0   27.23    2.41
   0  -9   0   21.09    1.91
   0  -9   0   21.09    1.91
   0  -9   0   22.62    1.95
   0  -9   0   22.85    2.58
   0  -9   0   22.85    2.58
   0  -9   0   21.29    2.46
   0   9   0   19.56    2.51
   0   9   0   19.45    2.40
   0   9   0   18.91    1.85
   0   9   0   21.86    2.33
   0   9   0   16.93    1.85
   0   9   0   18.91    1.85
   0   9   0   21.86    2.33
  -1  -9   0   45.18    2.09
  -1  -9   0   46.37    2.96
  -1  -9   0   50.38    2.90
  -1  -9   0   50.38    2.90
   1   9   0   42.74    2.89
   1   9   0   48.22    2.13
   1   9   0   48.22    2.13
   1   9   0   42.82    2.79
   1   9   0   41.90    2.18
  -2  -9   0   10.03    1.35
  -2  -9   0   10.03    1.35
  -2  -9   0   10.63    0.88
  -2  -9   0   11.03    1.01
  -2  -9   0   11.03    1.01
  -2  -9   0   11.56    1.13
   2   9   0   11.22    1.45
   2   9   0   14.74    2.02
   2   9   0   12.55    1.09
   2   9   0    9.24    1.16
   2   9   0    9.24    1.16
   2   9   0   14.74    2.02
   2   9   0   10.53    1.12
   2   9   0   12.55    1.09
   2   9   0   10.53    1.12
   2   9   0   11.17    1.39
   2   9   0   10.19    1.03
  -3  -9   0    0.96    0.47
  -3  -9   0    0.57    0.56
  -3  -9   0    0.57    0.56
  -3  -9   0    0.96    0.47
   3   9   0   -0.28    1.72
   3   9   0   -0.62    2.71
   3   9   0   -0.28    1.72
   3   9   0    1.10    0.91
   3   9   0   -0.75    1.60
   3   9   0   -0.62    2.71
   3   9   0    1.10    0.87
   3   9   0    0.58    0.68
   3   9   0    0.68    0.65
   3   9   0   -2.15    2.61
   3   9   0   -0.75    1.59
   4   9   0   15.88    2.04
   4   9   0   16.71    2.67
   4   9   0   15.89    2.04
   4   9   0   16.28    3.48
   4   9   0   16.78    3.55
   4   9   0   16.27    3.47
   4   9   0   16.71    2.67
   5   9   0   40.73    1.13
   5   9   0   47.21    4.32
   5   9   0   45.96    3.45
   5   9   0   47.07    4.56
   5   9   0   66.66    5.36
   5   9   0   47.21    4.32
   5   9   0   45.96    3.45
   5   9   0   66.72    5.36
   0  10   0   20.55    4.53
   0  10   0   20.55    4.54
   0  10   0   18.33    4.42
   0  10   0   14.96    2.11
  -1 -10   0   30.21    2.18
  -1 -10   0   30.88    2.59
  -1 -10   0   30.88    2.59
   1  10   0   30.73    2.28
   1  10   0   32.36    2.68
   1  10   0   29.98    2.14
   1  10   0   31.94    2.55
   1  10   0   29.04    4.65
   1  10   0   29.05    4.65
   1  10   0   29.98    2.14
   1  10   0   25.12    4.48
  -2 -10   0   11.28    1.17
  -2 -10   0   11.28    1.17
  -2 -10   0   11.08    1.57
  -2 -10   0   11.08    1.57
   2  10   0   11.94    1.55
   2  10   0    6.23    3.86
   2  10   0   11.31    1.18
   2  10   0   13.61    4.08
   2  10   0   13.60    4.07
   2  10   0   11.96    2.29
   2  10   0   12.07    1.63
   2  10   0   11.31    1.18
   2  10   0   10.26    1.16
   2  10   0   11.96    2.29
   3  10   0   13.55    2.10
   3  10   0   11.21    2.17
   3  10   0   13.55    2.10
   3  10   0    8.94    3.99
   3  10   0    8.94    3.99
   3  10   0   14.27    4.09
   3  10   0   11.22    2.17
   4  10   0    8.30    2.84
   4  10   0    5.79    4.04
   4  10   0    5.78    4.03
   4  10   0    5.25    4.12
   4  10   0    8.30    2.84
   3  10  -1   15.37    2.09
   3  10  -1   15.18    4.46
   3  10  -1   14.84    0.75
   3  10  -1   14.24    1.69
   3  10  -1   20.54    4.51
   3  10  -1   14.84    0.75
   3  10  -1   17.70    0.92
   3  10  -1   20.53    4.50
   3  10  -1   17.70    0.92
   3  10  -1   18.16    2.25
   3  10  -1   15.37    2.09
   3  10  -1   18.16    2.26
  -3 -10   1   14.43    1.29
  -3 -10   1   14.43    1.29
  -3 -10   1   14.40    1.60
  -3 -10   1   14.40    1.60
   2  10  -1    6.29    3.88
   2  10  -1    3.56    1.97
   2  10  -1    4.96    1.60
   2  10  -1    4.96    1.60
   2  10  -1    4.65    1.86
   2  10  -1    3.57    1.97
   2  10  -1    5.33    1.36
   2  10  -1    8.62    3.93
   2  10  -1    4.55    1.77
   2  10  -1    8.62    3.92
  -2 -10   1    6.07    1.29
  -2 -10   1    3.02    1.91
  -2 -10   1    6.07    1.29
  -2 -10   1    4.70    1.72
  -2 -10   1    4.79    1.17
  -2 -10   1    3.02    1.91
   1  10  -1   12.27    1.70
   1  10  -1   11.43    2.27
   1  10  -1   12.96    2.35
   1  10  -1   12.27    1.70
   1  10  -1   12.80    1.78
   1  10  -1   12.92    2.45
   1  10  -1   11.43    2.27
  -1 -10   1   11.41    1.76
  -1 -10   1   11.79    1.67
  -1 -10   1   11.41    1.76
  -1 -10   1   10.85    2.35
   5   9  -1    7.61    0.70
   5   9  -1   12.14    3.60
   5   9  -1   11.15    0.92
   5   9  -1   13.28    3.66
   5   9  -1    5.07    3.49
   5   9  -1    8.70    1.46
   5   9  -1   13.28    3.65
   5   9  -1   11.15    0.92
   5   9  -1    8.66    1.39
   5   9  -1   12.14    3.60
   5   9  -1    7.61    0.70
   5   9  -1    8.56    1.25
  -5  -9   1    8.79    1.25
  -5  -9   1   13.87    2.98
  -5  -9   1    7.02    1.43
  -5  -9   1   13.87    2.98
  -5  -9   1    8.79    1.25
  -5  -9   1    7.02    1.43
   4   9  -1   12.71    1.88
   4   9  -1   11.42    1.21
   4   9  -1   14.08    3.68
   4   9  -1   18.74    3.81
   4   9  -1   13.45    1.25
   4   9  -1   10.85    2.72
   4   9  -1   13.51    1.31
   4   9  -1   12.71    1.88
   4   9  -1   18.74    3.80
   4   9  -1   10.85    2.72
  -4  -9   1   12.00    1.27
  -4  -9   1   12.00    1.27
   3   9  -1   -0.74    3.10
   3   9  -1    4.70    1.58
   3   9  -1    4.70    1.85
   3   9  -1    4.68    1.58
   3   9  -1    2.82    1.21
   3   9  -1    3.36    0.81
   3   9  -1    1.92    1.07
   3   9  -1    3.36    0.81
   3   9  -1    1.92    1.07
   3   9  -1    4.70    1.85
   3   9  -1    5.85    3.20
   3   9  -1   -0.74    3.10
  -3  -9   1    3.82    1.03
  -3  -9   1    3.16    0.95
  -3  -9   1    4.98    1.99
  -3  -9   1    4.98    1.99
  -3  -9   1    3.82    1.03
   2   9  -1   12.89    1.93
   2   9  -1   14.37    1.80
   2   9  -1   18.27    1.55
   2   9  -1   14.32    1.65
   2   9  -1   12.89    1.93
   2   9  -1   18.27    1.55
   2   9  -1   14.32    1.65
   2   9  -1   13.70    1.32
  -2  -9   1   14.82    1.74
  -2  -9   1   14.82    1.74
  -2  -9   1   17.70    2.11
  -2  -9   1   13.44    1.59
  -2  -9   1   13.95    1.25
  -2  -9   1   17.70    2.11
   1   9  -1   70.48    3.19
   1   9  -1   75.19    2.72
   1   9  -1   75.19    2.72
   1   9  -1   68.77    2.80
   1   9  -1   64.95    3.61
   1   9  -1   65.27    3.52
   1   9  -1   70.48    3.19
  -1  -9   1   71.93    2.76
  -1  -9   1   68.93    2.80
  -1  -9   1   75.60    3.66
  -1  -9   1   68.93    2.80
  -1  -9   1   75.60    3.66
   0   9  -1    9.80    1.72
   0   9  -1   13.52    2.33
   0   9  -1    9.80    1.72
   0   9  -1   10.86    2.47
   0   9  -1   13.56    2.44
   0   9  -1   10.53    1.75
   0   9  -1   10.86    2.47
   0  -9   1   15.23    1.88
   0  -9   1   15.23    1.88
   0  -9   1   12.65    1.81
   0  -9   1   18.08    2.52
  -1   9  -1   18.83    3.24
  -1   9  -1   20.28    2.28
  -1   9  -1   15.30    3.09
  -1   9  -1   18.74    3.10
  -1   9  -1   20.28    2.28
  -1   9  -1   20.75    2.50
  -1   9  -1   15.30    3.09
   1  -9   1   21.27    2.61
   1  -9   1   22.43    2.37
   1  -9   1   20.14    3.16
   1  -9   1   20.81    3.15
   1  -9   1   20.14    3.16
   1  -9   1   21.27    2.61
   5   8  -1   30.83    3.57
   5   8  -1   23.49    1.61
   5   8  -1   27.18    2.26
   5   8  -1   19.35    3.27
   5   8  -1   30.84    3.57
   5   8  -1   19.35    3.27
   5   8  -1   25.96    2.18
   5   8  -1   25.96    2.18
   5   8  -1   30.07    3.55
   5   8  -1   27.34    2.36
   5   8  -1   23.49    1.61
   5   8  -1   23.38    1.87
  -5  -8   1   25.28    2.24
  -5  -8   1   24.91    2.92
  -5  -8   1   25.28    2.24
  -5  -8   1   19.11    1.62
  -5  -8   1   23.24    1.82
  -5  -8   1   24.91    2.92
  -5  -8   1   23.24    1.82
   4   8  -1   21.01    1.77
   4   8  -1   20.40    3.17
   4   8  -1   23.22    1.94
   4   8  -1   16.33    2.62
   4   8  -1   24.94    3.28
   4   8  -1   20.99    1.37
   4   8  -1   20.99    1.37
   4   8  -1   23.03    1.57
   4   8  -1   20.96    1.52
   4   8  -1   23.22    1.94
   4   8  -1   16.33    2.62
   4   8  -1   21.07    1.71
   4   8  -1   20.96    1.52
   4   8  -1   20.40    3.16
  -4  -8   1   24.32    2.59
  -4  -8   1   21.44    1.51
  -4  -8   1   20.09    1.58
  -4  -8   1   18.82    1.49
  -4  -8   1   20.09    1.58
  -4  -8   1   18.82    1.49
  -4  -8   1   22.63    1.35
  -4  -8   1   24.32    2.59
   3   8  -1   26.65    1.44
   3   8  -1   27.13    1.55
   3   8  -1   24.47    2.80
   3   8  -1   25.48    3.03
   3   8  -1   23.30    2.26
   3   8  -1   24.46    2.79
   3   8  -1   26.22    2.12
   3   8  -1   24.54    1.69
   3   8  -1   27.13    1.55
   3   8  -1   23.30    2.26
   3   8  -1   26.22    2.12
   3   8  -1   26.65    1.44
  -3  -8   1   26.21    1.53
  -3  -8   1   20.58    1.64
  -3  -8   1   25.02    1.56
  -3  -8   1   20.58    1.64
  -3  -8   1   26.08    1.46
  -3  -8   1   25.02    1.56
   2   8  -1    3.11    1.91
   2   8  -1    1.22    1.06
   2   8  -1    3.51    0.85
   2   8  -1    2.18    1.31
   2   8  -1    2.31    1.22
   2   8  -1    4.15    0.95
   2   8  -1    2.17    1.31
   2   8  -1    3.51    0.85
   2   8  -1    1.22    1.06
   2   8  -1    3.11    1.91
  -2  -8   1    3.17    1.20
  -2  -8   1    3.17    1.20
  -2  -8   1    3.32    1.14
  -2  -8   1    2.75    0.86
   1   8  -1   83.02    2.68
   1   8  -1   83.02    2.68
   1   8  -1   81.37    3.37
   1   8  -1   84.24    3.21
   1   8  -1   85.58    2.77
   1   8  -1   84.24    3.21
  -1  -8   1   82.10    3.17
  -1  -8   1   82.10    3.17
  -1  -8   1   78.70    3.21
   0   8  -1   34.87    2.21
   0   8  -1   37.81    2.32
   0   8  -1   34.87    2.21
   0   8  -1   34.73    2.83
   0   8  -1   36.59    2.96
   0   8  -1   36.11    3.05
   0   8  -1   34.73    2.83
   0  -8   1   34.22    2.27
   0  -8   1   37.52    3.02
   0  -8   1   34.22    2.27
   0  -8   1   37.52    3.02
   0  -8   1   34.38    2.88
   0  -8   1   36.50    2.23
  -1   8  -1   11.00    2.31
  -1   8  -1   10.81    2.22
  -1   8  -1    9.20    2.25
  -1   8  -1   10.13    1.84
  -1   8  -1   11.81    1.86
  -1   8  -1    9.20    2.25
  -1   8  -1   10.13    1.84
   1  -8   1   14.05    2.08
   1  -8   1   14.05    2.08
  -2   8  -1   27.32    2.81
  -2   8  -1   26.43    2.65
  -2   8  -1   26.43    2.65
  -2   8  -1   25.69    3.26
  -2   8  -1   25.81    3.41
  -2   8  -1   27.08    3.51
  -2   8  -1   27.08    3.51
   2  -8   1   21.13    2.54
   2  -8   1   27.37    3.37
   2  -8   1   20.60    2.73
   2  -8   1   22.26    3.58
   2  -8   1   22.26    3.58
   2  -8   1   21.13    2.54
   6   7  -1   11.64    1.59
   6   7  -1    9.56    2.25
   6   7  -1    4.95    2.44
   6   7  -1   13.13    2.10
   6   7  -1    5.66    3.66
   6   7  -1   13.13    2.10
   6   7  -1    9.68    2.15
   6   7  -1    5.66    3.66
   6   7  -1    4.95    2.44
   6   7  -1   11.64    1.59
   6   7  -1   14.36    1.82
   6   7  -1   10.73    2.56
  -6  -7   1   12.11    1.80
  -6  -7   1   11.88    1.68
  -6  -7   1   12.11    1.80
  -6  -7   1    8.45    2.30
  -6  -7   1   12.52    1.77
  -6  -7   1    9.17    2.15
  -6  -7   1    5.69    2.88
  -6  -7   1    8.45    2.30
  -6  -7   1    5.69    2.88
  -6  -7   1   12.51    1.77
   5   7  -1    1.27    1.44
   5   7  -1    3.46    2.59
   5   7  -1    2.87    1.48
   5   7  -1    1.27    1.44
   5   7  -1    3.46    2.59
   5   7  -1    2.51    2.34
   5   7  -1    2.51    2.34
   5   7  -1    2.84    1.41
   5   7  -1    5.18    2.36
   5   7  -1   -0.89    1.59
   5   7  -1   -0.89    1.59
   5   7  -1    0.67    1.14
  -5  -7   1    1.92    1.16
  -5  -7   1    1.17    1.47
  -5  -7   1    1.92    1.16
  -5  -7   1    2.75    2.02
  -5  -7   1    2.75    2.02
  -5  -7   1    1.46    1.01
   4   7  -1   98.08    4.36
   4   7  -1   87.07    3.02
   4   7  -1   92.96    2.72
   4   7  -1   93.68    2.86
   4   7  -1   87.41    2.95
   4   7  -1   89.27    2.55
   4   7  -1   93.68    2.86
   4   7  -1   89.27    2.55
   4   7  -1   94.43    3.17
   4   7  -1   94.43    3.17
   4   7  -1   92.25    4.22
   4   7  -1  100.28    4.41
   4   7  -1   98.08    4.36
   4   7  -1   92.25    4.22
  -4  -7   1   91.31    2.97
  -4  -7   1   92.12    2.87
  -4  -7   1   95.40    2.66
  -4  -7   1  100.74    3.92
  -4  -7   1  100.74    3.92
  -4  -7   1   91.31    2.97
  -4  -7   1   95.40    2.66
   3   7  -1   58.65    3.56
   3   7  -1   51.58    2.26
   3   7  -1   53.29    1.91
   3   7  -1   50.77    3.00
   3   7  -1   50.77    3.00
   3   7  -1   51.43    3.51
   3   7  -1   51.57    2.26
   3   7  -1   51.43    3.50
   3   7  -1   51.32    1.91
   3   7  -1   50.48    1.79
   3   7  -1   50.48    1.79
   3   7  -1   51.32    1.91
  -3  -7   1   52.63    1.86
  -3  -7   1   54.42    2.58
  -3  -7   1   52.13    1.78
  -3  -7   1   54.42    2.58
  -3  -7   1   52.97    1.90
  -3  -7   1   52.63    1.86
   2   7  -1   46.24    1.69
   2   7  -1   46.24    1.69
   2   7  -1   42.43    2.02
   2   7  -1   43.30    1.71
   2   7  -1   46.58    2.26
   2   7  -1   42.42    2.01
   2   7  -1   46.58    2.26
   2   7  -1   40.24    1.90
  -2  -7   1   45.07    1.67
  -2  -7   1   38.65    2.27
  -2  -7   1   42.80    1.84
  -2  -7   1   42.80    1.84
   1   7  -1    0.43    0.71
   1   7  -1    0.20    1.08
   1   7  -1    0.43    0.71
   1   7  -1    0.73    0.80
   1   7  -1    2.02    1.08
   1   7  -1    2.02    1.08
  -1  -7   1    1.73    1.15
  -1  -7   1    2.04    0.88
  -1  -7   1    0.87    0.81
  -1  -7   1    2.04    0.88
  -1  -7   1    1.73    1.15
  -1  -7   1    0.65    1.01
   0   7  -1   28.02    2.46
   0   7  -1   29.88    1.86
   0   7  -1   29.88    1.86
   0   7  -1   21.95    2.73
   0   7  -1   27.19    2.37
   0   7  -1   28.11    2.33
   0   7  -1   28.11    2.33
   0  -7   1   26.05    1.95
   0  -7   1   27.02    2.15
   0  -7   1   27.02    2.15
   0  -7   1   27.63    2.27
   0  -7   1   26.40    1.80
   0  -7   1   26.05    1.95
  -1   7  -1   44.92    2.57
  -1   7  -1   45.51    3.24
  -1   7  -1   45.24    2.96
  -1   7  -1   45.78    3.13
  -1   7  -1   45.24    2.96
  -1   7  -1   49.57    2.55
  -1   7  -1   49.57    2.55
   1  -7   1   47.72    2.58
   1  -7   1   47.46    3.02
   1  -7   1   47.72    2.58
   1  -7   1   47.46    3.02
  -2   7  -1   36.71    2.98
  -2   7  -1   40.80    3.25
  -2   7  -1   38.74    2.89
  -2   7  -1   40.80    3.25
  -2   7  -1   38.99    3.24
  -2   7  -1   39.18    3.38
  -2   7  -1   38.74    2.89
   2  -7   1   37.71    2.95
   2  -7   1   37.71    2.95
   2  -7   1   38.78    3.39
   2  -7   1   37.13    2.95
  -3   7  -1   21.74    3.34
  -3   7  -1   20.91    3.52
  -3   7  -1   15.57    2.66
  -3   7  -1   20.72    3.35
  -3   7  -1   21.74    3.34
  -3   7  -1   19.05    2.97
  -3   7  -1   15.57    2.66
   3  -7   1   16.13    3.54
   3  -7   1   18.80    2.73
   3  -7   1   21.91    3.24
   3  -7   1   21.91    3.24
   3  -7   1   18.80    2.73
   3  -7   1   14.50    2.99
   6   6  -1   20.71    2.55
   6   6  -1   14.31    3.84
   6   6  -1   14.31    3.84
   6   6  -1   18.67    1.92
   6   6  -1   20.21    2.40
   6   6  -1   15.20    2.30
   6   6  -1   15.20    2.30
   6   6  -1   20.08    2.50
   6   6  -1   22.11    2.10
   6   6  -1   20.72    2.55
   6   6  -1   18.67    1.92
   6   6  -1   18.45    2.49
  -6  -6   1   22.33    2.54
  -6  -6   1   17.74    1.99
  -6  -6   1   16.52    3.12
  -6  -6   1   20.89    2.15
  -6  -6   1   16.52    3.12
  -6  -6   1   17.73    1.99
  -6  -6   1   19.07    2.01
  -6  -6   1   20.89    2.15
  -6  -6   1   22.33    2.54
  -6  -6   1   21.39    2.59
   5   6  -1   -2.76    1.58
   5   6  -1   -0.57    1.64
   5   6  -1    0.26    1.39
   5   6  -1    0.26    1.39
   5   6  -1    1.12    1.03
   5   6  -1    1.28    2.38
   5   6  -1   -0.57    1.64
   5   6  -1    1.12    1.03
   5   6  -1    1.28    2.38
   5   6  -1    1.28    1.35
   5   6  -1    1.29    1.42
   5   6  -1   -1.27    1.12
  -5  -6   1    0.76    1.20
  -5  -6   1    0.76    1.20
  -5  -6   1   -0.05    1.09
  -5  -6   1   -1.46    2.03
  -5  -6   1   -1.46    2.03
  -5  -6   1    0.61    1.53
  -5  -6   1    0.43    1.03
  -5  -6   1   -0.05    1.09
  -5  -6   1    0.61    1.53
  -5  -6   1   -2.18    1.39
   4   6  -1   67.84    2.50
   4   6  -1   67.84    2.50
   4   6  -1   76.22    3.67
   4   6  -1   76.66    3.78
   4   6  -1   74.80    3.65
   4   6  -1   67.81    2.31
   4   6  -1   74.01    2.75
   4   6  -1   74.81    3.65
   4   6  -1   76.66    3.78
   4   6  -1   74.27    2.68
  -4  -6   1   66.52    2.61
  -4  -6   1   65.33    3.33
  -4  -6   1   72.83    2.25
  -4  -6   1   65.33    3.33
  -4  -6   1   72.83    2.25
  -4  -6   1   69.82    2.22
   3   6  -1   75.88    3.44
   3   6  -1   75.88    3.44
   3   6  -1   74.63    2.39
   3   6  -1   74.63    2.39
   3   6  -1   70.38    2.22
   3   6  -1   75.23    3.15
   3   6  -1   70.39    2.27
   3   6  -1   75.23    3.15
   3   6  -1   69.17    2.22
   3   6  -1   69.17    2.22
   3   6  -1   72.44    2.15
   3   6  -1   71.97    3.38
  -3  -6   1   72.69    2.09
  -3  -6   1   75.31    2.11
  -3  -6   1   69.78    2.23
  -3  -6   1   68.67    3.09
  -3  -6   1   68.67    3.09
  -3  -6   1   72.69    2.09
   2   6  -1   32.58    1.48
   2   6  -1   32.38    1.57
   2   6  -1   35.12    2.05
   2   6  -1   31.82    1.36
   2   6  -1   35.12    2.05
   2   6  -1   32.38    1.57
   2   6  -1   32.93    1.39
   2   6  -1   31.82    1.36
   2   6  -1   35.83    1.50
   2   6  -1   35.83    1.50
  -2  -6   1   34.12    1.84
  -2  -6   1   34.12    1.84
  -2  -6   1   33.48    1.46
  -2  -6   1   34.42    1.50
  -2  -6   1   34.42    1.50
  -2  -6   1   33.09    1.36
   1   6  -1   41.78    1.64
   1   6  -1   39.18    1.91
   1   6  -1   42.36    1.42
   1   6  -1   40.27    1.80
   1   6  -1   42.36    1.42
   1   6  -1   42.68    1.58
   1   6  -1   42.68    1.58
   1   6  -1   40.27    1.80
  -1  -6   1   41.26    1.64
  -1  -6   1   43.31    1.89
  -1  -6   1   41.26    1.64
  -1  -6   1   43.31    1.89
  -1  -6   1   40.25    1.88
  -1  -6   1   39.37    1.57
   0   6  -1  159.43    4.01
   0   6  -1  137.75    4.89
   0   6  -1  160.18    4.43
   0   6  -1  155.32    4.15
   0   6  -1  159.43    4.01
   0   6  -1  160.18    4.43
   0  -6   1  153.36    4.29
   0  -6   1  155.03    4.03
   0  -6   1  160.23    4.46
   0  -6   1  155.03    4.03
   0  -6   1  157.71    4.06
   0  -6   1  153.36    4.29
  -1   6  -1    1.82    1.15
  -1   6  -1    1.71    1.55
  -1   6  -1   -0.42    1.31
  -1   6  -1   -0.27    1.36
  -1   6  -1    1.71    1.55
  -1   6  -1    0.83    1.13
  -1   6  -1    1.82    1.15
   1  -6   1   -0.72    1.24
   1  -6   1    2.94    1.20
   1  -6   1    1.07    1.18
   1  -6   1    0.70    1.34
   1  -6   1    2.94    1.20
   1  -6   1   -0.72    1.24
  -2   6  -1   78.71    3.42
  -2   6  -1   71.43    3.73
  -2   6  -1   76.84    3.34
  -2   6  -1   71.20    3.85
  -2   6  -1   66.02    3.37
  -2   6  -1   78.71    3.42
  -2   6  -1   76.84    3.34
   2  -6   1   80.38    3.74
   2  -6   1   72.92    3.84
   2  -6   1   80.38    3.74
   2  -6   1   76.10    3.64
   2  -6   1   78.63    3.44
   2  -6   1   78.63    3.44
  -3   6  -1   15.16    2.76
  -3   6  -1   15.16    2.76
  -3   6  -1    7.68    2.23
  -3   6  -1   12.89    2.25
  -3   6  -1   11.93    2.81
  -3   6  -1   11.87    2.69
  -3   6  -1   12.89    2.25
   3  -6   1    9.02    2.47
   3  -6   1   16.65    2.86
   3  -6   1   10.60    2.29
   3  -6   1   10.60    2.29
   3  -6   1   12.26    1.34
   3  -6   1   12.26    1.34
  -4   6  -1    5.83    2.59
  -4   6  -1    9.04    3.13
  -4   6  -1    8.99    2.99
  -4   6  -1    6.59    2.59
  -4   6  -1    8.56    2.79
  -4   6  -1    5.83    2.59
  -4   6  -1    6.59    2.59
   4  -6   1    5.36    3.30
   4  -6   1    8.44    2.76
   4  -6   1    3.46    3.34
   4  -6   1    5.36    3.30
   4  -6   1    3.51    2.63
   4  -6   1    8.44    2.76
   4  -6   1    7.08    1.98
   4  -6   1    7.08    1.98
   7   5  -1   15.32    3.22
   7   5  -1   24.72    2.96
   7   5  -1   15.32    3.22
   7   5  -1   16.67    2.75
   7   5  -1   23.45    3.47
   7   5  -1   23.06    3.34
   7   5  -1   24.72    2.96
   7   5  -1   16.41    3.80
   7   5  -1   16.41    3.80
  -7  -5   1   21.23    3.29
  -7  -5   1   21.47    4.05
  -7  -5   1   25.26    3.16
  -7  -5   1   21.47    4.05
  -7  -5   1   21.08    2.81
  -7  -5   1   21.08    2.81
  -7  -5   1   23.27    2.79
  -7  -5   1   23.25    2.78
  -7  -5   1   19.69    2.78
  -7  -5   1   25.26    3.16
   6   5  -1   39.04    3.18
   6   5  -1   45.27    3.43
   6   5  -1   46.34    2.90
   6   5  -1   47.24    3.02
   6   5  -1   38.96    3.08
   6   5  -1   45.27    3.43
   6   5  -1   50.28    4.41
   6   5  -1   50.28    4.41
   6   5  -1   46.34    2.90
  -6  -5   1   41.63    3.22
  -6  -5   1   39.17    2.79
  -6  -5   1   39.16    2.78
  -6  -5   1   46.43    4.22
  -6  -5   1   46.43    4.22
  -6  -5   1   41.63    3.22
  -6  -5   1   40.82    3.17
   5   5  -1   65.45    2.72
   5   5  -1   57.70    3.58
   5   5  -1   59.57    3.06
   5   5  -1   69.85    2.62
   5   5  -1   57.70    3.58
   5   5  -1   69.85    2.62
   5   5  -1   59.58    3.06
   5   5  -1   64.24    2.99
   5   5  -1   61.64    3.05
   5   5  -1   64.46    3.10
   5   5  -1   61.64    3.05
   5   5  -1   66.97    3.12
  -5  -5   1   63.23    3.56
  -5  -5   1   67.81    3.17
  -5  -5   1   68.39    2.73
  -5  -5   1   68.26    2.72
  -5  -5   1   63.23    3.56
  -5  -5   1   63.06    3.16
  -5  -5   1   63.06    3.16
  -5  -5   1   67.10    2.63
   4   5  -1   30.95    1.98
   4   5  -1   29.04    2.23
   4   5  -1   29.04    2.23
   4   5  -1   27.98    1.66
   4   5  -1   32.65    2.75
   4   5  -1   32.65    2.75
   4   5  -1   31.17    1.86
   4   5  -1   34.03    1.62
   4   5  -1   31.17    1.86
   4   5  -1   30.71    2.04
   4   5  -1   26.61    2.21
   4   5  -1   34.03    1.62
  -4  -5   1   33.24    2.57
  -4  -5   1   33.24    2.57
  -4  -5   1   31.59    1.58
  -4  -5   1   31.03    1.96
  -4  -5   1   31.03    1.96
  -4  -5   1   32.53    1.74
  -4  -5   1   31.59    1.58
  -4  -5   1   32.53    1.74
  -4  -5   1   27.74    1.92
   3   5  -1    5.88    0.90
   3   5  -1    3.92    1.46
   3   5  -1    6.33    0.83
   3   5  -1    8.52    1.59
   3   5  -1    6.06    0.73
   3   5  -1    6.06    0.73
   3   5  -1    3.83    0.83
   3   5  -1    3.83    0.83
   3   5  -1    5.88    0.90
   3   5  -1    8.52    1.59
   3   5  -1    3.92    1.46
   3   5  -1    6.37    0.87
   3   5  -1    4.58    1.47
   3   5  -1    6.48    0.77
  -3  -5   1    5.42    0.73
  -3  -5   1    6.68    1.39
  -3  -5   1    5.29    0.90
  -3  -5   1    5.28    0.72
  -3  -5   1    5.42    0.73
  -3  -5   1    6.68    1.39
   2   5  -1   15.80    1.42
   2   5  -1   16.14    1.12
   2   5  -1   16.28    1.00
   2   5  -1   17.97    0.98
   2   5  -1   14.96    0.98
   2   5  -1   17.97    0.98
   2   5  -1   16.14    1.12
   2   5  -1   15.80    1.42
  -2  -5   1   17.68    1.01
  -2  -5   1   16.66    1.52
  -2  -5   1   16.66    1.52
  -2  -5   1   17.98    0.99
  -2  -5   1   17.98    0.99
  -2  -5   1   17.57    0.99
   1   5  -1  158.63    3.67
   1   5  -1  158.63    3.67
   1   5  -1  158.07    3.63
   1   5  -1  158.07    3.63
   1   5  -1  151.03    3.67
   1   5  -1  158.89    3.79
   1   5  -1  158.89    3.79
   1   5  -1  154.11    3.83
  -1  -5   1  158.49    3.80
  -1  -5   1  153.76    3.63
  -1  -5   1  158.49    3.80
  -1  -5   1  153.76    3.63
  -1  -5   1  155.37    3.60
  -1  -5   1  156.65    3.65
  -1  -5   1  160.77    3.85
  -1  -5   1  155.37    3.60
   0   5  -1  229.84    5.28
   0   5  -1  225.16    5.59
   0   5  -1  228.43    5.48
   0   5  -1  226.94    5.35
   0   5  -1  228.43    5.48
   0   5  -1  229.84    5.28
   0  -5   1  228.56    5.28
   0  -5   1  218.45    5.24
   0  -5   1  230.91    5.49
   0  -5   1  230.91    5.49
   0  -5   1  218.45    5.24
   0  -5   1  231.52    5.57
  -1   5  -1   19.73    1.55
  -1   5  -1   19.73    1.55
  -1   5  -1   21.73    1.83
  -1   5  -1   22.93    1.79
  -1   5  -1   21.49    1.90
  -1   5  -1   20.86    1.76
  -1   5  -1   20.86    1.76
   1  -5   1   20.54    1.68
   1  -5   1   20.54    1.68
   1  -5   1   21.06    1.81
   1  -5   1   21.25    1.92
   1  -5   1   24.12    1.79
   1  -5   1   21.06    1.81
  -2   5  -1   10.04    1.62
  -2   5  -1   10.39    1.86
  -2   5  -1   10.63    1.66
  -2   5  -1    8.02    1.84
  -2   5  -1    8.13    1.75
  -2   5  -1   10.63    1.66
  -2   5  -1   10.39    1.86
   2  -5   1   10.16    1.49
   2  -5   1   11.16    1.68
   2  -5   1   10.16    1.49
   2  -5   1    8.40    1.62
   2  -5   1    8.16    0.86
   2  -5   1    7.96    2.19
   2  -5   1    8.40    1.62
   2  -5   1    8.16    0.86
  -3   5  -1   62.08    3.78
  -3   5  -1   68.80    3.85
  -3   5  -1   62.08    3.78
  -3   5  -1   68.62    3.99
  -3   5  -1   65.42    3.09
  -3   5  -1   65.42    3.09
   3  -5   1   70.84    4.00
   3  -5   1   66.28    3.47
   3  -5   1   68.20    3.76
   3  -5   1   66.28    3.47
  -4   5  -1   40.50    3.58
  -4   5  -1   34.90    3.65
  -4   5  -1   41.45    3.82
  -4   5  -1   40.50    3.58
  -4   5  -1   34.90    3.65
  -4   5  -1   38.91    3.52
  -4   5  -1   40.99    3.64
   4  -5   1   40.33    3.35
   4  -5   1   39.56    3.55
   4  -5   1   35.68    3.25
   4  -5   1   35.51    3.15
   4  -5   1   43.30    3.91
   4  -5   1   35.51    3.15
   4  -5   1   40.33    3.35
   4  -5   1   35.68    3.25
   7   4  -1    3.23    2.37
   7   4  -1   -0.74    2.88
   7   4  -1    5.78    2.89
   7   4  -1    4.28    2.57
   7   4  -1    6.58    2.77
   7   4  -1   -0.74    2.88
   7   4  -1    3.23    2.37
   7   4  -1    2.40    2.97
   7   4  -1    2.40    2.97
  -7  -4   1    2.94    2.81
  -7  -4   1    2.77    2.12
  -7  -4   1    0.89    3.19
  -7  -4   1    2.01    2.51
  -7  -4   1    2.94    2.81
  -7  -4   1    0.89    3.19
  -7  -4   1    2.01    2.51
  -7  -4   1    2.76    2.12
  -7  -4   1   -0.79    3.05
   6   4  -1   32.94    3.91
   6   4  -1   30.90    2.84
   6   4  -1   34.64    2.72
   6   4  -1   31.14    2.97
   6   4  -1   35.85    2.83
   6   4  -1   38.58    3.18
   6   4  -1   34.64    2.72
   6   4  -1   38.58    3.18
   6   4  -1   32.94    3.91
  -6  -4   1   33.45    2.84
  -6  -4   1   37.81    2.66
  -6  -4   1   37.81    2.67
  -6  -4   1   38.25    3.66
  -6  -4   1   38.25    3.66
  -6  -4   1   32.66    3.19
  -6  -4   1   33.45    2.84
  -6  -4   1   32.66    3.19
   5   4  -1  150.50    4.42
   5   4  -1  155.29    4.55
   5   4  -1  150.05    4.95
   5   4  -1  150.50    4.42
   5   4  -1  150.41    4.83
   5   4  -1  158.60    5.89
   5   4  -1  158.60    5.89
   5   4  -1  154.62    4.73
   5   4  -1  154.62    4.73
  -5  -4   1  160.41    4.51
  -5  -4   1  162.93    4.47
  -5  -4   1  154.53    4.74
  -5  -4   1  160.41    4.51
  -5  -4   1  162.93    4.47
  -5  -4   1  136.63    4.66
  -5  -4   1  154.53    4.74
   4   4  -1   16.60    1.34
   4   4  -1   15.42    1.47
   4   4  -1   19.04    1.45
   4   4  -1   15.10    1.58
   4   4  -1   19.47    1.71
   4   4  -1   17.52    1.57
   4   4  -1   19.47    1.71
   4   4  -1   17.52    1.57
   4   4  -1   16.60    1.34
   4   4  -1   15.57    2.10
   4   4  -1   15.57    2.10
   4   4  -1   15.51    1.53
  -4  -4   1   16.72    1.60
  -4  -4   1   14.94    1.55
  -4  -4   1   18.20    1.42
  -4  -4   1   16.72    1.60
  -4  -4   1   17.27    1.38
  -4  -4   1   17.18    1.38
  -4  -4   1   16.43    2.06
  -4  -4   1   16.43    2.06
   3   4  -1   96.40    2.80
   3   4  -1   98.38    3.20
   3   4  -1  106.18    3.61
   3   4  -1   96.40    2.80
   3   4  -1   99.99    2.68
   3   4  -1   99.12    2.85
   3   4  -1  102.17    2.60
   3   4  -1  102.17    2.60
   3   4  -1  100.00    3.19
   3   4  -1   99.21    2.91
   3   4  -1  106.18    3.61
   3   4  -1   98.37    3.20
  -3  -4   1  102.62    3.52
  -3  -4   1   96.88    2.86
  -3  -4   1   96.84    2.82
  -3  -4   1   96.84    2.82
  -3  -4   1  103.36    2.66
  -3  -4   1  102.62    3.52
  -3  -4   1  100.47    2.64
  -3  -4   1  100.47    2.64
  -3  -4   1  103.36    2.66
  -3  -4   1  104.66    2.65
   2   4  -1    4.81    0.62
   2   4  -1    3.24    0.92
   2   4  -1    4.00    0.51
   2   4  -1    3.24    0.92
   2   4  -1    4.00    0.51
   2   4  -1    3.49    0.54
   2   4  -1    4.81    0.62
   2   4  -1    4.36    0.59
   2   4  -1    3.91    0.57
   2   4  -1    3.91    0.57
  -2  -4   1    3.84    0.52
  -2  -4   1    3.62    0.58
  -2  -4   1    3.96    0.93
  -2  -4   1    3.68    0.53
  -2  -4   1    3.68    0.53
  -2  -4   1    3.96    0.93
   1   4  -1  420.70    8.58
   1   4  -1  403.37    8.43
   1   4  -1  408.23    8.50
   1   4  -1  409.08    8.38
   1   4  -1  411.22    8.47
   1   4  -1  409.08    8.38
   1   4  -1  420.70    8.58
   1   4  -1  411.22    8.47
  -1  -4   1  411.91    8.50
  -1  -4   1  410.03    8.47
  -1  -4   1  407.19    8.40
  -1  -4   1  407.19    8.40
  -1  -4   1  410.03    8.47
  -1  -4   1  404.64    8.53
  -1  -4   1  404.64    8.53
   0   4  -1  145.21    3.67
   0   4  -1  145.42    3.52
   0   4  -1  145.42    3.52
   0   4  -1  151.73    3.79
   0   4  -1  145.20    3.61
   0   4  -1  145.21    3.67
   0  -4   1  145.69    3.56
   0  -4   1  141.66    3.72
   0  -4   1  142.40    3.63
   0  -4   1  145.69    3.56
   0  -4   1  142.40    3.63
  -1   4  -1    0.52    0.75
  -1   4  -1    0.82    0.92
  -1   4  -1    0.06    0.82
  -1   4  -1    0.52    0.75
  -1   4  -1    0.02    0.88
  -1   4  -1    0.02    0.88
   1  -4   1    1.27    0.67
   1  -4   1    1.27    0.67
   1  -4   1    0.04    0.87
   1  -4   1    0.69    0.24
   1  -4   1    0.69    0.24
   1  -4   1    0.00    0.83
   1  -4   1    1.27    0.93
   1  -4   1    1.27    0.93
  -2   4  -1   20.37    1.94
  -2   4  -1   16.93    1.83
  -2   4  -1   16.93    1.83
  -2   4  -1   14.48    1.56
  -2   4  -1   19.61    1.87
  -2   4  -1   20.59    2.03
  -2   4  -1   14.48    1.56
   2  -4   1   16.15    1.60
   2  -4   1   17.68    1.81
   2  -4   1   16.15    1.60
   2  -4   1   16.53    1.30
   2  -4   1   16.69    1.56
   2  -4   1   16.69    1.56
   2  -4   1   15.77    1.82
   2  -4   1   16.53    1.30
  -3   4  -1  164.62    5.03
  -3   4  -1  163.71    5.53
  -3   4  -1  164.62    5.03
  -3   4  -1  165.05    5.46
  -3   4  -1  164.16    5.40
  -3   4  -1  165.05    5.46
  -3   4  -1  178.16    5.45
   3  -4   1  173.42    4.70
   3  -4   1  167.03    5.21
   3  -4   1  165.92    5.57
   3  -4   1  175.36    5.51
   3  -4   1  170.58    5.41
   3  -4   1  173.42    4.70
   3  -4   1  167.03    5.21
   3  -4   1  175.36    5.51
  -4   4  -1   77.54    3.97
  -4   4  -1   78.28    4.15
  -4   4  -1   73.41    4.34
  -4   4  -1   73.41    4.34
  -4   4  -1   71.05    4.27
  -4   4  -1   70.76    4.11
  -4   4  -1   77.54    3.97
   4  -4   1   74.45    4.21
   4  -4   1   80.70    3.74
   4  -4   1   80.70    3.74
   4  -4   1   72.46    4.10
   4  -4   1   78.98    4.40
   4  -4   1   78.98    4.40
   4  -4   1   72.46    4.10
   4  -4   1   78.42    4.47
  -5   4  -1    3.16    2.01
  -5   4  -1    5.37    3.00
  -5   4  -1    1.04    3.17
  -5   4  -1    3.16    2.01
  -5   4  -1    4.96    2.86
  -5   4  -1    1.04    3.03
  -5   4  -1    5.37    3.00
   5  -4   1    2.51    2.43
   5  -4   1    3.34    2.86
   5  -4   1    4.02    2.04
   5  -4   1   -2.78    2.95
   5  -4   1    4.02    2.04
   5  -4   1    2.94    2.65
   5  -4   1    2.94    2.65
   5  -4   1    2.51    2.43
   7   3  -1   14.16    2.93
   7   3  -1   15.57    3.63
   7   3  -1   21.27    3.34
   7   3  -1   15.57    3.63
   7   3  -1   17.26    3.13
   7   3  -1   21.31    3.27
   7   3  -1   14.16    2.93
   7   3  -1   17.53    3.27
   7   3  -1   21.31    3.27
  -7  -3   1   25.78    3.68
  -7  -3   1   17.18    3.22
  -7  -3   1   17.77    3.14
  -7  -3   1   20.68    3.13
  -7  -3   1   17.18    3.22
  -7  -3   1   21.82    2.90
  -7  -3   1   17.77    3.14
  -7  -3   1   14.08    2.94
  -7  -3   1   20.68    3.13
  -7  -3   1   13.94    2.79
  -7  -3   1   21.84    2.90
   6   3  -1   39.81    3.24
   6   3  -1   32.39    2.94
   6   3  -1   37.00    2.99
   6   3  -1   32.39    2.94
   6   3  -1   35.30    3.03
   6   3  -1   35.55    3.18
   6   3  -1   37.00    2.99
  -6  -3   1   23.40    2.91
  -6  -3   1   42.46    3.24
  -6  -3   1   36.15    3.22
  -6  -3   1   23.60    3.05
  -6  -3   1   36.41    3.27
  -6  -3   1   36.15    3.22
  -6  -3   1   40.83    3.27
  -6  -3   1   40.83    3.27
  -6  -3   1   42.52    3.25
   5   3  -1    8.42    2.33
   5   3  -1   10.39    1.72
   5   3  -1   11.97    1.96
   5   3  -1   10.09    1.59
   5   3  -1   11.79    1.86
   5   3  -1   10.09    1.59
   5   3  -1   11.91    1.87
   5   3  -1   11.79    1.86
   5   3  -1    8.42    2.33
  -5  -3   1    8.72    1.54
  -5  -3   1    9.06    1.82
  -5  -3   1    9.06    1.82
  -5  -3   1   11.47    2.07
  -5  -3   1    9.94    1.97
  -5  -3   1    8.72    1.54
  -5  -3   1   10.73    1.68
  -5  -3   1   10.76    1.68
  -5  -3   1    9.08    1.50
  -5  -3   1    9.17    1.58
  -5  -3   1   11.47    2.07
   4   3  -1   25.67    1.59
   4   3  -1   26.05    1.88
   4   3  -1   23.29    1.81
   4   3  -1   27.77    1.86
   4   3  -1   25.67    1.59
   4   3  -1   26.43    1.66
   4   3  -1   27.77    1.86
   4   3  -1   27.07    2.51
   4   3  -1   23.40    1.75
   4   3  -1   23.93    1.56
   4   3  -1   27.07    2.51
   4   3  -1   26.43    1.66
  -4  -3   1   23.15    2.23
  -4  -3   1   24.28    2.07
  -4  -3   1   26.10    1.81
  -4  -3   1   25.92    1.82
  -4  -3   1   29.60    1.84
  -4  -3   1   23.15    2.23
  -4  -3   1   24.28    2.07
  -4  -3   1   29.27    1.75
  -4  -3   1   25.92    1.81
  -4  -3   1   26.10    1.81
   3   3  -1  146.47    3.70
   3   3  -1  132.31    3.86
   3   3  -1  138.51    3.68
   3   3  -1  141.04    3.69
   3   3  -1  141.04    3.69
   3   3  -1  141.12    4.34
   3   3  -1  143.52    3.79
   3   3  -1  139.21    3.46
   3   3  -1  143.94    3.72
   3   3  -1  139.21    3.46
   3   3  -1  141.12    4.34
   3   3  -1  146.47    3.70
  -3  -3   1  144.56    3.54
  -3  -3   1  137.82    3.71
  -3  -3   1  139.17    3.47
  -3  -3   1  143.52    4.33
  -3  -3   1  143.52    4.33
  -3  -3   1  137.55    3.72
  -3  -3   1  137.82    3.71
  -3  -3   1  139.17    3.47
  -3  -3   1  143.48    3.51
  -3  -3   1  144.56    3.54
   2   3  -1  286.81    6.05
   2   3  -1  285.94    5.94
   2   3  -1  284.70    6.62
   2   3  -1  284.70    6.62
   2   3  -1  281.27    5.93
   2   3  -1  286.81    6.05
   2   3  -1  285.94    5.94
   2   3  -1  281.29    5.93
   2   3  -1  280.80    6.08
   2   3  -1  285.80    5.99
   2   3  -1  278.11    6.03
  -2  -3   1  281.74    5.87
  -2  -3   1  282.09    6.03
  -2  -3   1  282.09    6.03
  -2  -3   1  281.78    5.88
  -2  -3   1  288.64    5.95
  -2  -3   1  288.64    5.95
  -2  -3   1  276.10    6.06
  -2  -3   1  279.88    6.59
  -2  -3   1  285.59    5.97
  -2  -3   1  279.88    6.59
   1   3  -1  102.55    2.35
   1   3  -1  103.05    2.39
   1   3  -1   97.71    2.58
   1   3  -1   97.71    2.58
   1   3  -1  102.55    2.35
   1   3  -1  100.22    2.33
   1   3  -1  101.19    2.37
   1   3  -1  100.22    2.33
  -1  -3   1   98.81    2.37
  -1  -3   1  101.02    2.35
  -1  -3   1  102.42    2.34
  -1  -3   1  102.42    2.34
  -1  -3   1  103.14    2.36
  -1  -3   1   93.08    2.55
  -1  -3   1  103.14    2.36
  -1  -3   1   93.08    2.55
   0   3  -1  224.31    5.04
   0   3  -1  224.57    5.08
   0   3  -1  224.31    5.04
   0   3  -1  225.07    4.95
   0   3  -1  230.48    5.02
   0   3  -1  225.07    4.95
   0  -3   1  229.35    5.03
   0  -3   1  229.35    5.03
   0  -3   1  227.05    4.97
   0  -3   1  225.20    5.08
   0  -3   1  227.05    4.97
  -1   3  -1   16.26    1.31
  -1   3  -1   17.80    1.24
  -1   3  -1   16.26    1.31
  -1   3  -1   17.80    1.24
  -1   3  -1   17.33    1.39
  -1   3  -1   16.50    1.29
   1  -3   1   20.24    1.18
   1  -3   1   20.24    1.18
   1  -3   1   18.33    1.26
   1  -3   1   17.52    0.79
   1  -3   1   18.33    1.26
   1  -3   1   18.62    1.30
   1  -3   1   17.52    0.79
   1  -3   1   16.08    1.35
  -2   3  -1   65.59    2.78
  -2   3  -1   65.48    2.86
  -2   3  -1   69.32    2.68
  -2   3  -1   71.65    2.83
  -2   3  -1   69.32    2.68
  -2   3  -1   68.10    2.81
  -2   3  -1   71.65    2.83
   2  -3   1   70.22    2.30
   2  -3   1   73.29    2.81
   2  -3   1   73.35    2.76
   2  -3   1   70.22    2.30
   2  -3   1   67.26    2.74
   2  -3   1   66.44    2.85
   2  -3   1   73.35    2.76
   2  -3   1   73.29    2.81
  -3   3  -1   77.81    3.25
  -3   3  -1   77.77    3.59
  -3   3  -1   69.22    3.37
  -3   3  -1   79.17    2.70
  -3   3  -1   78.05    3.48
  -3   3  -1   69.22    3.37
  -3   3  -1   79.17    2.70
  -3   3  -1   77.81    3.25
  -3   3  -1   73.22    3.45
   3  -3   1   81.06    3.58
   3  -3   1   75.45    3.06
   3  -3   1   77.62    3.01
   3  -3   1   75.45    3.06
   3  -3   1   77.62    3.01
   3  -3   1   79.81    3.20
   3  -3   1   78.58    3.44
   3  -3   1   79.81    3.20
  -4   3  -1   42.26    3.31
  -4   3  -1   40.10    3.39
  -4   3  -1   33.77    3.12
  -4   3  -1   42.39    3.45
  -4   3  -1   37.82    3.26
  -4   3  -1   35.51    2.42
  -4   3  -1   40.10    3.39
  -4   3  -1   35.51    2.42
  -4   3  -1   37.82    3.26
   4  -3   1   36.76    3.27
   4  -3   1   40.00    3.02
   4  -3   1   40.00    3.02
   4  -3   1   32.06    2.66
   4  -3   1   32.06    2.66
   4  -3   1   37.91    2.62
   4  -3   1   37.91    2.62
   4  -3   1   35.15    3.12
  -5   3  -1   34.75    2.97
  -5   3  -1   28.07    3.47
  -5   3  -1   34.75    2.97
  -5   3  -1   26.72    3.19
  -5   3  -1   28.02    3.33
  -5   3  -1   26.72    3.19
  -5   3  -1   35.52    3.19
  -5   3  -1   28.27    3.01
  -5   3  -1   35.52    3.19
   5  -3   1   25.03    3.52
   5  -3   1   35.75    3.20
   5  -3   1   30.09    3.32
   5  -3   1   29.33    3.12
   5  -3   1   32.34    3.49
   5  -3   1   32.34    3.49
   5  -3   1   29.33    3.12
   5  -3   1   30.09    3.32
   7   2  -1    9.06    3.04
   7   2  -1    5.95    2.95
   7   2  -1    4.52    4.27
   7   2  -1    6.31    2.94
   7   2  -1    9.95    3.08
   7   2  -1    4.94    3.08
   7   2  -1    4.52    4.27
   7   2  -1    9.95    3.08
   7   2  -1    6.31    2.94
  -7  -2   1    5.17    2.86
  -7  -2   1    5.07    3.35
  -7  -2   1    5.17    2.86
  -7  -2   1    7.39    2.65
  -7  -2   1   16.52    3.88
  -7  -2   1   16.52    3.88
  -7  -2   1   13.83    3.87
  -7  -2   1    6.66    2.88
  -7  -2   1    6.61    2.74
  -7  -2   1   13.83    3.87
  -7  -2   1    7.38    2.64
   6   2  -1   97.74    4.86
   6   2  -1  101.40    4.34
   6   2  -1  101.40    4.34
   6   2  -1  103.39    4.56
   6   2  -1   92.76    4.50
   6   2  -1  103.39    4.56
   6   2  -1   98.59    4.72
  -6  -2   1  104.33    4.85
  -6  -2   1   92.04    4.40
  -6  -2   1   96.68    4.44
  -6  -2   1   91.08    5.00
  -6  -2   1   99.00    4.54
  -6  -2   1   91.08    5.00
  -6  -2   1   99.02    4.53
  -6  -2   1   96.37    4.28
  -6  -2   1   92.04    4.40
   5   2  -1    2.34    1.45
   5   2  -1    4.14    1.66
   5   2  -1    4.14    1.66
   5   2  -1    4.84    2.24
   5   2  -1    3.86    1.67
   5   2  -1    4.09    1.74
   5   2  -1    2.34    1.45
   5   2  -1    4.68    1.62
   5   2  -1    4.84    2.24
  -5  -2   1    1.17    1.63
  -5  -2   1   -0.43    1.83
  -5  -2   1    2.67    1.31
  -5  -2   1   -0.43    1.83
  -5  -2   1    1.17    1.63
  -5  -2   1    2.68    1.31
  -5  -2   1    6.89    1.54
  -5  -2   1    2.77    1.73
  -5  -2   1    2.70    1.39
  -5  -2   1    2.72    1.45
  -5  -2   1    6.89    1.54
   4   2  -1   30.71    2.65
   4   2  -1   33.42    2.00
   4   2  -1   35.76    2.23
   4   2  -1   33.11    2.14
   4   2  -1   33.42    2.00
   4   2  -1   31.83    2.01
   4   2  -1   31.83    2.01
   4   2  -1   30.71    2.65
   4   2  -1   33.00    2.06
  -4  -2   1   34.48    2.17
  -4  -2   1   34.48    2.17
  -4  -2   1   36.02    2.14
  -4  -2   1   34.06    2.31
  -4  -2   1   36.02    2.14
  -4  -2   1   36.74    2.08
  -4  -2   1   36.27    1.98
  -4  -2   1   36.27    1.98
  -4  -2   1   35.59    2.53
  -4  -2   1   36.62    2.00
  -4  -2   1   35.59    2.53
   3   2  -1  184.34    5.10
   3   2  -1  183.25    4.65
   3   2  -1  183.25    4.65
   3   2  -1  183.41    4.22
   3   2  -1  184.34    5.10
   3   2  -1  194.27    4.55
   3   2  -1  195.03    4.65
   3   2  -1  183.40    4.22
   3   2  -1  183.27    4.66
   3   2  -1  181.59    4.21
   3   2  -1  194.27    4.55
   3   2  -1  182.14    4.72
  -3  -2   1  184.33    4.51
  -3  -2   1  179.41    4.85
  -3  -2   1  184.33    4.51
  -3  -2   1  189.06    4.49
  -3  -2   1  184.72    4.67
  -3  -2   1  187.99    4.59
  -3  -2   1  189.50    5.10
  -3  -2   1  188.04    4.52
  -3  -2   1  189.50    5.10
  -3  -2   1  189.03    4.49
  -3  -2   1  184.72    4.67
   2   2  -1  167.55    3.82
   2   2  -1  161.69    3.91
   2   2  -1  169.70    3.93
   2   2  -1  167.55    3.82
   2   2  -1  169.93    3.89
   2   2  -1  169.70    3.93
   2   2  -1  173.52    4.41
   2   2  -1  160.86    3.95
   2   2  -1  173.52    4.41
  -2  -2   1  165.75    3.74
  -2  -2   1  176.49    4.42
  -2  -2   1  176.36    3.95
  -2  -2   1  171.17    3.86
  -2  -2   1  165.76    3.74
  -2  -2   1  176.49    4.42
  -2  -2   1  176.36    3.95
  -2  -2   1  171.17    3.86
   1   2  -1   82.84    2.21
   1   2  -1   84.39    1.92
   1   2  -1   82.11    1.92
   1   2  -1   82.84    2.21
   1   2  -1   82.49    1.79
   1   2  -1   82.11    1.92
   1   2  -1   82.49    1.79
   1   2  -1   81.74    1.95
   1   2  -1   84.39    1.92
   1   2  -1   77.75    2.07
  -1  -2   1   83.31    1.94
  -1  -2   1   80.60    2.20
  -1  -2   1   82.22    1.90
  -1  -2   1   80.60    2.20
  -1  -2   1   80.23    1.92
  -1  -2   1   82.22    1.90
  -1  -2   1   80.23    1.92
   0   2  -1   49.57    1.43
   0   2  -1   47.95    1.39
   0   2  -1   48.63    1.40
   0   2  -1   50.77    1.37
   0   2  -1   48.63    1.40
   0   2  -1   50.77    1.37
   0  -2   1   47.25    1.18
   0  -2   1   48.96    1.43
   0  -2   1   47.25    1.18
   0  -2   1   49.53    1.40
   0  -2   1   46.65    1.35
   0  -2   1   46.65    1.35
   0  -2   1   49.53    1.40
  -1   2  -1  426.36    9.09
  -1   2  -1  426.04    9.09
  -1   2  -1  426.04    9.09
  -1   2  -1  425.38    9.14
  -1   2  -1  423.95    9.01
  -1   2  -1  423.95    9.01
   1  -2   1  431.47    9.15
   1  -2   1  432.12    9.03
   1  -2   1  427.12    9.07
   1  -2   1  415.22    8.65
   1  -2   1  415.22    8.65
   1  -2   1  427.12    9.07
   1  -2   1  432.55    9.08
   1  -2   1  432.12    9.03
  -2   2  -1   84.18    2.45
  -2   2  -1   83.59    2.83
  -2   2  -1   87.79    2.94
  -2   2  -1   82.92    2.98
  -2   2  -1   87.79    2.94
  -2   2  -1   90.95    2.89
  -2   2  -1   83.59    2.83
  -2   2  -1   84.18    2.45
  -2   2  -1   83.36    2.92
   2  -2   1   88.42    2.82
   2  -2   1   90.88    3.04
   2  -2   1   88.42    2.82
   2  -2   1   83.67    2.84
   2  -2   1   83.67    2.84
   2  -2   1   89.67    2.61
   2  -2   1   89.67    2.61
   2  -2   1   88.08    2.95
  -3   2  -1  269.68    6.83
  -3   2  -1  255.43    6.76
  -3   2  -1  255.43    6.76
  -3   2  -1  279.91    6.54
  -3   2  -1  282.41    7.03
  -3   2  -1  261.30    7.00
  -3   2  -1  262.21    6.89
  -3   2  -1  269.68    6.83
  -3   2  -1  279.91    6.54
   3  -2   1  265.23    6.80
   3  -2   1  265.23    6.80
   3  -2   1  269.76    6.85
   3  -2   1  262.64    6.83
   3  -2   1  272.00    6.62
   3  -2   1  269.76    6.85
   3  -2   1  272.00    6.62
   3  -2   1  261.40    7.01
  -4   2  -1    9.21    1.64
  -4   2  -1   11.48    1.82
  -4   2  -1    9.21    1.64
  -4   2  -1    7.99    2.01
  -4   2  -1   10.32    1.97
  -4   2  -1   10.32    1.97
  -4   2  -1    7.90    1.91
   4  -2   1   11.65    1.96
   4  -2   1    9.10    1.92
   4  -2   1    9.04    2.01
   4  -2   1   13.02    2.12
   4  -2   1   13.02    2.12
   4  -2   1    9.10    1.92
   4  -2   1   13.13    2.01
   4  -2   1   11.65    1.96
  -5   2  -1   23.52    2.62
  -5   2  -1   23.52    2.62
  -5   2  -1   26.57    3.03
  -5   2  -1   31.96    2.67
  -5   2  -1   22.19    2.81
  -5   2  -1   31.96    2.67
  -5   2  -1   22.48    2.55
  -5   2  -1   26.62    3.15
  -5   2  -1   22.48    2.55
   5  -2   1   22.94    2.60
   5  -2   1   20.76    2.93
   5  -2   1   21.66    2.85
   5  -2   1   21.66    2.85
   5  -2   1   22.12    3.03
   5  -2   1   26.03    2.57
   5  -2   1   22.94    2.60
   5  -2   1   26.03    2.57
  -6   2  -1   60.69    5.36
  -6   2  -1   67.17    4.00
  -6   2  -1   66.75    5.11
  -6   2  -1   50.16    4.38
  -6   2  -1   67.17    4.00
  -6   2  -1   67.66    4.30
  -6   2  -1   50.59    4.26
  -6   2  -1   67.66    4.30
  -6   2  -1   60.69    5.36
   6  -2   1   67.73    5.31
   6  -2   1   66.29    4.98
   6  -2   1   56.00    4.64
   6  -2   1   65.68    5.40
   6  -2   1   67.73    5.31
   6  -2   1   65.18    5.32
   6  -2   1   65.18    5.32
   6  -2   1   56.00    4.64
   7   1  -1   12.09    3.44
   7   1  -1   11.89    3.56
   7   1  -1   13.06    4.42
   7   1  -1   24.68    3.76
   7   1  -1   21.90    3.57
   7   1  -1   13.06    4.42
   7   1  -1   20.77    3.75
   7   1  -1   21.90    3.57
   7   1  -1   24.68    3.76
  -7  -1   1   13.29    3.27
  -7  -1   1   17.25    3.20
  -7  -1   1   23.62    3.55
  -7  -1   1   13.29    3.27
  -7  -1   1   17.23    3.20
  -7  -1   1   16.68    3.79
  -7  -1   1   14.92    3.52
  -7  -1   1   13.64    3.14
  -7  -1   1   23.75    3.71
  -7  -1   1   14.92    3.52
  -7  -1   1   13.64    3.14
   6   1  -1   56.12    3.94
   6   1  -1   51.51    3.78
   6   1  -1   51.51    3.78
   6   1  -1   47.97    4.02
   6   1  -1   55.69    4.05
  -6  -1   1   54.72    4.02
  -6  -1   1   46.74    4.19
  -6  -1   1   50.57    3.85
  -6  -1   1   54.98    3.89
  -6  -1   1   52.75    4.21
  -6  -1   1   50.57    3.85
  -6  -1   1   46.74    4.19
   5   1  -1   61.92    3.25
   5   1  -1   64.22    3.53
   5   1  -1   59.16    3.92
   5   1  -1   59.10    3.40
   5   1  -1   52.70    3.28
   5   1  -1   52.70    3.28
   5   1  -1   64.45    3.40
   5   1  -1   59.16    3.92
   5   1  -1   61.92    3.25
  -5  -1   1   62.95    3.42
  -5  -1   1   63.91    3.66
  -5  -1   1   60.10    2.83
  -5  -1   1   60.10    2.83
  -5  -1   1   63.68    3.82
  -5  -1   1   70.33    3.35
  -5  -1   1   62.95    3.42
  -5  -1   1   70.16    3.47
  -5  -1   1   63.68    3.82
   4   1  -1   28.60    2.05
   4   1  -1   27.81    2.20
   4   1  -1   23.49    2.05
   4   1  -1   27.74    2.28
   4   1  -1   25.41    2.04
   4   1  -1   28.60    2.05
   4   1  -1   23.49    2.05
   4   1  -1   23.73    2.02
   4   1  -1   25.41    2.04
  -4  -1   1   22.85    1.93
  -4  -1   1   25.67    2.35
  -4  -1   1   27.08    1.99
  -4  -1   1   28.84    2.23
  -4  -1   1   22.85    1.93
  -4  -1   1   27.92    2.01
  -4  -1   1   27.08    1.99
  -4  -1   1   28.84    2.23
  -4  -1   1   27.90    2.09
   3   1  -1  240.05    5.91
   3   1  -1  253.60    5.86
   3   1  -1  241.71    6.01
   3   1  -1  247.89    5.93
   3   1  -1  240.05    5.91
   3   1  -1  242.45    5.92
   3   1  -1  253.60    5.86
   3   1  -1  244.92    6.32
   3   1  -1  244.92    6.32
  -3  -1   1  238.95    6.26
  -3  -1   1  241.79    5.82
  -3  -1   1  249.55    5.97
  -3  -1   1  230.39    5.97
  -3  -1   1  249.04    5.92
  -3  -1   1  249.76    5.84
  -3  -1   1  238.95    6.26
  -3  -1   1  241.79    5.82
  -3  -1   1  249.55    5.97
   2   1  -1  128.86    3.13
   2   1  -1  124.27    2.77
   2   1  -1  125.59    2.77
   2   1  -1  120.87    3.44
   2   1  -1  131.15    3.30
   2   1  -1  120.87    3.44
   2   1  -1  131.65    3.25
   2   1  -1  127.26    3.21
   2   1  -1  128.86    3.13
   2   1  -1  127.78    3.23
   2   1  -1  124.26    2.78
   2   1  -1  127.78    3.23
  -2  -1   1  131.61    3.18
  -2  -1   1  129.96    3.20
  -2  -1   1  129.96    3.20
  -2  -1   1  130.46    3.16
  -2  -1   1  130.99    3.22
  -2  -1   1  125.06    3.54
  -2  -1   1  126.84    3.29
  -2  -1   1  125.06    3.54
  -2  -1   1  131.61    3.18
   1   1  -1   32.66    0.99
   1   1  -1   32.17    0.96
   1   1  -1   32.81    1.00
   1   1  -1   32.17    0.96
   1   1  -1   33.41    1.23
   1   1  -1   32.81    1.00
   1   1  -1   33.41    1.23
  -1  -1   1   34.10    1.01
  -1  -1   1   34.10    1.01
  -1  -1   1   34.82    1.26
  -1  -1   1   33.42    0.99
  -1  -1   1   34.82    1.26
   0   1  -1  201.42    4.20
   0   1  -1  200.64    4.21
   0   1  -1  204.01    4.23
   0   1  -1  202.31    4.23
   0   1  -1  201.42    4.20
   0   1  -1  200.64    4.21
   0  -1   1  202.33    4.24
   0  -1   1  206.35    4.22
   0  -1   1  204.72    4.20
   0  -1   1  206.35    4.22
   0  -1   1  204.72    4.20
  -1   1  -1   15.22    0.82
  -1   1  -1   14.17    0.87
  -1   1  -1   14.15    0.92
  -1   1  -1   14.17    0.87
  -1   1  -1   15.36    0.93
  -1   1  -1   15.22    0.82
   1  -1   1   15.12    0.79
   1  -1   1   15.95    0.96
   1  -1   1   15.30    0.82
   1  -1   1   15.44    0.90
   1  -1   1   15.44    0.90
   1  -1   1   15.09    0.71
   1  -1   1   15.12    0.79
   1  -1   1   15.09    0.71
  -2   1  -1  111.65    3.13
  -2   1  -1  111.65    3.13
  -2   1  -1  110.55    3.16
  -2   1  -1  109.53    3.26
  -2   1  -1  110.71    3.31
  -2   1  -1  111.59    3.25
  -2   1  -1  110.55    3.16
  -2   1  -1  112.85    3.03
  -2   1  -1  112.85    3.03
   2  -1   1  115.78    3.19
   2  -1   1  116.48    3.13
   2  -1   1  110.89    3.13
   2  -1   1  107.40    3.28
   2  -1   1  110.89    3.13
   2  -1   1  115.78    3.19
   2  -1   1  116.48    3.13
   2  -1   1  116.27    3.30
  -3   1  -1  188.72    5.13
  -3   1  -1  180.13    5.02
  -3   1  -1  192.20    4.94
  -3   1  -1  192.20    4.94
  -3   1  -1  180.13    5.02
  -3   1  -1  191.42    5.23
  -3   1  -1  189.03    5.03
  -3   1  -1  187.39    5.11
  -3   1  -1  187.39    5.11
   3  -1   1  184.49    5.06
   3  -1   1  194.01    5.28
   3  -1   1  177.69    4.93
   3  -1   1  192.51    5.20
   3  -1   1  181.26    5.08
   3  -1   1  184.49    5.06
   3  -1   1  177.69    4.93
   3  -1   1  181.26    5.08
  -4   1  -1  118.57    4.42
  -4   1  -1  125.04    4.35
  -4   1  -1  125.04    4.35
  -4   1  -1  120.28    4.05
  -4   1  -1  115.14    4.07
  -4   1  -1  119.37    4.41
  -4   1  -1  118.83    4.27
  -4   1  -1  120.28    4.05
  -4   1  -1  115.14    4.07
   4  -1   1  124.72    4.36
   4  -1   1  128.87    4.48
   4  -1   1  113.88    3.96
   4  -1   1  121.35    4.26
   4  -1   1  124.72    4.36
   4  -1   1  122.34    4.42
   4  -1   1  113.88    3.96
   4  -1   1  121.35    4.26
  -5   1  -1   15.14    2.11
  -5   1  -1   12.75    2.32
  -5   1  -1   10.83    2.43
  -5   1  -1   14.75    2.24
  -5   1  -1   13.97    2.08
  -5   1  -1   12.75    2.32
  -5   1  -1   13.97    2.08
  -5   1  -1   15.19    2.20
  -5   1  -1   14.75    2.24
   5  -1   1   16.99    2.52
   5  -1   1   16.27    2.16
   5  -1   1   12.58    2.55
   5  -1   1   16.99    2.52
   5  -1   1   13.68    2.16
   5  -1   1   16.62    2.64
   5  -1   1   16.27    2.16
   5  -1   1   16.62    2.64
  -6   1  -1    7.46    2.88
  -6   1  -1    9.91    2.65
  -6   1  -1    5.23    3.05
  -6   1  -1    3.75    2.59
  -6   1  -1    6.01    2.93
  -6   1  -1    6.01    3.04
  -6   1  -1    5.23    3.05
  -6   1  -1    3.75    2.59
  -6   1  -1    9.91    2.65
   6  -1   1    9.14    2.22
   6  -1   1    4.51    2.78
   6  -1   1    9.14    2.22
   6  -1   1    7.00    2.36
   6  -1   1    4.51    2.78
   6  -1   1   11.25    3.32
   6  -1   1   11.25    3.32
   6  -1   1    6.47    2.54
   6   0  -1   40.53    3.76
   6   0  -1   53.19    3.94
   6   0  -1   42.71    3.25
   6   0  -1   40.65    3.62
   6   0  -1   42.71    3.25
   6   0  -1   46.14    3.47
   6   0  -1   53.19    3.94
  -6   0   1   44.44    4.08
  -6   0   1   46.45    4.06
  -6   0   1   49.24    4.14
  -6   0   1   42.90    4.39
  -6   0   1   44.44    4.08
  -6   0   1   42.90    4.39
  -6   0   1   49.30    4.31
   5   0  -1   81.36    4.28
   5   0  -1   82.62    4.02
   5   0  -1   88.27    3.85
   5   0  -1   86.96    4.09
   5   0  -1   70.47    4.49
   5   0  -1   88.27    3.85
   5   0  -1   86.60    4.21
   5   0  -1   70.47    4.49
   5   0  -1   81.36    4.28
  -5   0   1   82.26    3.92
  -5   0   1   79.07    3.76
  -5   0   1   79.07    3.76
  -5   0   1   82.83    4.23
  -5   0   1   77.49    3.94
  -5   0   1   79.38    4.15
  -5   0   1   82.83    4.23
  -5   0   1   77.65    3.82
  -5   0   1   82.26    3.92
   4   0  -1   27.35    2.21
   4   0  -1   27.84    2.18
   4   0  -1   25.14    2.19
   4   0  -1   27.84    2.18
   4   0  -1   28.84    2.42
   4   0  -1   27.35    2.21
   4   0  -1   29.30    2.35
   4   0  -1   25.14    2.19
   4   0  -1   28.49    2.50
  -4   0   1   27.75    2.33
  -4   0   1   27.75    2.33
  -4   0   1   26.39    2.20
  -4   0   1   26.39    2.20
  -4   0   1   29.14    2.38
  -4   0   1   28.02    2.29
  -4   0   1   25.38    2.36
  -4   0   1   29.14    2.38
  -4   0   1   28.01    2.37
   3   0  -1    0.93    1.05
   3   0  -1    1.42    1.00
   3   0  -1    0.93    1.05
   3   0  -1    0.28    0.92
   3   0  -1    1.28    0.91
   3   0  -1    1.24    1.04
   3   0  -1    1.28    0.91
   3   0  -1    1.42    1.00
   3   0  -1    1.23    0.99
  -3   0   1    0.20    0.94
  -3   0   1    0.67    0.82
  -3   0   1    0.76    1.02
  -3   0   1    0.67    0.79
  -3   0   1    0.12    0.60
  -3   0   1    0.20    0.94
  -3   0   1    1.64    0.86
  -3   0   1    0.12    0.60
  -3   0   1    1.64    0.86
   2   0  -1  664.30   13.76
   2   0  -1  660.27   13.68
   2   0  -1  682.73   13.90
   2   0  -1  667.72   13.69
   2   0  -1  650.09   13.69
   2   0  -1  682.73   13.90
   2   0  -1  660.27   13.68
   2   0  -1  640.87   13.60
   2   0  -1  640.87   13.60
  -2   0   1  659.43   13.85
  -2   0   1  659.89   13.74
  -2   0   1  655.65   13.62
  -2   0   1  655.65   13.62
  -2   0   1  659.43   13.85
  -2   0   1  665.64   13.68
  -2   0   1  665.64   13.68
  -2   0   1  669.05   13.64
  -2   0   1  666.99   13.71
   1   0  -1  192.17    4.17
   1   0  -1  195.37    4.20
   1   0  -1  187.69    4.33
   1   0  -1  195.37    4.20
   1   0  -1  190.92    4.18
   1   0  -1  191.48    4.22
   1   0  -1  196.07    4.22
   1   0  -1  187.69    4.33
   1   0  -1  192.17    4.17
  -1   0   1  193.82    4.33
  -1   0   1  194.64    4.21
  -1   0   1  194.64    4.21
  -1   0   1  190.46    4.16
  -1   0   1  197.78    4.23
  -1   0   1  191.45    4.24
  -1   0   1  190.46    4.16
  -1   0   1  197.75    4.19
  -1   0   1  193.82    4.33
  -1   0  -1   33.72    1.13
  -1   0  -1   32.80    1.08
  -1   0  -1   33.09    1.12
  -1   0  -1   33.18    1.06
  -1   0  -1   32.80    1.08
  -1   0  -1   33.18    1.06
   1   0   1   34.51    1.09
   1   0   1   32.97    1.10
   1   0   1   33.59    1.11
   1   0   1   34.51    1.09
   1   0   1   32.97    1.10
   1   0   1   32.47    1.09
   1   0   1   33.59    1.13
   1   0   1   32.47    1.09
  -2   0  -1    4.80    0.76
  -2   0  -1    4.61    0.71
  -2   0  -1    4.80    0.76
  -2   0  -1    5.17    0.76
  -2   0  -1    5.19    0.80
  -2   0  -1    5.26    0.70
  -2   0  -1    5.64    0.72
  -2   0  -1    5.26    0.70
  -2   0  -1    5.64    0.72
   2   0   1    6.12    0.85
   2   0   1    6.12    0.85
   2   0   1    4.63    0.79
   2   0   1    5.28    0.84
   2   0   1    5.28    0.84
   2   0   1    5.40    0.82
   2   0   1    5.40    0.82
   2   0   1    4.50    0.82
  -3   0  -1  211.23    5.34
  -3   0  -1  200.32    5.17
  -3   0  -1  196.89    5.25
  -3   0  -1  209.60    5.38
  -3   0  -1  211.23    5.34
  -3   0  -1  206.65    5.29
  -3   0  -1  210.23    5.29
  -3   0  -1  200.32    5.17
  -3   0  -1  206.65    5.29
   3   0   1  212.45    5.44
   3   0   1  198.82    5.33
   3   0   1  199.06    5.23
   3   0   1  212.45    5.44
   3   0   1  207.29    5.40
   3   0   1  203.59    5.28
   3   0   1  199.06    5.23
   3   0   1  203.59    5.28
  -4   0  -1  205.46    5.86
  -4   0  -1  204.04    5.78
  -4   0  -1  204.06    5.72
  -4   0  -1  201.38    5.70
  -4   0  -1  204.04    5.78
  -4   0  -1  212.74    5.88
  -4   0  -1  213.16    5.76
  -4   0  -1  201.38    5.70
  -4   0  -1  204.06    5.72
   4   0   1  201.66    5.79
   4   0   1  205.34    5.94
   4   0   1  204.48    5.86
   4   0   1  199.27    5.70
   4   0   1  205.34    5.94
   4   0   1  199.27    5.70
   4   0   1  200.62    5.63
   4   0   1  200.62    5.63
  -5   0  -1    6.35    1.93
  -5   0  -1   14.14    2.27
  -5   0  -1    9.46    1.96
  -5   0  -1    9.70    2.02
  -5   0  -1    6.13    2.12
  -5   0  -1    9.76    2.11
  -5   0  -1   14.14    2.27
  -5   0  -1    9.46    1.96
  -5   0  -1    6.35    1.93
   5   0   1    8.40    2.18
   5   0   1    9.35    1.93
   5   0   1    9.50    2.01
   5   0   1    9.50    2.01
   5   0   1    9.35    1.93
   5   0   1   11.89    2.29
  -6   0  -1   52.71    4.13
  -6   0  -1   59.00    2.25
  -6   0  -1   51.70    4.28
  -6   0  -1   59.22    2.27
  -6   0  -1   58.99    2.25
  -6   0  -1   63.46    4.48
  -6   0  -1   52.71    4.13
  -6   0  -1   51.38    4.41
   6   0   1   54.07    3.36
   6   0   1   56.82    4.86
   6   0   1   61.97    4.25
   6   0   1   50.29    3.49
   6   0   1   56.82    4.86
   6   0   1   54.07    3.36
   6   0   1   67.44    4.62
   6   0   1   61.97    4.25
   6  -1  -1   67.20    4.61
   6  -1  -1   67.20    4.61
   6  -1  -1   68.83    3.98
   6  -1  -1   68.83    3.98
   6  -1  -1   61.23    4.68
   6  -1  -1   67.63    4.04
   6  -1  -1   66.47    4.13
  -6   1   1   71.53    4.65
  -6   1   1   60.43    4.76
  -6   1   1   70.88    4.58
  -6   1   1   67.51    4.72
  -6   1   1   70.88    4.58
  -6   1   1   67.51    4.72
  -6   1   1   83.12    4.97
  -6   1   1   83.06    5.16
  -6   1   1   71.53    4.65
   5  -1  -1   41.45    3.51
   5  -1  -1   42.95    3.37
   5  -1  -1   42.95    3.37
   5  -1  -1   46.89    3.15
   5  -1  -1   41.45    3.51
   5  -1  -1   47.10    3.04
   5  -1  -1   39.27    3.29
   5  -1  -1   39.27    3.29
   5  -1  -1   46.25    3.63
  -5   1   1   42.46    3.42
  -5   1   1   39.44    2.93
  -5   1   1   46.41    3.68
  -5   1   1   39.35    2.82
  -5   1   1   41.71    3.45
  -5   1   1   38.21    2.76
  -5   1   1   38.21    2.76
  -5   1   1   41.71    3.45
  -5   1   1   42.46    3.42
   4  -1  -1    2.53    1.44
   4  -1  -1   -0.66    1.43
   4  -1  -1    2.93    1.18
   4  -1  -1    0.69    1.55
   4  -1  -1    2.93    1.18
   4  -1  -1    0.69    1.55
   4  -1  -1    1.75    1.54
   4  -1  -1    2.53    1.44
   4  -1  -1    1.80    1.47
  -4   1   1    3.88    1.61
  -4   1   1    1.20    1.41
  -4   1   1    3.33    1.42
  -4   1   1    3.00    1.64
  -4   1   1    3.33    1.42
  -4   1   1    3.00    1.64
  -4   1   1    4.00    1.65
  -4   1   1    1.20    1.41
  -4   1   1    3.87    1.54
   3  -1  -1  143.24    4.26
   3  -1  -1  139.34    4.23
   3  -1  -1  139.15    4.19
   3  -1  -1  143.24    4.26
   3  -1  -1  141.52    4.03
   3  -1  -1  142.63    4.26
   3  -1  -1  141.88    4.35
   3  -1  -1  141.52    4.03
   3  -1  -1  139.15    4.19
  -3   1   1  136.42    4.08
  -3   1   1  132.34    4.04
  -3   1   1  132.34    4.04
  -3   1   1  140.18    4.34
  -3   1   1  134.12    4.17
  -3   1   1  136.42    4.08
  -3   1   1  138.98    4.25
  -3   1   1  139.71    4.16
  -3   1   1  134.12    4.17
   2  -1  -1  151.66    4.01
   2  -1  -1  152.80    4.01
   2  -1  -1  150.55    4.02
   2  -1  -1  152.80    4.01
   2  -1  -1  158.15    4.02
   2  -1  -1  154.27    4.01
   2  -1  -1  151.21    4.08
   2  -1  -1  158.15    4.02
   2  -1  -1  150.55    4.02
  -2   1   1  155.19    4.00
  -2   1   1  151.49    3.94
  -2   1   1  153.78    3.98
  -2   1   1  150.43    4.00
  -2   1   1  153.78    3.98
  -2   1   1  156.26    4.06
  -2   1   1  156.26    4.06
  -2   1   1  153.13    4.11
  -2   1   1  155.19    4.00
   1  -1  -1  176.92    3.98
   1  -1  -1  175.13    3.98
   1  -1  -1  174.58    4.02
   1  -1  -1  176.92    3.98
   1  -1  -1  173.37    4.04
   1  -1  -1  175.87    3.98
   1  -1  -1  175.87    3.98
   1  -1  -1  174.37    4.00
   1  -1  -1  175.13    3.98
  -1   1   1  176.97    3.99
  -1   1   1  172.16    3.68
  -1   1   1  171.59    3.95
  -1   1   1  173.32    4.00
  -1   1   1  176.13    3.97
  -1   1   1  171.59    3.95
  -1   1   1  173.32    4.00
  -1   1   1  171.46    3.67
  -1   1   1  176.97    3.99
  -1   1   1  175.54    4.01
  -1   1   1  176.40    4.06
  -1   1   1  172.16    3.68
   0  -1  -1  316.19    6.26
   0  -1  -1  319.67    6.42
   0  -1  -1  316.38    6.25
   0  -1  -1  316.38    6.25
   0  -1  -1  319.65    6.42
   0  -1  -1  323.30    6.42
   0   1   1  307.31    6.40
   0   1   1  305.49    6.26
   0   1   1  307.16    6.41
   0   1   1  313.56    6.26
   0   1   1  313.56    6.26
   0   1   1  307.16    6.41
  -1  -1  -1  214.53    4.60
  -1  -1  -1  225.84    4.58
  -1  -1  -1  212.73    4.42
  -1  -1  -1  214.52    4.61
  -1  -1  -1  225.85    4.57
  -1  -1  -1  209.20    4.43
  -1  -1  -1  212.73    4.42
  -1  -1  -1  217.95    4.59
   1   1   1  214.30    4.64
   1   1   1  209.19    4.42
   1   1   1  214.30    4.64
   1   1   1  212.88    4.40
   1   1   1  206.53    4.41
   1   1   1  207.61    4.43
   1   1   1  220.57    4.58
   1   1   1  206.53    4.41
   1   1   1  212.88    4.40
   1   1   1  220.56    4.58
  -2  -1  -1  212.20    4.84
  -2  -1  -1  216.96    4.96
  -2  -1  -1  216.80    4.96
  -2  -1  -1  214.04    4.84
  -2  -1  -1  214.04    4.84
  -2  -1  -1  208.71    5.03
  -2  -1  -1  208.71    5.03
  -2  -1  -1  205.36    5.16
  -2  -1  -1  216.15    4.85
  -2  -1  -1  212.20    4.84
  -2  -1  -1  215.55    4.91
   2   1   1  220.69    4.86
   2   1   1  218.72    4.87
   2   1   1  215.43    4.90
   2   1   1  220.69    4.86
   2   1   1  218.72    4.87
   2   1   1  214.73    5.12
   2   1   1  220.61    4.93
   2   1   1  214.73    5.12
  -3  -1  -1   70.59    2.38
  -3  -1  -1   70.59    2.38
  -3  -1  -1   70.19    2.51
  -3  -1  -1   69.32    2.70
  -3  -1  -1   70.19    2.51
  -3  -1  -1   69.32    2.70
  -3  -1  -1   72.36    2.59
  -3  -1  -1   70.19    2.54
  -3  -1  -1   69.93    2.46
   3   1   1   74.61    2.56
   3   1   1   74.24    2.51
   3   1   1   73.19    2.51
   3   1   1   76.65    2.63
   3   1   1   73.19    2.51
   3   1   1   74.90    2.68
   3   1   1   74.24    2.51
   3   1   1   73.83    2.61
   3   1   1   74.90    2.68
  -4  -1  -1  100.88    3.49
  -4  -1  -1   99.79    3.58
  -4  -1  -1  100.77    3.66
  -4  -1  -1  101.10    3.39
  -4  -1  -1  101.07    2.88
  -4  -1  -1  101.07    2.88
  -4  -1  -1  101.10    3.39
  -4  -1  -1   99.79    3.58
  -4  -1  -1  106.46    3.54
  -4  -1  -1  107.47    2.89
  -4  -1  -1  100.54    3.58
  -4  -1  -1  106.46    3.54
   4   1   1   98.81    3.46
   4   1   1  104.19    3.55
   4   1   1  102.61    3.63
   4   1   1   98.81    3.46
   4   1   1  103.99    3.97
   4   1   1  104.19    3.55
   4   1   1  103.99    3.97
   4   1   1  102.55    3.68
  -5  -1  -1    6.21    1.77
  -5  -1  -1    3.99    1.76
  -5  -1  -1    2.42    1.26
  -5  -1  -1    0.20    1.25
  -5  -1  -1    2.84    1.51
  -5  -1  -1    2.84    1.51
  -5  -1  -1    1.31    0.89
  -5  -1  -1    1.31    0.89
  -5  -1  -1    2.21    1.69
  -5  -1  -1    0.20    1.24
  -5  -1  -1    6.21    1.77
  -5  -1  -1    2.53    0.91
  -5  -1  -1    2.42    1.26
  -5  -1  -1    2.21    1.62
   5   1   1    4.80    1.66
   5   1   1    6.68    1.97
   5   1   1    4.89    1.67
   5   1   1    1.72    1.56
   5   1   1    4.89    1.67
   5   1   1    1.72    1.56
   5   1   1    5.38    1.85
   5   1   1    4.80    1.66
  -6  -1  -1   41.35    3.55
  -6  -1  -1   37.81    3.38
  -6  -1  -1   39.19    1.89
  -6  -1  -1   37.04    3.44
  -6  -1  -1   36.90    3.30
  -6  -1  -1   41.35    3.55
  -6  -1  -1   46.79    3.55
  -6  -1  -1   45.07    3.81
  -6  -1  -1   46.79    3.55
  -6  -1  -1   39.20    1.89
  -6  -1  -1   37.78    3.39
  -6  -1  -1   38.38    1.85
   6   1   1   41.27    3.52
   6   1   1   44.42    4.00
   6   1   1   42.64    3.49
   6   1   1   43.33    3.47
   6   1   1   41.27    3.52
   6   1   1   37.75    4.17
   6   1   1   37.75    4.17
   6   1   1   43.33    3.47
  -7  -1  -1   47.08    4.24
  -7  -1  -1   45.53    4.32
  -7  -1  -1   43.67    4.25
  -7  -1  -1   43.65    4.25
  -7  -1  -1   50.79    4.24
  -7  -1  -1   45.12    4.48
  -7  -1  -1   50.79    4.24
  -7  -1  -1   45.12    4.48
  -7  -1  -1   42.25    4.19
  -7  -1  -1   47.08    4.24
  -7  -1  -1   42.45    4.37
   7   1   1   44.09    4.08
   7   1   1   43.38    4.15
   7   1   1   49.23    4.47
   7   1   1   44.09    4.08
   7   1   1   43.38    4.15
   7   1   1   50.34    5.24
   7   1   1   50.34    5.24
   7   1   1   45.11    4.24
   6  -2  -1    9.17    3.15
   6  -2  -1    9.78    3.03
   6  -2  -1    9.17    3.15
   6  -2  -1   12.71    3.36
   6  -2  -1    6.03    3.14
   6  -2  -1    9.78    3.03
  -6   2   1    8.56    2.69
  -6   2   1   13.96    3.45
  -6   2   1    8.98    3.26
  -6   2   1    9.03    3.42
  -6   2   1    8.56    2.69
  -6   2   1    9.99    2.85
  -6   2   1    9.99    2.85
  -6   2   1   11.39    2.60
  -6   2   1   11.39    2.60
   5  -2  -1   63.94    4.03
   5  -2  -1   60.72    3.97
   5  -2  -1   65.77    4.24
   5  -2  -1   64.24    4.10
   5  -2  -1   64.25    4.16
   5  -2  -1   67.16    4.14
   5  -2  -1   64.25    4.16
   5  -2  -1   60.72    3.97
   5  -2  -1   63.94    4.03
  -5   2   1   62.12    1.88
  -5   2   1   59.29    3.95
  -5   2   1   62.04    3.83
  -5   2   1   64.45    3.74
  -5   2   1   69.54    4.16
  -5   2   1   62.12    1.88
  -5   2   1   62.84    1.87
  -5   2   1   62.04    3.83
  -5   2   1   59.29    3.95
  -5   2   1   62.89    4.03
  -5   2   1   69.54    4.16
  -5   2   1   64.70    3.62
   4  -2  -1    8.52    1.67
   4  -2  -1    6.72    1.85
   4  -2  -1    7.41    1.85
   4  -2  -1    8.30    1.57
   4  -2  -1    4.85    1.84
   4  -2  -1    8.30    1.57
   4  -2  -1    8.69    1.75
   4  -2  -1    6.72    1.85
   4  -2  -1    7.41    1.85
  -4   2   1    6.02    1.65
  -4   2   1    4.71    1.78
  -4   2   1    8.29    1.86
  -4   2   1    6.40    1.47
  -4   2   1    9.59    1.75
  -4   2   1    4.70    1.70
  -4   2   1    8.29    1.86
  -4   2   1    6.40    1.47
  -4   2   1    6.02    1.65
   3  -2  -1  267.61    6.91
   3  -2  -1  270.70    7.12
   3  -2  -1  271.61    6.92
   3  -2  -1  273.41    7.02
   3  -2  -1  287.94    6.89
   3  -2  -1  267.80    6.95
   3  -2  -1  267.80    6.95
   3  -2  -1  271.61    6.92
   3  -2  -1  287.94    6.89
  -3   2   1  272.11    6.92
  -3   2   1  264.40    7.08
  -3   2   1  275.89    6.94
  -3   2   1  274.42    6.79
  -3   2   1  270.32    7.02
  -3   2   1  274.42    6.79
  -3   2   1  265.63    6.86
  -3   2   1  275.89    6.94
  -3   2   1  265.63    6.86
   2  -2  -1  317.84    7.41
   2  -2  -1  328.84    7.37
   2  -2  -1  317.84    7.41
   2  -2  -1  322.51    7.47
   2  -2  -1  319.65    7.58
   2  -2  -1  318.57    7.48
   2  -2  -1  328.84    7.37
   2  -2  -1  322.51    7.47
   2  -2  -1  322.77    7.51
  -2   2   1  326.65    7.52
  -2   2   1  322.23    7.33
  -2   2   1  334.02    7.51
  -2   2   1  324.41    7.62
  -2   2   1  322.23    7.33
  -2   2   1  334.02    7.51
  -2   2   1  325.33    7.58
  -2   2   1  326.65    7.52
  -2   2   1  325.94    7.49
   1  -2  -1    5.07    0.81
   1  -2  -1    5.36    0.67
   1  -2  -1    5.28    0.63
   1  -2  -1    5.28    0.63
   1  -2  -1    5.40    0.72
   1  -2  -1    5.40    0.72
   1  -2  -1    5.07    0.77
   1  -2  -1    5.36    0.67
   1  -2  -1    6.44    0.78
  -1   2   1    6.48    0.68
  -1   2   1    6.55    0.84
  -1   2   1    6.48    0.68
  -1   2   1    6.79    0.70
  -1   2   1    5.23    0.75
  -1   2   1    5.23    0.75
  -1   2   1    5.23    0.73
  -1   2   1    5.21    0.70
  -1   2   1    6.79    0.70
   0  -2  -1  129.30    2.87
   0  -2  -1  129.80    2.85
   0  -2  -1  125.55    2.83
   0  -2  -1  125.55    2.83
   0  -2  -1  127.02    2.85
   0   2   1  131.41    3.13
   0   2   1  130.60    2.86
   0   2   1  131.41    3.12
   0   2   1  130.60    2.86
   0   2   1  130.24    2.88
   0   2   1  127.64    2.83
   0   2   1  130.75    3.12
   0   2   1  127.64    2.83
  -1  -2  -1  998.82   19.75
  -1  -2  -1  989.92   19.76
  -1  -2  -1 1000.00   19.54
  -1  -2  -1  999.76   19.54
  -1  -2  -1  989.89   19.76
   1   2   1  961.70   19.53
   1   2   1  994.70   19.77
   1   2   1  994.75   19.77
   1   2   1  994.31   19.63
   1   2   1  998.13   19.76
   1   2   1  961.71   19.53
   1   2   1  994.31   19.63
  -2  -2  -1  290.96    6.22
  -2  -2  -1  284.78    6.15
  -2  -2  -1  277.57    6.39
  -2  -2  -1  282.36    6.00
  -2  -2  -1  286.56    5.98
  -2  -2  -1  277.57    6.39
  -2  -2  -1  289.78    6.21
  -2  -2  -1  278.13    5.97
  -2  -2  -1  290.97    6.22
  -2  -2  -1  284.77    6.15
  -2  -2  -1  279.26    5.99
  -2  -2  -1  278.13    5.97
  -2  -2  -1  286.56    5.98
  -2  -2  -1  283.61    5.96
   2   2   1  285.58    6.19
   2   2   1  276.99    6.01
   2   2   1  285.54    6.47
   2   2   1  285.54    6.47
   2   2   1  273.26    5.95
   2   2   1  288.25    6.04
   2   2   1  273.26    5.95
   2   2   1  282.22    5.97
   2   2   1  282.22    5.97
   2   2   1  285.58    6.19
   2   2   1  277.68    5.97
   2   2   1  279.00    6.17
   2   2   1  278.33    6.19
   2   2   1  278.32    6.19
  -3  -2  -1  312.06    6.93
  -3  -2  -1  317.43    7.04
  -3  -2  -1  306.57    6.76
  -3  -2  -1  295.01    7.25
  -3  -2  -1  295.01    7.25
  -3  -2  -1  305.82    6.94
  -3  -2  -1  312.87    6.79
  -3  -2  -1  317.41    7.04
  -3  -2  -1  312.85    6.79
  -3  -2  -1  301.50    6.88
  -3  -2  -1  306.39    6.87
  -3  -2  -1  312.06    6.93
  -3  -2  -1  301.50    6.88
   3   2   1  306.94    6.98
   3   2   1  309.19    6.89
   3   2   1  304.27    6.86
   3   2   1  307.50    6.91
   3   2   1  300.86    7.39
   3   2   1  304.27    6.86
   3   2   1  304.59    6.95
   3   2   1  300.86    7.39
   3   2   1  309.19    6.89
  -4  -2  -1    1.07    1.04
  -4  -2  -1   -0.51    1.05
  -4  -2  -1    1.89    0.98
  -4  -2  -1   -0.51    1.05
  -4  -2  -1    1.07    1.04
  -4  -2  -1    1.89    0.98
  -4  -2  -1   -0.08    0.97
  -4  -2  -1    0.30    1.10
  -4  -2  -1    0.49    0.97
  -4  -2  -1    0.49    1.01
  -4  -2  -1    0.10    0.75
  -4  -2  -1    0.88    0.79
  -4  -2  -1   -0.08    0.97
  -4  -2  -1    0.88    0.79
   4   2   1    0.83    0.98
   4   2   1    0.89    0.95
   4   2   1    0.90    0.97
   4   2   1   -0.75    1.27
   4   2   1   -0.75    1.27
   4   2   1   -1.27    0.95
   4   2   1   -0.07    0.98
   4   2   1    0.90    0.97
   4   2   1   -0.07    0.98
  -5  -2  -1   24.79    2.27
  -5  -2  -1   21.38    2.10
  -5  -2  -1   22.40    1.63
  -5  -2  -1   24.80    2.27
  -5  -2  -1   21.87    2.10
  -5  -2  -1   22.40    2.20
  -5  -2  -1   22.28    1.59
  -5  -2  -1   20.47    2.53
  -5  -2  -1   20.47    2.53
  -5  -2  -1   22.40    2.20
  -5  -2  -1   22.41    1.63
  -5  -2  -1   21.38    2.10
  -5  -2  -1   19.71    2.19
  -5  -2  -1   21.95    2.19
   5   2   1   21.63    2.70
   5   2   1   25.30    2.24
   5   2   1   19.65    2.06
   5   2   1   22.15    2.15
   5   2   1   20.42    2.15
   5   2   1   19.65    2.06
   5   2   1   25.30    2.24
   5   2   1   21.63    2.70
  -6  -2  -1   62.51    3.64
  -6  -2  -1   59.63    4.39
  -6  -2  -1   59.63    4.39
  -6  -2  -1   62.51    3.64
  -6  -2  -1   57.54    3.17
  -6  -2  -1   63.53    3.88
  -6  -2  -1   63.07    3.65
  -6  -2  -1   63.54    3.74
  -6  -2  -1   69.25    4.12
  -6  -2  -1   63.07    3.65
  -6  -2  -1   57.54    3.17
   6   2   1   64.85    3.80
   6   2   1   62.56    4.87
   6   2   1   61.77    3.64
   6   2   1   57.69    3.58
   6   2   1   57.69    3.58
   6   2   1   62.56    4.87
   6   2   1   61.77    3.64
   6   2   1   56.90    4.08
  -7  -2  -1   33.48    3.99
  -7  -2  -1   34.24    3.86
  -7  -2  -1   29.66    3.68
  -7  -2  -1   25.28    3.96
  -7  -2  -1   25.28    3.96
  -7  -2  -1   38.36    3.60
  -7  -2  -1   33.85    3.67
  -7  -2  -1   33.06    3.56
  -7  -2  -1   29.66    3.68
  -7  -2  -1   38.36    3.61
  -7  -2  -1   33.06    3.56
   7   2   1   39.74    3.73
   7   2   1   35.13    4.13
   7   2   1   35.82    3.60
   7   2   1   36.32    3.83
   7   2   1   35.13    4.13
   7   2   1   35.82    3.60
   7   2   1   39.74    3.73
   7   2   1   41.47    3.91
   6  -3  -1   20.42    4.17
   6  -3  -1   25.19    3.84
   6  -3  -1   31.83    4.27
   6  -3  -1   21.83    3.97
   6  -3  -1   31.83    4.27
   6  -3  -1   25.19    3.84
  -6   3   1   22.77    3.27
  -6   3   1   24.24    3.88
  -6   3   1   24.24    3.88
  -6   3   1   27.60    4.01
  -6   3   1   20.85    4.26
  -6   3   1   22.77    3.27
  -6   3   1   23.33    4.23
  -6   3   1   23.33    4.23
  -6   3   1   20.70    4.07
   5  -3  -1    2.90    2.65
   5  -3  -1    4.90    2.01
   5  -3  -1    4.90    2.01
   5  -3  -1    2.59    2.68
   5  -3  -1    2.69    1.85
   5  -3  -1    5.21    2.53
   5  -3  -1    5.21    2.53
   5  -3  -1    2.69    1.85
  -5   3   1    0.07    1.87
  -5   3   1    5.02    1.97
  -5   3   1    3.40    1.26
  -5   3   1    3.35    1.25
  -5   3   1    3.19    2.10
  -5   3   1    1.87    3.03
  -5   3   1    1.87    2.90
  -5   3   1    3.19    2.10
  -5   3   1    2.02    2.65
  -5   3   1    5.02    1.97
  -5   3   1    0.07    1.87
  -5   3   1    3.40    1.26
   4  -3  -1   13.44    2.33
   4  -3  -1   17.90    2.41
   4  -3  -1   17.10    2.53
   4  -3  -1   13.44    2.33
   4  -3  -1   16.15    2.32
   4  -3  -1   17.23    2.41
   4  -3  -1   16.15    2.32
   4  -3  -1   17.23    2.41
  -4   3   1   14.90    2.31
  -4   3   1   11.53    1.97
  -4   3   1   15.49    2.77
  -4   3   1   15.49    2.77
  -4   3   1   16.02    2.33
  -4   3   1   16.28    2.23
  -4   3   1   11.53    1.97
  -4   3   1   14.90    2.40
  -4   3   1   16.02    2.33
   3  -3  -1  308.35    7.78
   3  -3  -1  301.05    7.78
   3  -3  -1  311.03    7.75
   3  -3  -1  301.05    7.78
   3  -3  -1  303.64    7.45
   3  -3  -1  307.35    7.84
   3  -3  -1  302.98    7.87
   3  -3  -1  308.35    7.78
   3  -3  -1  303.64    7.45
  -3   3   1  320.42    7.84
  -3   3   1  315.50    7.85
  -3   3   1  291.92    7.71
  -3   3   1  320.42    7.84
  -3   3   1  291.92    7.71
  -3   3   1  315.52    7.72
  -3   3   1  302.03    7.94
  -3   3   1  307.77    7.44
  -3   3   1  307.77    7.44
   2  -3  -1  153.26    4.40
   2  -3  -1  166.34    4.44
   2  -3  -1  153.84    4.45
   2  -3  -1  153.26    4.40
   2  -3  -1  163.02    4.63
   2  -3  -1  163.85    4.54
   2  -3  -1  166.39    4.20
   2  -3  -1  166.34    4.44
   2  -3  -1  166.39    4.20
  -2   3   1  163.24    4.54
  -2   3   1  163.86    4.17
  -2   3   1  160.45    4.51
  -2   3   1  164.17    4.55
  -2   3   1  160.45    4.51
  -2   3   1  157.25    4.63
  -2   3   1  163.86    4.17
  -2   3   1  164.17    4.55
  -2   3   1  162.32    4.62
   1  -3  -1   11.54    1.06
   1  -3  -1   10.21    1.10
   1  -3  -1   11.40    1.11
   1  -3  -1   10.21    1.06
   1  -3  -1   12.25    1.09
   1  -3  -1   11.31    0.84
   1  -3  -1   11.40    1.11
   1  -3  -1   11.31    0.84
   1  -3  -1   11.54    1.06
  -1   3   1   12.35    0.88
  -1   3   1   12.75    1.14
  -1   3   1   11.51    1.09
  -1   3   1   12.47    1.17
  -1   3   1   12.64    1.09
  -1   3   1   11.25    1.06
  -1   3   1   12.35    0.88
  -1   3   1   11.51    1.09
  -1   3   1   11.25    1.06
   0  -3  -1    0.64    0.41
   0  -3  -1    0.33    0.40
   0  -3  -1    0.33    0.40
   0  -3  -1    0.78    0.40
   0  -3  -1    0.32    0.35
   0  -3  -1    0.32    0.35
   0   3   1    0.70    0.36
   0   3   1    0.70    0.36
   0   3   1    0.53    0.41
   0   3   1    0.99    0.43
   0   3   1    0.99    0.43
   0   3   1    1.14    0.43
   0   3   1    0.53    0.38
   1   3   1  435.06    9.35
   1   3   1  436.81    9.00
   1   3   1  437.95    8.98
   1   3   1  435.07    9.35
   1   3   1  438.00    8.99
   1   3   1  432.79    9.33
   1   3   1  436.81    9.00
  -2  -3  -1  105.11    2.68
  -2  -3  -1  100.68    2.28
  -2  -3  -1   99.62    2.30
  -2  -3  -1  100.38    2.90
  -2  -3  -1  100.65    2.25
  -2  -3  -1  102.24    2.32
  -2  -3  -1  101.75    2.90
  -2  -3  -1  100.64    2.92
  -2  -3  -1  100.38    2.90
  -2  -3  -1   99.62    2.30
  -2  -3  -1  105.11    2.68
  -2  -3  -1  100.64    2.92
   2   3   1  104.44    2.96
   2   3   1  101.13    2.31
   2   3   1  100.37    2.36
   2   3   1  104.50    2.72
   2   3   1  101.13    2.31
   2   3   1  105.05    2.95
   2   3   1  104.43    2.96
   2   3   1  104.50    2.72
   2   3   1  100.81    2.98
   2   3   1  103.72    2.34
   2   3   1  100.81    2.98
   2   3   1  100.82    2.34
  -3  -3  -1   37.20    1.51
  -3  -3  -1   36.69    1.57
  -3  -3  -1   39.08    1.54
  -3  -3  -1   39.05    1.49
  -3  -3  -1   34.30    1.82
  -3  -3  -1   37.08    1.71
  -3  -3  -1   42.55    1.86
  -3  -3  -1   36.69    1.57
  -3  -3  -1   35.99    1.55
  -3  -3  -1   37.09    1.70
  -3  -3  -1   42.55    1.86
  -3  -3  -1   38.10    1.72
  -3  -3  -1   34.30    1.82
  -3  -3  -1   37.20    1.51
   3   3   1   35.11    1.52
   3   3   1   38.24    1.61
   3   3   1   37.65    1.83
   3   3   1   36.84    2.14
   3   3   1   36.12    1.46
   3   3   1   36.77    1.55
   3   3   1   36.84    2.14
   3   3   1   40.28    1.83
   3   3   1   35.11    1.52
   3   3   1   37.24    1.76
   3   3   1   36.33    1.59
   3   3   1   37.24    1.76
   3   3   1   37.65    1.83
   3   3   1   36.12    1.46
  -4  -3  -1   71.48    2.50
  -4  -3  -1   71.48    2.50
  -4  -3  -1   61.95    3.00
  -4  -3  -1   69.79    2.69
  -4  -3  -1   71.72    2.73
  -4  -3  -1   71.72    2.73
  -4  -3  -1   68.24    2.57
  -4  -3  -1   53.47    2.44
  -4  -3  -1   61.95    3.00
  -4  -3  -1   64.50    2.44
  -4  -3  -1   68.51    2.50
  -4  -3  -1   64.50    2.44
  -4  -3  -1   69.79    2.69
  -4  -3  -1   69.44    2.47
   4   3   1   66.99    2.56
   4   3   1   68.61    3.29
   4   3   1   64.93    2.55
   4   3   1   67.86    2.60
   4   3   1   68.61    3.29
   4   3   1   67.15    2.52
   4   3   1   66.99    2.56
   4   3   1   64.77    2.62
   4   3   1   67.15    2.52
  -5  -3  -1   25.86    2.30
  -5  -3  -1   24.96    2.14
  -5  -3  -1   26.60    2.38
  -5  -3  -1   29.56    2.32
  -5  -3  -1   29.60    2.32
  -5  -3  -1   27.99    2.30
  -5  -3  -1   28.02    2.22
  -5  -3  -1   24.96    2.14
  -5  -3  -1   26.60    2.38
  -5  -3  -1   25.86    2.30
   5   3   1   27.60    2.26
   5   3   1   27.60    2.26
   5   3   1   30.94    2.83
   5   3   1   31.41    2.35
   5   3   1   28.64    2.24
   5   3   1   28.64    2.24
   5   3   1   30.94    2.83
   5   3   1   34.55    2.46
   5   3   1   35.26    2.40
  -6  -3  -1   74.76    3.78
  -6  -3  -1   80.76    4.24
  -6  -3  -1   71.33    3.87
  -6  -3  -1   71.33    3.87
  -6  -3  -1   74.76    3.78
  -6  -3  -1   74.59    3.71
  -6  -3  -1   73.71    3.83
  -6  -3  -1   74.59    3.71
  -6  -3  -1   73.72    3.83
   6   3   1   71.88    3.68
   6   3   1   71.88    3.68
   6   3   1   77.82    4.13
   6   3   1   78.24    3.71
   6   3   1   75.54    3.82
   6   3   1   78.24    3.71
  -7  -3  -1   28.96    3.31
  -7  -3  -1   24.90    3.82
  -7  -3  -1   24.90    3.82
  -7  -3  -1   23.25    3.30
  -7  -3  -1   23.56    3.05
  -7  -3  -1   23.31    3.44
  -7  -3  -1   28.96    3.31
  -7  -3  -1   23.56    3.05
  -7  -3  -1   27.07    3.31
  -7  -3  -1   27.07    3.31
  -7  -3  -1   23.60    3.33
   7   3   1   27.06    3.37
   7   3   1   21.69    4.31
   7   3   1   29.60    3.25
   7   3   1   21.69    4.31
   7   3   1   29.74    3.51
   7   3   1   36.20    3.63
   7   3   1   29.60    3.25
   7   3   1   29.74    3.51
   5  -4  -1   50.80    4.06
   5  -4  -1   48.13    4.20
   5  -4  -1   50.80    4.06
   5  -4  -1   51.89    4.26
   5  -4  -1   51.89    4.26
   5  -4  -1   53.13    4.70
   5  -4  -1   49.24    4.39
   5  -4  -1   53.13    4.70
  -5   4   1   48.84    3.80
  -5   4   1   56.42    4.74
  -5   4   1   55.06    3.68
  -5   4   1   55.06    3.68
  -5   4   1   47.69    3.59
  -5   4   1   56.22    4.91
  -5   4   1   48.84    3.80
  -5   4   1   47.69    3.59
  -5   4   1   61.79    4.73
   4  -4  -1   38.28    2.90
   4  -4  -1   40.91    3.33
   4  -4  -1   48.92    3.60
   4  -4  -1   38.28    2.90
   4  -4  -1   39.96    3.48
   4  -4  -1   48.92    3.60
   4  -4  -1   44.77    3.72
   4  -4  -1   40.91    3.33
  -4   4   1   41.28    2.88
  -4   4   1   42.79    3.40
  -4   4   1   43.04    3.00
  -4   4   1   42.73    3.13
  -4   4   1   42.77    3.53
  -4   4   1   43.64    3.61
  -4   4   1   43.64    3.61
  -4   4   1   43.04    3.00
  -4   4   1   41.28    2.88
   3  -4  -1    0.86    1.60
   3  -4  -1    0.86    1.60
   3  -4  -1    2.89    1.36
   3  -4  -1    1.34    1.45
   3  -4  -1   -1.56    1.53
   3  -4  -1    1.34    1.45
   3  -4  -1    0.95    1.71
   3  -4  -1    2.89    1.36
  -3   4   1    0.65    1.18
  -3   4   1    2.67    1.79
  -3   4   1    1.04    1.20
  -3   4   1    1.17    1.60
  -3   4   1    0.65    1.18
  -3   4   1    2.66    1.71
  -3   4   1    1.04    1.20
  -3   4   1    1.17    1.60
  -3   4   1    2.54    1.34
   2  -4  -1  215.11    5.08
   2  -4  -1  213.80    5.67
   2  -4  -1  213.80    5.67
   2  -4  -1  207.64    5.74
   2  -4  -1  214.51    5.80
   2  -4  -1  209.93    5.58
   2  -4  -1  215.11    5.08
   2  -4  -1  209.93    5.58
  -2   4   1  210.14    5.62
  -2   4   1  211.11    5.81
  -2   4   1  214.20    5.82
  -2   4   1  215.20    5.72
  -2   4   1  207.07    5.55
  -2   4   1  212.75    5.08
  -2   4   1  207.07    5.55
  -2   4   1  212.75    5.08
  -2   4   1  210.14    5.62
   1  -4  -1   16.10    1.36
   1  -4  -1   14.69    1.34
   1  -4  -1   16.10    1.36
   1  -4  -1   14.89    1.37
   1  -4  -1   13.92    1.34
   1  -4  -1   13.92    1.34
  -1   4   1   14.86    1.39
  -1   4   1   15.22    0.92
  -1   4   1   16.69    1.34
  -1   4   1   15.22    0.92
  -1   4   1   16.30    1.37
  -1   4   1   16.27    1.35
  -1   4   1   16.30    1.37
  -1   4   1   16.90    1.41
  -1   4   1   16.27    1.35
   0  -4  -1  300.39    6.59
   0  -4  -1  309.07    6.64
   0  -4  -1  311.53    6.68
   0  -4  -1  309.07    6.64
   0  -4  -1  300.39    6.59
   0  -4  -1  300.34    6.59
   0   4   1  312.29    6.59
   0   4   1  312.29    6.59
   0   4   1  310.60    6.71
   0   4   1  298.10    6.64
   0   4   1  304.27    6.62
   0   4   1  311.54    6.65
   0   4   1  304.27    6.62
  -1  -4  -1  205.26    4.38
  -1  -4  -1  208.54    4.27
  -1  -4  -1  213.16    4.32
  -1  -4  -1  206.32    4.33
  -1  -4  -1  213.16    4.32
  -1  -4  -1  205.26    4.38
   1   4   1  214.90    4.42
   1   4   1  217.14    4.28
   1   4   1  213.92    4.35
   1   4   1  215.57    5.32
   1   4   1  215.57    5.32
   1   4   1  216.08    4.40
   1   4   1  213.32    4.35
   1   4   1  218.90    5.32
   1   4   1  213.32    4.35
   1   4   1  217.14    4.28
   1   4   1  214.95    4.75
   1   4   1  214.95    4.75
  -2  -4  -1   43.48    0.95
  -2  -4  -1   44.86    1.78
  -2  -4  -1   44.86    1.78
  -2  -4  -1   41.16    1.00
  -2  -4  -1   41.16    1.00
  -2  -4  -1   43.48    0.95
   2   4   1   42.57    2.03
   2   4   1   42.83    1.62
   2   4   1   42.51    1.82
   2   4   1   42.57    2.03
   2   4   1   41.25    1.04
   2   4   1   41.43    1.03
   2   4   1   42.08    0.97
   2   4   1   42.51    1.82
   2   4   1   42.83    1.61
   2   4   1   44.24    2.04
  -3  -4  -1   13.96    1.21
  -3  -4  -1   11.47    0.94
  -3  -4  -1   13.97    1.21
  -3  -4  -1   12.70    1.47
  -3  -4  -1   12.94    0.91
  -3  -4  -1   12.94    0.91
  -3  -4  -1   12.70    1.47
   3   4   1   12.04    0.92
   3   4   1   12.64    1.38
   3   4   1   12.27    1.55
   3   4   1   12.42    0.85
   3   4   1   12.42    0.85
   3   4   1   11.89    0.98
   3   4   1   12.27    1.55
   3   4   1   12.64    1.39
   3   4   1   11.89    0.98
   3   4   1   12.48    1.36
   3   4   1   13.63    1.24
   3   4   1   13.27    0.97
   3   4   1   13.28    1.01
   3   4   1   13.63    1.24
  -4  -4  -1   77.59    2.55
  -4  -4  -1   77.93    3.35
  -4  -4  -1   78.47    2.67
  -4  -4  -1   77.34    2.81
  -4  -4  -1   77.90    2.67
  -4  -4  -1   78.06    2.53
  -4  -4  -1   77.59    2.55
  -4  -4  -1   77.70    2.46
  -4  -4  -1   77.35    2.81
  -4  -4  -1   77.93    3.35
  -4  -4  -1   77.90    2.67
   4   4   1   77.61    2.50
   4   4   1   77.61    2.50
   4   4   1   73.96    2.70
   4   4   1   85.51    3.64
   4   4   1   78.71    2.65
   4   4   1   75.31    2.68
   4   4   1   75.73    2.64
   4   4   1   75.31    2.68
   4   4   1   85.51    3.64
  -5  -4  -1   56.32    3.50
  -5  -4  -1   48.50    3.08
  -5  -4  -1   58.14    2.84
  -5  -4  -1   48.50    3.08
  -5  -4  -1   58.80    2.83
  -5  -4  -1   56.32    3.50
  -5  -4  -1   58.04    2.57
  -5  -4  -1   56.65    2.77
  -5  -4  -1   58.14    2.84
  -5  -4  -1   56.67    2.76
  -5  -4  -1   57.99    2.65
   5   4   1   52.80    2.89
   5   4   1   56.22    2.77
   5   4   1   53.84    2.81
   5   4   1   59.85    2.67
   5   4   1   59.85    2.67
   5   4   1   62.60    2.87
   5   4   1   60.12    3.39
   5   4   1   56.22    2.77
   5   4   1   60.12    3.39
  -6  -4  -1    8.28    2.18
  -6  -4  -1    2.31    1.81
  -6  -4  -1    4.11    2.48
  -6  -4  -1    2.31    1.81
  -6  -4  -1    4.88    1.94
  -6  -4  -1    2.36    3.06
  -6  -4  -1    8.28    2.18
  -6  -4  -1    4.11    2.48
  -6  -4  -1    4.86    1.94
   6   4   1    4.30    1.92
   6   4   1    3.88    2.06
   6   4   1    3.01    1.69
   6   4   1    4.30    1.92
   6   4   1    4.65    1.86
   6   4   1    3.01    1.69
  -7  -4  -1   48.24    4.02
  -7  -4  -1   50.64    3.72
  -7  -4  -1   53.03    4.55
  -7  -4  -1   50.87    4.45
  -7  -4  -1   48.24    4.02
  -7  -4  -1   50.13    4.14
  -7  -4  -1   50.84    3.88
  -7  -4  -1   50.87    4.45
  -7  -4  -1   50.14    4.15
  -7  -4  -1   53.03    4.55
   7   4   1   47.46    4.23
   7   4   1   42.57    5.00
   7   4   1   54.28    4.20
   7   4   1   53.99    4.27
   7   4   1   47.46    4.23
   7   4   1   48.09    4.42
   7   4   1   42.57    5.00
   7   4   1   54.28    4.20
   5  -5  -1   29.18    3.88
   5  -5  -1   29.18    3.88
   5  -5  -1   36.64    3.61
   5  -5  -1   36.64    3.61
   5  -5  -1   33.00    4.33
   5  -5  -1   39.18    4.15
   5  -5  -1   28.61    4.20
   5  -5  -1   28.61    4.20
  -5   5   1   29.59    2.84
  -5   5   1   31.19    3.22
  -5   5   1   41.60    4.17
  -5   5   1   40.42    3.60
  -5   5   1   40.42    3.60
  -5   5   1   33.97    4.17
  -5   5   1   32.23    4.21
  -5   5   1   32.35    4.39
  -5   5   1   31.19    3.22
  -5   5   1   32.62    2.87
  -5   5   1   29.59    2.84
  -5   5   1   33.97    4.17
   4  -5  -1   46.84    3.33
   4  -5  -1   56.33    3.76
   4  -5  -1   47.61    4.17
   4  -5  -1   46.84    3.33
  -4   5   1   53.67    3.29
  -4   5   1   52.72    3.52
  -4   5   1   57.02    4.25
  -4   5   1   47.82    3.87
  -4   5   1   47.80    4.02
  -4   5   1   57.02    4.25
  -4   5   1   50.49    3.14
  -4   5   1   50.49    3.14
  -4   5   1   53.67    3.29
   3  -5  -1   25.15    2.22
   3  -5  -1   23.08    2.69
   3  -5  -1   25.15    2.22
   3  -5  -1   26.51    2.21
   3  -5  -1   24.31    2.61
   3  -5  -1   24.31    2.61
   3  -5  -1   21.00    2.56
   3  -5  -1   26.51    2.21
  -3   5   1   23.91    2.57
  -3   5   1   23.91    2.57
  -3   5   1   21.94    2.45
  -3   5   1   21.94    2.45
  -3   5   1   25.65    2.78
  -3   5   1   24.95    2.12
  -3   5   1   20.50    2.48
  -3   5   1   24.95    2.12
  -3   5   1   20.62    2.60
   2  -5  -1   19.52    1.42
   2  -5  -1   24.19    2.20
   2  -5  -1   23.61    2.16
   2  -5  -1   19.52    1.42
   2  -5  -1   26.41    2.22
   2  -5  -1   23.61    2.16
  -2   5   1   21.49    2.11
  -2   5   1   22.66    2.05
  -2   5   1   19.42    1.45
  -2   5   1   21.49    2.11
  -2   5   1   19.42    1.45
  -2   5   1   23.41    2.11
  -2   5   1   23.46    2.20
  -2   5   1   22.66    2.05
  -2   5   1   22.41    2.13
   1  -5  -1   38.75    2.20
   1  -5  -1   39.20    2.13
   1  -5  -1   38.75    2.20
   1  -5  -1   41.74    2.11
   1  -5  -1   41.74    2.11
  -1   5   1   42.31    2.27
  -1   5   1   44.11    2.19
  -1   5   1   42.61    2.27
  -1   5   1   39.46    2.18
  -1   5   1   44.11    2.19
  -1   5   1   41.80    1.30
  -1   5   1   41.80    1.30
  -1   5   1   42.31    2.27
  -1   5   1   42.33    2.18
   0  -5  -1   96.65    2.73
   0  -5  -1   96.65    2.73
   0  -5  -1   97.80    2.81
   0  -5  -1   96.69    2.80
   0  -5  -1   96.69    2.80
   0  -5  -1   99.35    2.74
   0   5   1   95.78    2.12
   0   5   1   98.05    2.82
   0   5   1   92.75    2.16
   0   5   1   99.55    2.81
   0   5   1   95.78    2.12
   0   5   1   97.83    2.70
   0   5   1   97.83    2.70
   0   5   1   92.76    2.76
   0   5   1   97.75    2.88
   0   5   1   99.55    2.81
   0   5   1   92.75    2.16
  -1  -5  -1  198.56    4.31
  -1  -5  -1  196.93    4.27
  -1  -5  -1  198.56    4.31
  -1  -5  -1  196.48    4.18
  -1  -5  -1  196.48    4.18
  -1  -5  -1  197.94    4.14
   1   5   1  196.25    4.36
   1   5   1  204.13    4.16
   1   5   1  194.96    5.38
   1   5   1  200.24    4.51
   1   5   1  197.41    4.33
   1   5   1  204.57    5.41
   1   5   1  198.87    4.26
   1   5   1  200.24    4.51
   1   5   1  194.67    4.23
   1   5   1  198.87    4.26
   1   5   1  194.96    5.38
   1   5   1  204.13    4.16
   2   5   1   10.27    1.51
   2   5   1   10.23    1.21
   2   5   1    9.17    1.44
   2   5   1   10.06    1.06
   2   5   1   10.07    1.06
   2   5   1   10.27    1.50
   2   5   1   10.23    1.21
  -3  -5  -1   87.79    2.69
  -3  -5  -1   85.87    2.14
  -3  -5  -1   85.47    3.09
  -3  -5  -1   87.79    2.68
  -3  -5  -1   86.75    1.93
  -3  -5  -1   84.70    2.02
  -3  -5  -1   85.47    3.09
  -3  -5  -1   85.87    2.14
  -3  -5  -1   88.78    2.02
  -3  -5  -1   88.78    2.02
   3   5   1   91.14    3.28
   3   5   1   86.51    2.05
   3   5   1   88.70    2.79
   3   5   1   84.97    3.24
   3   5   1   86.46    2.05
   3   5   1   83.68    2.20
   3   5   1   84.37    1.94
   3   5   1   91.92    3.31
   3   5   1   91.92    3.30
   3   5   1   84.37    1.94
   3   5   1   88.62    2.79
   3   5   1   86.51    2.05
   3   5   1   84.97    3.24
   3   5   1   83.61    2.16
  -4  -5  -1  103.10    3.82
  -4  -5  -1   99.40    3.27
  -4  -5  -1  103.10    3.82
  -4  -5  -1   97.17    2.86
  -4  -5  -1  103.26    2.75
  -4  -5  -1  103.26    2.75
  -4  -5  -1   99.39    3.28
   4   5   1  100.00    3.59
   4   5   1  105.00    4.13
   4   5   1  100.00    2.91
   4   5   1   98.17    2.85
   4   5   1   98.67    3.59
   4   5   1  105.00    4.13
   4   5   1   98.94    2.96
   4   5   1   98.88    3.37
   4   5   1   98.88    3.37
   4   5   1   99.82    2.80
   4   5   1   98.17    2.85
   4   5   1   98.77    2.65
   4   5   1   98.66    3.59
   4   5   1   98.77    2.65
  -5  -5  -1   36.86    2.49
  -5  -5  -1   42.38    2.36
  -5  -5  -1   41.57    2.52
  -5  -5  -1   36.86    2.49
  -5  -5  -1   41.57    2.52
  -5  -5  -1   43.17    3.86
  -5  -5  -1   42.38    2.36
  -5  -5  -1   40.14    2.37
  -5  -5  -1   43.17    3.86
   5   5   1   39.85    3.65
   5   5   1   39.94    2.29
   5   5   1   38.80    2.15
   5   5   1   37.79    3.35
   5   5   1   40.02    2.36
   5   5   1   40.02    2.36
   5   5   1   38.80    2.15
   5   5   1   39.85    3.65
   5   5   1   38.18    3.25
  -6  -5  -1   -1.04    1.68
  -6  -5  -1    0.19    1.71
  -6  -5  -1   -0.38    1.81
  -6  -5  -1    2.06    1.83
  -6  -5  -1    2.06    1.83
  -6  -5  -1    1.58    1.63
  -6  -5  -1   -1.03    1.68
  -6  -5  -1   -0.38    1.81
  -6  -5  -1    1.58    1.63
   6   5   1    0.23    1.75
   6   5   1    1.33    2.87
   6   5   1    0.23    1.75
   6   5   1    2.33    1.70
   6   5   1    0.89    1.78
   6   5   1    1.33    2.87
   6   5   1    2.32    1.68
   6   5   1    2.32    1.68
  -7  -5  -1   13.54    2.93
  -7  -5  -1    8.05    2.54
  -7  -5  -1   12.59    2.81
  -7  -5  -1   13.54    2.93
  -7  -5  -1   10.46    2.53
  -7  -5  -1    8.16    2.54
  -7  -5  -1   11.60    2.66
  -7  -5  -1   12.59    2.81
  -7  -5  -1   11.44    2.52
  -7  -5  -1    9.24    2.47
  -7  -5  -1   10.46    2.53
   7   5   1   12.87    2.77
   7   5   1   12.49    2.61
   7   5   1    9.87    2.59
   7   5   1    8.46    4.17
   7   5   1   12.49    2.61
   7   5   1    8.46    4.17
   7   5   1   10.68    2.49
   7   5   1   10.68    2.49
   4  -6  -1    6.69    3.05
   4  -6  -1   11.64    3.35
   4  -6  -1    8.80    3.10
   4  -6  -1    8.80    3.10
   4  -6  -1    5.27    2.12
   4  -6  -1   11.98    2.96
   4  -6  -1   11.98    2.96
   4  -6  -1    5.27    2.12
  -4   6   1    5.17    1.97
  -4   6   1    8.00    3.00
  -4   6   1    7.08    2.77
  -4   6   1    6.85    2.76
  -4   6   1    7.22    3.07
  -4   6   1    5.17    1.97
  -4   6   1    7.22    3.19
  -4   6   1    6.75    2.67
  -4   6   1    8.99    2.70
  -4   6   1    7.08    2.77
  -4   6   1    8.00    3.00
  -4   6   1    6.83    2.76
   3  -6  -1   41.36    3.23
   3  -6  -1   41.36    3.23
   3  -6  -1   40.56    3.32
   3  -6  -1   41.53    3.69
  -3   6   1   38.30    3.46
  -3   6   1   34.85    2.96
  -3   6   1   36.73    2.26
  -3   6   1   34.85    2.96
  -3   6   1   36.73    2.26
  -3   6   1   44.54    3.61
  -3   6   1   44.54    3.61
  -3   6   1   43.78    3.55
  -3   6   1   43.53    3.40
   2  -6  -1  109.39    4.18
   2  -6  -1  109.39    4.18
   2  -6  -1  115.85    4.35
   2  -6  -1  116.66    4.24
   2  -6  -1  111.64    4.11
   2  -6  -1  111.64    4.11
  -2   6   1  116.23    4.41
  -2   6   1  107.90    2.86
  -2   6   1  109.26    4.15
  -2   6   1  116.89    4.30
  -2   6   1  109.26    4.15
  -2   6   1  107.90    2.86
   1  -6  -1   21.96    1.88
   1  -6  -1   21.36    2.38
   1  -6  -1   23.73    2.10
   1  -6  -1   21.96    1.88
   1  -6  -1   23.73    2.10
  -1   6   1   22.90    1.99
  -1   6   1   21.10    1.76
  -1   6   1   21.10    1.76
  -1   6   1   23.23    1.96
  -1   6   1   19.73    1.87
  -1   6   1   22.90    1.99
  -1   6   1   19.53    1.79
   0  -6  -1   13.10    1.24
   0  -6  -1   13.65    1.34
   0  -6  -1   13.65    1.34
   0  -6  -1   13.10    1.24
   0  -6  -1   12.83    1.30
   0  -6  -1   11.00    1.11
   0   6   1   11.77    1.16
   0   6   1   11.21    1.27
   0   6   1   11.95    1.20
   0   6   1   13.24    1.31
   0   6   1   11.77    1.16
   0   6   1   13.24    1.31
   0   6   1   11.26    1.32
  -1  -6  -1   71.12    1.97
  -1  -6  -1   78.89    1.96
  -1  -6  -1   76.40    2.15
  -1  -6  -1   83.38    2.25
  -1  -6  -1   83.38    2.25
  -1  -6  -1   71.12    1.97
   1   6   1   75.04    2.31
   1   6   1   74.42    3.10
   1   6   1   78.42    1.98
   1   6   1   74.11    2.26
   1   6   1   77.60    2.07
   1   6   1   74.27    2.21
   1   6   1   75.04    2.31
   1   6   1   74.42    3.10
   1   6   1   76.43    2.19
   1   6   1   78.42    1.98
   1   6   1   76.43    2.19
   1   6   1   77.54    3.10
  -2  -6  -1  124.77    2.58
  -2  -6  -1  127.88    2.60
  -2  -6  -1  124.77    2.58
  -2  -6  -1  127.88    2.60
   2   6   1  134.83    3.59
   2   6   1  127.77    2.70
   2   6   1  132.14    4.40
   2   6   1  128.06    2.68
   2   6   1  127.25    4.36
   2   6   1  127.25    4.36
   2   6   1  129.10    3.68
   2   6   1  134.87    3.59
   2   6   1  129.10    3.68
  -3  -6  -1    1.68    0.24
  -3  -6  -1    1.68    0.24
  -3  -6  -1    1.64    0.23
  -3  -6  -1    1.64    0.23
   3   6   1    2.20    1.04
   3   6   1    0.72    1.41
   3   6   1    2.20    1.04
   3   6   1    1.04    1.41
   3   6   1    1.82    1.31
   3   6   1    1.05    1.42
   3   6   1    1.82    1.31
   3   6   1    1.73    0.35
   3   6   1    1.43    0.27
  -4  -6  -1  105.21    3.33
  -4  -6  -1  100.42    2.48
  -4  -6  -1  100.42    2.48
  -4  -6  -1   99.17    2.69
  -4  -6  -1  105.21    3.33
  -4  -6  -1  101.24    2.52
  -4  -6  -1   99.17    2.69
  -4  -6  -1  100.24    2.37
  -4  -6  -1   98.36    3.80
  -4  -6  -1   98.36    3.80
   4   6   1   96.33    2.36
   4   6   1   99.52    2.74
   4   6   1  101.49    2.56
   4   6   1   99.67    3.99
   4   6   1  102.33    3.55
   4   6   1   96.27    4.13
   4   6   1  100.07    4.00
   4   6   1  102.33    3.55
   4   6   1   96.27    4.13
   4   6   1   96.33    2.36
   4   6   1  101.49    2.56
   4   6   1  100.07    4.00
   4   6   1  102.88    2.55
  -5  -6  -1   18.94    1.51
  -5  -6  -1   16.32    2.98
  -5  -6  -1   21.51    1.86
  -5  -6  -1   16.32    2.98
  -5  -6  -1   20.71    1.81
  -5  -6  -1   21.51    1.86
   5   6   1   23.90    2.87
   5   6   1   16.92    1.32
   5   6   1   20.40    2.30
   5   6   1   23.90    2.87
   5   6   1   16.68    1.50
   5   6   1   18.97    1.73
   5   6   1   20.93    2.40
   5   6   1   16.68    1.50
   5   6   1   19.28    1.70
   5   6   1   20.94    2.40
   5   6   1   16.92    1.32
  -6  -6  -1   49.22    2.89
  -6  -6  -1   50.49    3.00
  -6  -6  -1   50.49    3.00
  -6  -6  -1   46.43    2.97
  -6  -6  -1   46.43    2.97
  -6  -6  -1   43.45    2.96
  -6  -6  -1   43.27    3.42
  -6  -6  -1   43.27    3.42
  -6  -6  -1   49.22    2.89
   6   6   1   51.29    2.80
   6   6   1   43.58    2.43
   6   6   1   43.58    2.43
   6   6   1   48.67    4.42
   6   6   1   49.12    2.90
   6   6   1   51.29    2.80
   6   6   1   48.15    3.11
   6   6   1   48.67    4.42
  -7  -6  -1   11.86    3.62
  -7  -6  -1   11.86    3.62
   7   6   1   16.43    4.70
   7   6   1   10.05    2.34
   7   6   1   16.43    4.70
   7   6   1   11.14    2.58
   3  -7  -1   36.55    3.62
   3  -7  -1   36.76    3.67
   3  -7  -1   32.55    3.24
   3  -7  -1   36.55    3.62
   3  -7  -1   32.55    3.24
   3  -7  -1   37.17    3.57
  -3   7   1   35.34    3.42
  -3   7   1   37.54    3.42
  -3   7   1   43.25    3.77
  -3   7   1   32.59    3.28
  -3   7   1   32.59    3.28
  -3   7   1   38.49    3.68
  -3   7   1   43.24    3.76
  -3   7   1   34.63    3.59
  -3   7   1   35.34    3.42
  -3   7   1   38.53    3.83
   2  -7  -1   54.85    3.65
   2  -7  -1   56.67    3.25
   2  -7  -1   55.76    3.53
   2  -7  -1   55.76    3.53
   2  -7  -1   56.67    3.25
  -2   7   1   54.34    3.76
  -2   7   1   56.91    3.20
  -2   7   1   51.86    3.47
  -2   7   1   56.91    3.20
  -2   7   1   54.65    3.33
  -2   7   1   51.86    3.47
  -2   7   1   54.10    3.88
   1  -7  -1    6.33    1.81
   1  -7  -1    6.33    1.81
   1  -7  -1    7.73    1.57
   1  -7  -1   12.03    1.83
   1  -7  -1    3.16    2.19
   1  -7  -1    7.73    1.57
  -1   7   1   10.10    1.68
  -1   7   1    9.49    1.67
  -1   7   1    7.82    1.66
  -1   7   1    9.53    1.74
  -1   7   1    7.82    1.66
  -1   7   1   10.10    1.68
  -1   7   1   11.56    1.75
   0  -7  -1   28.53    2.04
   0  -7  -1   28.98    1.80
   0  -7  -1   29.61    2.11
   0  -7  -1   26.75    1.74
   0  -7  -1   29.61    2.11
   0  -7  -1   28.98    1.80
   0   7   1   32.03    2.10
   0   7   1   29.92    1.88
   0   7   1   26.26    1.94
   0   7   1   26.26    1.94
   0   7   1   32.21    2.20
   0   7   1   26.91    2.47
   0   7   1   26.56    1.69
   0   7   1   26.56    1.69
   0   7   1   26.90    2.47
   0   7   1   27.32    2.48
  -1  -7  -1   92.12    2.73
  -1  -7  -1   97.15    2.45
  -1  -7  -1   92.12    2.73
  -1  -7  -1   92.07    2.69
   1   7   1   94.30    2.43
   1   7   1   98.47    4.15
   1   7   1   95.83    2.87
   1   7   1   94.30    2.43
   1   7   1  101.64    4.23
   1   7   1   91.27    2.43
   1   7   1   90.68    2.53
   1   7   1   96.02    2.81
   1   7   1  101.65    4.23
   1   7   1   91.27    2.43
  -2  -7  -1   65.56    1.62
  -2  -7  -1   65.34    1.52
  -2  -7  -1   65.56    1.62
  -2  -7  -1   65.34    1.52
   2   7   1   64.40    2.61
   2   7   1   70.57    2.70
   2   7   1   64.58    3.55
   2   7   1   64.58    3.55
   2   7   1   67.81    1.72
   2   7   1   65.35    1.57
   2   7   1   65.60    3.60
   2   7   1   70.58    2.70
   2   7   1   64.40    2.61
   2   7   1   67.56    1.69
   3   7   1   10.66    1.52
   3   7   1    6.97    2.03
   3   7   1   10.66    1.52
   3   7   1    8.99    2.17
   3   7   1    8.98    2.16
   3   7   1    8.55    1.71
   3   7   1    8.55    1.71
  -4  -7  -1    9.14    0.62
  -4  -7  -1    8.57    0.69
  -4  -7  -1    8.57    0.69
  -4  -7  -1    9.14    0.62
   4   7   1   10.32    2.31
   4   7   1   10.32    2.31
   4   7   1    9.95    1.69
   4   7   1    7.48    2.04
   4   7   1   11.42    1.93
   4   7   1    8.44    0.68
   4   7   1    7.39    0.57
   4   7   1    9.95    1.69
   4   7   1   11.42    1.93
  -5  -7  -1    8.84    1.00
  -5  -7  -1    8.84    1.00
  -5  -7  -1    8.37    0.94
  -5  -7  -1    9.73    1.18
  -5  -7  -1    9.91    1.71
  -5  -7  -1    9.91    1.71
  -5  -7  -1    9.73    1.18
  -5  -7  -1    8.91    2.17
  -5  -7  -1    8.91    2.17
  -5  -7  -1    8.56    0.84
   5   7   1   10.08    1.05
   5   7   1    9.61    1.01
   5   7   1   10.77    2.44
   5   7   1    9.61    1.01
   5   7   1    6.65    2.27
   5   7   1    8.48    0.85
   5   7   1    9.28    1.26
   5   7   1   12.34    2.75
   5   7   1   12.34    2.75
   5   7   1   10.79    2.43
   5   7   1    8.48    0.85
   5   7   1    8.81    1.88
   5   7   1    8.81    1.88
  -6  -7  -1   44.38    2.57
  -6  -7  -1   46.09    4.11
  -6  -7  -1   46.09    4.11
  -6  -7  -1   45.17    2.94
  -6  -7  -1   45.17    2.94
   6   7   1   47.52    2.58
   6   7   1   40.07    4.38
   6   7   1   40.13    2.86
   6   7   1   40.07    4.38
   2  -8  -1   13.96    2.86
   2  -8  -1    6.85    2.28
   2  -8  -1    6.85    2.28
   2  -8  -1    9.96    2.47
   2  -8  -1   13.96    2.86
  -2   8   1   12.06    2.48
  -2   8   1    6.13    2.44
  -2   8   1   11.36    3.35
  -2   8   1   10.18    2.27
  -2   8   1   11.96    3.39
  -2   8   1    6.53    2.62
  -2   8   1    6.56    2.74
  -2   8   1    6.13    2.44
  -2   8   1   10.18    2.27
  -2   8   1   11.36    3.35
   1  -8  -1   51.26    2.89
   1  -8  -1   54.25    3.25
   1  -8  -1   54.25    3.25
   1  -8  -1   51.75    2.96
   1  -8  -1   51.26    2.89
  -1   8   1   50.84    4.33
  -1   8   1   47.06    2.88
  -1   8   1   50.16    3.44
  -1   8   1   51.47    2.97
  -1   8   1   55.24    4.38
  -1   8   1   55.24    4.38
  -1   8   1   50.16    3.44
  -1   8   1   51.47    2.97
   0  -8  -1    0.24    1.12
   0  -8  -1   -0.14    1.30
   0  -8  -1    0.24    1.12
   0  -8  -1   -0.07    1.10
   0  -8  -1    2.66    1.48
   0  -8  -1    2.66    1.48
   0   8   1    1.20    2.18
   0   8   1    1.49    1.40
   0   8   1    1.49    1.46
   0   8   1   -0.49    2.16
   0   8   1    3.02    1.48
   0   8   1   -0.01    1.04
   0   8   1   -0.49    2.16
   0   8   1   -1.29    1.05
   0   8   1   -0.01    1.04
   0   8   1    3.02    1.48
  -1  -8  -1   96.02    2.98
  -1  -8  -1   95.39    2.89
  -1  -8  -1   96.02    2.98
  -1  -8  -1   94.77    2.56
   1   8   1   98.76    4.27
   1   8   1   73.01    3.81
   1   8   1   98.76    4.27
   1   8   1   97.12    3.14
   1   8   1   93.83    2.53
   1   8   1   97.17    3.06
   1   8   1   89.77    4.12
   1   8   1   97.69    3.67
   1   8   1   93.83    2.53
   1   8   1   73.01    3.81
  -2  -8  -1   27.91    1.17
  -2  -8  -1   27.18    0.96
  -2  -8  -1   27.91    1.17
  -2  -8  -1   27.18    0.96
   2   8   1   30.48    2.19
   2   8   1   27.87    3.22
   2   8   1   30.48    2.18
   2   8   1   27.52    1.25
   2   8   1   27.42    1.29
   2   8   1   28.97    2.02
   2   8   1   24.16    3.10
   2   8   1   24.15    3.09
   2   8   1   28.54    1.04
   2   8   1   28.97    2.02
   3   8   1   14.36    2.40
   3   8   1   12.29    1.67
   3   8   1   14.37    2.40
   3   8   1   12.97    1.94
   3   8   1   12.97    1.94
   3   8   1   13.35    2.33
   3   8   1   12.29    1.67
   4   8   1   37.22    3.20
   4   8   1   32.68    2.70
   4   8   1   36.63    3.41
   4   8   1   37.22    3.20
   4   8   1   36.63    3.41
   4   8   1   32.68    2.70
   4   8   1   33.12    3.29
  -5  -8  -1   30.31    1.10
  -5  -8  -1   30.31    1.10
  -5  -8  -1   32.73    1.03
  -5  -8  -1   32.73    1.03
   5   8   1   32.88    3.53
   5   8   1   32.32    2.75
   5   8   1   35.13    3.67
   5   8   1   37.01    3.67
   5   8   1   32.32    2.75
   5   8   1   31.62    1.33
   5   8   1   35.13    3.67
   5   8   1   29.52    1.16
   5   8   1   36.98    3.67
  -6  -8  -1    0.09    1.10
  -6  -8  -1    0.09    1.10
  -6  -8  -1   -0.35    1.21
  -6  -8  -1    1.16    1.42
  -6  -8  -1   -0.35    1.21
   6   8   1    0.02    1.05
   6   8   1    0.21    0.94
   6   8   1    0.63    2.91
   6   8   1    0.15    0.86
   6   8   1    2.05    3.71
   6   8   1    0.15    0.86
   6   8   1    2.05    3.71
   6   8   1   -0.17    2.82
   6   8   1    0.81    1.37
   6   8   1    0.21    0.94
   6   8   1    0.63    2.90
   1  -9  -1   31.10    3.26
   1  -9  -1   35.21    2.99
   1  -9  -1   25.85    2.97
   1  -9  -1   31.10    3.26
   1  -9  -1   33.09    2.82
   1  -9  -1   33.09    2.82
  -1   9   1   30.92    3.03
  -1   9   1   29.93    2.65
  -1   9   1   27.07    3.14
  -1   9   1   24.34    2.44
  -1   9   1   27.09    4.21
  -1   9   1   33.23    4.32
  -1   9   1   24.34    2.44
  -1   9   1   26.92    3.00
  -1   9   1   33.23    4.33
  -1   9   1   30.92    3.03
   0  -9  -1   31.58    2.32
   0  -9  -1   35.96    3.04
   0  -9  -1   31.58    2.32
   0  -9  -1   35.96    3.04
   0  -9  -1   34.41    2.37
   0   9   1   38.12    2.76
   0   9   1   30.96    2.38
   0   9   1   31.07    2.55
   0   9   1   38.12    2.76
   0   9   1   29.15    2.30
   0   9   1   31.21    2.66
   0   9   1   29.15    2.30
  -1  -9  -1   17.90    1.76
  -1  -9  -1   17.90    1.76
  -1  -9  -1   17.33    1.49
  -1  -9  -1   15.45    1.56
   1   9   1   14.66    1.52
   1   9   1   17.93    1.45
   1   9   1   17.63    1.75
   1   9   1   14.66    1.52
   1   9   1   17.93    1.45
   1   9   1   17.69    1.83
   1   9   1   15.26    1.34
  -2  -9  -1    2.28    0.59
  -2  -9  -1    2.28    0.59
  -2  -9  -1    1.82    0.77
  -2  -9  -1    1.82    0.77
   2   9   1    1.77    0.85
   2   9   1    0.91    0.61
   2   9   1   -0.37    1.70
   2   9   1    1.77    0.81
   2   9   1    2.42    1.21
   2   9   1   -0.38    1.71
   2   9   1    2.42    1.21
   3   9   1   35.53    2.65
   3   9   1   38.65    3.06
   3   9   1   35.54    2.65
   3   9   1   43.16    3.66
   3   9   1   37.20    3.55
   3   9   1   38.65    3.06
   3   9   1   38.04    3.56
   4   9   1   31.58    3.21
   4   9   1   28.92    3.09
   4   9   1   26.36    3.65
   4   9   1   31.58    3.21
   4   9   1   34.35    3.98
   4   9   1   28.91    3.09
   4   9   1   34.34    3.97
   5   9   1   54.22    4.72
   5   9   1   51.31    4.50
   5   9   1   54.22    4.72
   5   9   1   57.00    3.75
   5   9   1   44.71    4.39
   5   9   1   57.00    3.75
   5   9   1   51.30    4.50
   0 -10  -1    7.64    1.80
   0 -10  -1    5.05    2.30
   0 -10  -1    7.64    1.80
   0 -10  -1    9.51    1.76
   0  10   1    9.66    1.84
   0  10   1    9.09    1.82
   0  10   1   13.61    4.38
   0  10   1   13.61    4.38
   0  10   1   10.38    2.46
   0  10   1    3.25    4.03
   0  10   1    9.80    2.28
   0  10   1   10.41    2.56
   0  10   1    9.80    2.28
   0  10   1    9.09    1.82
  -1 -10  -1   14.03    1.99
  -1 -10  -1   11.33    1.24
  -1 -10  -1   11.06    1.72
  -1 -10  -1    9.44    1.31
  -1 -10  -1   14.03    1.99
  -1 -10  -1    9.44    1.31
   1  10   1    8.58    3.83
   1  10   1   11.60    3.93
   1  10   1   12.84    1.88
   1  10   1   12.83    1.95
   1  10   1   11.60    3.93
   1  10   1   10.20    1.58
   1  10   1   11.80    1.45
   1  10   1   10.20    1.58
  -2 -10  -1   27.48    1.22
  -2 -10  -1   27.48    1.22
  -2 -10  -1   32.74    1.49
  -2 -10  -1   32.74    1.49
   2  10   1   26.85    2.68
   2  10   1   28.61    4.37
   2  10   1   26.84    2.69
   2  10   1   26.12    1.16
   2  10   1   26.12    1.16
   2  10   1   27.99    4.37
   2  10   1   27.62    1.61
   2  10   1   27.98    4.37
   2  10   1   26.59    1.33
   2  10   1   27.62    1.67
   3  10   1    2.37    3.75
   3  10   1    0.71    1.87
   3  10   1    2.37    3.75
   3  10   1    5.05    2.16
   3  10   1    0.71    1.87
   3  10   1    5.77    3.73
   3  10   1    5.07    2.16
   4  10   1   20.75    4.39
   4  10   1   24.44    2.77
   4  10   1   18.21    4.22
   4  10   1   20.75    4.39
   4  10   1   24.74    3.22
   4  10   1   24.44    2.78
   4  10   1   24.74    3.22
   4   9  -2   11.96    1.46
   4   9  -2    8.21    3.69
   4   9  -2    7.67    3.65
   4   9  -2   10.64    1.65
   4   9  -2    9.63    1.52
   4   9  -2   10.02    1.59
   4   9  -2    9.63    1.52
   4   9  -2   10.02    1.60
   4   9  -2    7.66    3.65
   4   9  -2   11.96    1.46
   4   9  -2   12.74    1.64
   4   9  -2   10.62    1.58
  -4  -9   2   13.26    1.67
  -4  -9   2   12.66    1.60
  -4  -9   2   13.26    1.67
  -4  -9   2   13.75    2.35
  -4  -9   2    9.80    1.63
  -4  -9   2    9.80    1.63
  -4  -9   2   13.75    2.35
   3   9  -2   16.37    1.57
   3   9  -2   14.12    1.73
   3   9  -2   14.12    1.74
   3   9  -2   11.44    1.58
   3   9  -2   14.95    1.78
   3   9  -2   11.44    1.58
   3   9  -2   18.58    2.22
   3   9  -2   18.58    2.22
   3   9  -2   16.37    1.57
  -3  -9   2   13.85    1.41
  -3  -9   2    8.21    1.52
  -3  -9   2    8.21    1.52
  -3  -9   2   11.27    1.74
  -3  -9   2   11.27    1.74
   2   9  -2   13.42    1.48
   2   9  -2    8.11    1.81
   2   9  -2   10.74    1.75
   2   9  -2   10.73    1.75
   2   9  -2   12.06    1.96
   2   9  -2    8.87    1.44
   2   9  -2    8.11    1.81
   2   9  -2   13.42    1.48
  -2  -9   2   15.49    2.06
  -2  -9   2    7.05    1.71
  -2  -9   2   15.49    2.06
  -2  -9   2    7.05    1.71
  -2  -9   2   12.66    1.44
   1   9  -2   67.31    2.91
   1   9  -2   70.13    3.00
   1   9  -2   67.31    2.91
   1   9  -2   73.99    3.60
   1   9  -2   73.99    3.60
   1   9  -2   71.93    3.83
  -1  -9   2   75.36    3.85
  -1  -9   2   69.97    3.79
  -1  -9   2   66.17    2.85
  -1  -9   2   66.17    2.85
  -1  -9   2   71.61    3.01
  -1  -9   2   69.97    3.79
   0   9  -2    1.45    1.70
   0   9  -2    3.70    2.38
   0   9  -2    2.39    1.52
   0   9  -2    2.39    1.52
   0   9  -2    3.40    2.48
   0   9  -2    2.73    2.44
   0   9  -2    2.73    2.44
   0  -9   2    5.46    1.91
   0  -9   2    5.46    1.91
   0  -9   2    4.45    2.70
   0  -9   2    3.22    1.62
   0  -9   2    4.45    2.70
   0  -9   2    6.44    2.46
  -1   9  -2   -0.96    2.01
  -1   9  -2    2.51    2.15
  -1   9  -2    2.51    2.15
  -1   9  -2    1.12    2.81
  -1   9  -2    1.44    2.93
   1  -9   2   -3.54    3.16
   1  -9   2   -3.54    3.16
   1  -9   2   -2.96    3.00
   5   8  -2    7.40    3.25
   5   8  -2    6.36    1.88
   5   8  -2    6.37    1.81
   5   8  -2    7.22    1.54
   5   8  -2    2.48    1.75
   5   8  -2    1.28    3.12
   5   8  -2    1.22    2.91
   5   8  -2    1.22    2.91
   5   8  -2    7.40    3.24
   5   8  -2    2.48    1.75
  -5  -8   2    4.43    1.39
  -5  -8   2    7.53    2.85
  -5  -8   2    3.57    1.44
  -5  -8   2    3.57    1.44
  -5  -8   2    6.38    1.75
  -5  -8   2    7.53    2.85
   4   8  -2    1.00    1.34
   4   8  -2   -0.99    1.10
   4   8  -2    1.00    1.28
   4   8  -2    0.86    1.27
   4   8  -2    1.16    1.37
   4   8  -2    0.53    2.42
   4   8  -2    1.16    1.37
   4   8  -2    1.89    1.27
   4   8  -2    1.89    1.27
   4   8  -2   -3.33    2.66
   4   8  -2    0.53    2.41
   4   8  -2    0.86    1.27
  -4  -8   2    0.60    1.22
  -4  -8   2    0.55    1.99
  -4  -8   2    1.20    1.28
  -4  -8   2    0.60    1.22
  -4  -8   2    0.55    1.99
  -4  -8   2    0.97    1.80
   3   8  -2   17.70    1.56
   3   8  -2   19.71    1.55
   3   8  -2   19.71    1.55
   3   8  -2   22.15    2.32
   3   8  -2   17.70    1.56
   3   8  -2   17.51    1.61
   3   8  -2   22.15    2.32
  -3  -8   2   20.36    1.79
  -3  -8   2   22.31    2.10
  -3  -8   2   25.05    1.97
  -3  -8   2   21.89    1.93
  -3  -8   2   21.89    1.93
  -3  -8   2   22.31    2.10
   2   8  -2   47.83    2.12
   2   8  -2   47.56    2.46
   2   8  -2   50.63    2.60
   2   8  -2   47.83    2.12
   2   8  -2   50.91    2.24
   2   8  -2   47.56    2.46
   2   8  -2   50.86    2.43
   2   8  -2   50.85    2.43
  -2  -8   2   53.23    2.51
  -2  -8   2   48.06    2.60
  -2  -8   2   45.44    2.21
  -2  -8   2   45.44    2.21
  -2  -8   2   53.23    2.51
  -2  -8   2   53.21    2.25
   1   8  -2   27.71    2.54
   1   8  -2   29.65    2.96
   1   8  -2   26.97    2.19
   1   8  -2   26.97    2.19
   1   8  -2   29.65    2.96
   1   8  -2   28.39    2.01
  -1  -8   2   23.27    1.91
  -1  -8   2   23.27    1.91
  -1  -8   2   33.28    2.71
  -1  -8   2   23.16    1.96
  -1  -8   2   28.91    2.53
  -1  -8   2   28.91    2.53
   0   8  -2   23.87    2.42
   0   8  -2   29.54    2.72
   0   8  -2   29.54    2.72
   0   8  -2   30.29    2.24
   0   8  -2   30.29    2.24
   0   8  -2   24.08    2.49
   0   8  -2   26.55    2.13
   0  -8   2   28.97    2.56
   0  -8   2   28.97    2.56
   0  -8   2   27.33    2.13
   0  -8   2   30.36    2.32
   0  -8   2   27.33    2.13
  -1   8  -2   21.26    3.00
  -1   8  -2   20.43    2.93
  -1   8  -2   24.55    2.37
  -1   8  -2   20.43    2.93
  -1   8  -2   21.09    2.88
  -1   8  -2   24.55    2.37
  -1   8  -2   18.40    2.23
   1  -8   2   17.93    3.34
   1  -8   2   17.93    3.34
   1  -8   2   17.48    2.27
   1  -8   2   17.48    2.27
  -2   8  -2    0.70    2.92
  -2   8  -2   -1.32    2.18
  -2   8  -2   -1.02    2.65
  -2   8  -2    5.23    2.12
  -2   8  -2    0.65    3.05
  -2   8  -2   -1.02    2.65
  -2   8  -2   -1.32    2.18
   2  -8   2    0.60    2.84
   2  -8   2   -2.22    2.02
   2  -8   2    3.08    1.90
   2  -8   2    3.08    1.90
   2  -8   2    2.60    2.86
   2  -8   2    0.60    2.84
   6   7  -2   17.81    2.04
   6   7  -2   11.68    2.49
   6   7  -2   11.57    2.37
   6   7  -2   17.31    4.11
   6   7  -2   15.11    3.11
   6   7  -2   14.40    3.06
   6   7  -2   15.19    2.47
   6   7  -2   15.06    3.11
   6   7  -2   15.19    2.47
   6   7  -2   17.31    4.11
   6   7  -2   14.46    1.90
   6   7  -2   14.46    1.90
  -6  -7   2   15.42    2.59
  -6  -7   2   15.92    1.98
  -6  -7   2   16.22    2.47
  -6  -7   2   21.17    3.45
  -6  -7   2   21.17    3.45
  -6  -7   2   16.22    2.47
   5   7  -2    5.09    1.75
   5   7  -2    3.14    2.29
   5   7  -2    5.09    1.75
   5   7  -2    3.14    2.29
   5   7  -2    4.28    1.26
   5   7  -2   -1.05    2.78
   5   7  -2    4.20    1.68
   5   7  -2    2.41    2.29
   5   7  -2    4.28    1.26
   5   7  -2    4.20    1.74
   5   7  -2   -1.05    2.78
   5   7  -2    1.27    1.31
  -5  -7   2    4.00    1.81
  -5  -7   2    5.04    1.40
  -5  -7   2    4.00    1.81
  -5  -7   2    6.68    2.39
  -5  -7   2    5.04    1.40
  -5  -7   2    6.68    2.39
  -5  -7   2    5.66    1.76
   4   7  -2   51.69    4.24
   4   7  -2   56.21    2.20
   4   7  -2   56.83    2.54
   4   7  -2   51.69    4.24
   4   7  -2   55.09    3.75
   4   7  -2   54.59    3.77
   4   7  -2   54.59    3.76
   4   7  -2   56.21    2.20
   4   7  -2   56.83    2.54
   4   7  -2   55.56    2.56
   4   7  -2   59.06    2.37
   4   7  -2   55.35    2.64
  -4  -7   2   58.04    2.21
  -4  -7   2   53.06    3.00
  -4  -7   2   56.52    3.33
  -4  -7   2   56.52    3.33
  -4  -7   2   58.99    2.64
  -4  -7   2   58.04    2.21
  -4  -7   2   52.87    2.24
  -4  -7   2   53.06    3.00
   3   7  -2   52.84    2.15
   3   7  -2   51.52    2.08
   3   7  -2   52.58    3.11
   3   7  -2   51.44    2.16
   3   7  -2   49.59    2.02
   3   7  -2   52.84    2.15
   3   7  -2   49.59    2.02
   3   7  -2   52.58    3.11
   3   7  -2   51.52    2.08
  -3  -7   2   55.29    2.90
  -3  -7   2   56.87    3.17
  -3  -7   2   56.87    3.17
  -3  -7   2   55.78    2.18
  -3  -7   2   55.29    2.90
  -3  -7   2   53.44    2.14
  -3  -7   2   55.78    2.18
  -3  -7   2   48.99    2.21
   2   7  -2   -0.63    1.06
   2   7  -2    1.08    0.93
   2   7  -2   -0.56    0.80
   2   7  -2   -0.56    0.80
   2   7  -2   -0.63    1.06
   2   7  -2    0.63    0.94
   2   7  -2    1.08    0.93
   2   7  -2    0.58    1.01
   2   7  -2    0.63    0.94
   2   7  -2    0.30    1.02
  -2  -7   2    0.10    0.98
  -2  -7   2    0.10    0.98
  -2  -7   2   -0.14    0.85
  -2  -7   2   -0.14    0.85
  -2  -7   2    1.20    1.02
  -2  -7   2    0.33    1.05
  -2  -7   2    0.33    1.05
  -2  -7   2    1.30    0.88
   1   7  -2   22.58    1.59
   1   7  -2   21.72    1.79
   1   7  -2   22.58    1.59
   1   7  -2   21.72    1.79
   1   7  -2   21.04    1.82
  -1  -7   2   28.85    2.10
  -1  -7   2   25.94    1.71
  -1  -7   2   23.09    1.65
  -1  -7   2   25.94    1.71
   0   7  -2   42.61    2.09
   0   7  -2   43.44    3.20
   0   7  -2   45.42    2.25
   0   7  -2   42.61    2.09
   0   7  -2   44.84    2.86
   0   7  -2   44.84    2.86
   0  -7   2   51.18    2.70
   0  -7   2   51.18    2.70
   0  -7   2   43.47    2.19
   0  -7   2   46.41    2.91
   0  -7   2   42.86    2.13
   0  -7   2   43.47    2.19
  -1   7  -2   37.12    2.42
  -1   7  -2   32.21    2.43
  -1   7  -2   37.01    2.95
  -1   7  -2   41.59    3.04
  -1   7  -2   37.43    3.09
  -1   7  -2   41.59    3.04
  -1   7  -2   37.12    2.42
   1  -7   2   38.89    2.59
   1  -7   2   36.09    2.46
   1  -7   2   36.24    2.97
   1  -7   2   36.24    2.97
   1  -7   2   36.09    2.46
  -2   7  -2   50.16    3.20
  -2   7  -2   50.16    3.20
  -2   7  -2   57.61    3.96
  -2   7  -2   57.61    3.96
  -2   7  -2   55.92    4.13
  -2   7  -2   55.42    3.97
  -2   7  -2   57.79    3.44
   2  -7   2   49.57    3.07
   2  -7   2   59.35    4.21
   2  -7   2   53.08    3.64
   2  -7   2   49.57    3.07
  -3   7  -2    7.54    2.43
  -3   7  -2    7.54    2.43
  -3   7  -2    5.65    2.99
  -3   7  -2    6.18    3.06
  -3   7  -2    5.68    3.13
  -3   7  -2    6.18    3.06
  -3   7  -2   13.83    2.59
   3  -7   2   11.72    2.60
   3  -7   2    2.80    3.08
   3  -7   2    2.80    3.08
   3  -7   2    7.14    3.17
   6   6  -2   14.98    2.44
   6   6  -2   17.03    2.57
   6   6  -2   14.94    1.94
   6   6  -2   15.89    3.88
   6   6  -2   17.30    2.45
   6   6  -2   14.88    2.44
   6   6  -2   17.83    2.15
   6   6  -2   17.30    2.45
   6   6  -2   15.89    3.88
   6   6  -2   15.01    2.56
   6   6  -2   17.03    2.57
   6   6  -2   14.94    1.94
  -6  -6   2   17.56    3.32
  -6  -6   2   13.14    2.60
  -6  -6   2   20.39    1.97
  -6  -6   2   17.56    3.32
  -6  -6   2   13.14    2.60
  -6  -6   2   19.59    2.71
  -6  -6   2   15.29    2.03
  -6  -6   2   20.39    1.97
   5   6  -2   14.98    1.92
   5   6  -2   13.52    1.54
   5   6  -2   13.21    2.39
   5   6  -2   15.02    2.01
   5   6  -2   12.41    1.55
   5   6  -2   13.77    2.11
   5   6  -2   13.52    1.54
   5   6  -2   10.33    1.99
   5   6  -2   15.54    2.94
   5   6  -2   13.21    2.39
   5   6  -2   13.77    2.11
   5   6  -2   15.54    2.94
  -5  -6   2   15.42    2.01
  -5  -6   2   15.92    1.77
  -5  -6   2   12.96    2.20
  -5  -6   2   12.96    2.20
  -5  -6   2   12.73    1.49
  -5  -6   2   15.42    2.01
  -5  -6   2   13.63    1.41
  -5  -6   2   12.73    1.49
  -5  -6   2   14.24    1.97
  -5  -6   2   13.63    1.41
   4   6  -2   33.99    3.01
   4   6  -2   33.73    2.80
   4   6  -2   35.69    2.20
   4   6  -2   35.98    2.22
   4   6  -2   35.69    2.20
   4   6  -2   33.72    2.80
   4   6  -2   33.99    3.01
   4   6  -2   34.42    1.74
   4   6  -2   36.00    2.30
   4   6  -2   36.74    2.80
   4   6  -2   34.42    1.74
   4   6  -2   34.96    1.93
  -4  -6   2   37.37    2.35
  -4  -6   2   33.70    1.83
  -4  -6   2   40.16    2.24
  -4  -6   2   32.32    2.81
  -4  -6   2   37.37    2.35
  -4  -6   2   40.16    2.24
  -4  -6   2   34.14    2.28
  -4  -6   2   32.32    2.81
   3   6  -2   97.78    2.80
   3   6  -2   96.32    2.72
   3   6  -2   95.54    2.66
   3   6  -2   92.23    3.79
   3   6  -2   92.23    3.79
   3   6  -2   97.84    2.86
   3   6  -2   95.54    2.66
   3   6  -2   96.32    2.72
   3   6  -2   97.84    2.86
  -3  -6   2  100.16    2.80
  -3  -6   2   92.64    2.92
  -3  -6   2   96.53    2.94
  -3  -6   2   93.73    3.56
  -3  -6   2   96.53    2.94
  -3  -6   2   96.03    2.72
  -3  -6   2   96.03    2.72
  -3  -6   2   93.73    3.56
   2   6  -2  121.51    3.33
   2   6  -2  123.66    3.26
   2   6  -2  121.22    3.17
   2   6  -2  121.68    3.11
   2   6  -2  120.57    3.65
   2   6  -2  121.69    3.11
   2   6  -2  120.57    3.65
   2   6  -2  121.22    3.17
   2   6  -2  120.80    3.24
   2   6  -2  120.80    3.24
  -2  -6   2  117.61    3.63
  -2  -6   2  120.74    3.20
  -2  -6   2  117.61    3.63
  -2  -6   2  120.16    3.29
  -2  -6   2  122.96    3.23
  -2  -6   2  120.74    3.20
  -2  -6   2  126.09    3.29
  -2  -6   2  126.09    3.29
   1   6  -2   18.35    1.63
   1   6  -2   19.54    1.69
   1   6  -2   18.35    1.63
   1   6  -2   19.03    1.30
   1   6  -2   19.03    1.30
   1   6  -2   18.56    1.40
  -1  -6   2   19.00    1.15
  -1  -6   2   20.16    1.64
  -1  -6   2   20.20    1.39
  -1  -6   2   18.56    1.63
  -1  -6   2   20.16    1.64
  -1  -6   2   20.20    1.39
  -1  -6   2   17.78    1.40
  -1  -6   2   19.00    1.15
   0   6  -2  132.25    4.25
   0   6  -2  139.23    4.22
   0   6  -2  135.50    3.70
   0   6  -2  135.77    3.83
   0   6  -2  139.23    4.22
   0   6  -2  135.50    3.70
   0  -6   2  137.75    3.75
   0  -6   2  134.74    4.05
   0  -6   2  132.58    4.19
   0  -6   2  137.75    3.75
   0  -6   2  134.74    4.05
  -1   6  -2   16.81    1.76
  -1   6  -2   18.74    2.09
  -1   6  -2   16.81    1.76
  -1   6  -2   18.77    2.09
  -1   6  -2   19.82    1.88
  -1   6  -2   18.74    2.09
   1  -6   2   17.07    1.83
   1  -6   2   18.10    2.03
   1  -6   2   17.07    1.83
   1  -6   2   17.47    2.03
   1  -6   2   18.10    2.03
   1  -6   2   15.53    1.73
  -2   6  -2   48.93    3.36
  -2   6  -2   57.74    3.58
  -2   6  -2   56.79    3.69
  -2   6  -2   49.53    2.98
  -2   6  -2   48.36    2.86
  -2   6  -2   48.93    3.36
  -2   6  -2   48.36    2.86
   2  -6   2   49.91    3.54
   2  -6   2   49.96    3.33
   2  -6   2   49.96    3.33
   2  -6   2   55.48    2.98
   2  -6   2   54.43    3.10
   2  -6   2   55.48    2.98
  -3   6  -2   15.55    2.46
  -3   6  -2   16.17    2.37
  -3   6  -2   15.53    2.78
  -3   6  -2   18.85    2.96
  -3   6  -2   16.17    2.37
  -3   6  -2   15.62    2.90
  -3   6  -2   18.85    2.96
   3  -6   2   13.03    1.36
   3  -6   2   14.04    2.34
   3  -6   2   14.04    2.34
   3  -6   2   16.33    3.05
   3  -6   2   16.93    2.65
   3  -6   2   13.03    1.36
  -4   6  -2   38.29    4.04
  -4   6  -2   38.48    4.23
  -4   6  -2   34.87    3.47
  -4   6  -2   34.87    3.47
  -4   6  -2   39.41    3.78
  -4   6  -2   38.35    3.83
  -4   6  -2   39.41    3.78
   4  -6   2   39.19    3.65
   4  -6   2   30.90    4.31
   4  -6   2   34.71    4.15
   4  -6   2   33.88    3.04
   4  -6   2   33.88    3.04
   4  -6   2   34.47    3.80
   4  -6   2   39.19    3.65
   4  -6   2   34.71    4.15
   6   5  -2   41.61    2.94
   6   5  -2   42.06    3.31
   6   5  -2   39.78    4.39
   6   5  -2   47.20    3.35
   6   5  -2   47.20    3.35
   6   5  -2   41.61    2.94
   6   5  -2   43.31    3.64
   6   5  -2   39.78    4.39
   6   5  -2   43.42    3.51
  -6  -5   2   43.58    2.61
  -6  -5   2   52.15    4.57
  -6  -5   2   39.38    3.44
  -6  -5   2   43.58    2.61
  -6  -5   2   52.15    4.57
  -6  -5   2   39.38    3.44
  -6  -5   2   42.97    3.62
   5   5  -2    2.27    1.13
   5   5  -2    2.27    1.13
   5   5  -2    3.07    1.53
   5   5  -2    2.04    1.33
   5   5  -2    5.99    2.59
   5   5  -2    1.12    1.57
   5   5  -2    1.11    1.50
   5   5  -2    2.57    1.56
   5   5  -2    2.57    1.56
   5   5  -2    5.99    2.59
  -5  -5   2    2.15    1.15
  -5  -5   2    3.30    2.20
  -5  -5   2    3.60    1.39
  -5  -5   2    3.30    2.20
  -5  -5   2    0.98    1.66
  -5  -5   2    3.60    1.39
  -5  -5   2    1.81    1.14
  -5  -5   2    2.36    1.54
  -5  -5   2    2.22    1.15
  -5  -5   2    2.36    1.54
   4   5  -2   14.92    1.81
   4   5  -2   14.12    1.60
   4   5  -2   15.86    1.58
   4   5  -2   12.96    2.35
   4   5  -2   14.00    1.22
   4   5  -2   14.18    1.67
   4   5  -2   14.00    1.22
   4   5  -2   11.82    1.26
   4   5  -2   13.93    1.82
   4   5  -2   12.96    2.35
   4   5  -2   13.93    1.82
   4   5  -2   15.86    1.58
  -4  -5   2   13.21    1.22
  -4  -5   2   12.76    1.25
  -4  -5   2   13.99    1.12
  -4  -5   2   14.84    1.65
  -4  -5   2   14.58    2.04
  -4  -5   2   13.73    1.64
  -4  -5   2   14.58    2.04
  -4  -5   2   13.73    1.64
  -4  -5   2   13.98    1.12
  -4  -5   2   13.21    1.22
   3   5  -2   81.52    2.59
   3   5  -2   81.19    2.41
   3   5  -2   82.11    2.67
   3   5  -2   80.44    2.47
   3   5  -2   85.13    2.66
   3   5  -2   84.36    3.52
   3   5  -2   85.13    2.66
   3   5  -2   84.36    3.52
   3   5  -2   81.19    2.41
  -3  -5   2   82.64    3.31
  -3  -5   2   83.92    2.64
  -3  -5   2   82.64    3.31
  -3  -5   2   82.05    2.66
  -3  -5   2   83.92    2.64
  -3  -5   2   83.55    2.43
  -3  -5   2   81.53    2.46
  -3  -5   2   83.55    2.43
   2   5  -2   54.28    1.85
   2   5  -2   54.73    1.90
   2   5  -2   53.69    1.87
   2   5  -2   56.25    1.85
   2   5  -2   53.09    2.39
   2   5  -2   55.68    1.68
   2   5  -2   53.09    2.39
   2   5  -2   55.67    1.67
   2   5  -2   54.28    1.85
   2   5  -2   56.25    1.85
  -2  -5   2   57.61    1.90
  -2  -5   2   54.81    1.85
  -2  -5   2   55.43    1.88
  -2  -5   2   53.29    2.38
  -2  -5   2   53.29    2.38
  -2  -5   2   56.04    1.88
  -2  -5   2   56.04    1.88
  -2  -5   2   54.81    1.85
   1   5  -2  209.38    4.73
   1   5  -2  207.78    4.90
   1   5  -2  207.78    4.90
   1   5  -2  209.25    4.72
   1   5  -2  209.38    4.73
   1   5  -2  205.34    4.93
   1   5  -2  209.25    4.72
   1   5  -2  203.65    4.79
  -1  -5   2  204.03    4.75
  -1  -5   2  204.46    4.75
  -1  -5   2  212.10    4.96
  -1  -5   2  200.73    4.84
  -1  -5   2  201.47    4.73
  -1  -5   2  200.73    4.84
  -1  -5   2  204.03    4.75
  -1  -5   2  201.47    4.73
   0   5  -2   48.26    2.15
   0   5  -2   48.26    2.15
   0   5  -2   52.03    2.02
   0   5  -2   52.03    2.02
   0   5  -2   48.53    2.01
   0   5  -2   49.63    2.23
   0  -5   2   47.58    1.91
   0  -5   2   55.35    2.20
   0  -5   2   47.58    1.91
   0  -5   2   55.35    2.20
   0  -5   2   51.20    2.22
  -1   5  -2   18.86    1.84
  -1   5  -2   17.78    1.56
  -1   5  -2   17.72    1.86
  -1   5  -2   18.86    1.84
  -1   5  -2   17.78    1.56
  -1   5  -2   16.89    1.59
   1  -5   2   20.64    1.81
   1  -5   2   17.98    1.64
   1  -5   2   20.64    1.81
   1  -5   2   16.39    1.56
   1  -5   2   16.39    1.56
   1  -5   2   18.43    1.83
  -2   5  -2   24.10    2.20
  -2   5  -2   23.99    2.37
  -2   5  -2   23.99    2.37
  -2   5  -2   28.26    2.59
  -2   5  -2   28.24    2.48
  -2   5  -2   25.33    1.83
  -2   5  -2   25.33    1.83
   2  -5   2   26.54    2.47
   2  -5   2   21.87    1.30
   2  -5   2   22.93    2.08
   2  -5   2   25.27    2.20
   2  -5   2   21.87    1.30
   2  -5   2   24.22    2.34
   2  -5   2   24.22    2.34
   2  -5   2   22.93    2.08
  -3   5  -2   80.60    4.32
  -3   5  -2   80.73    4.17
  -3   5  -2   81.43    3.43
  -3   5  -2   82.76    3.85
  -3   5  -2   82.65    3.83
  -3   5  -2   81.43    3.43
  -3   5  -2   82.76    3.85
   3  -5   2   77.15    4.40
   3  -5   2   87.59    3.83
   3  -5   2   87.59    3.83
   3  -5   2   82.95    3.11
   3  -5   2   84.90    4.05
   3  -5   2   82.95    3.11
  -4   5  -2    9.97    2.37
  -4   5  -2    4.37    2.62
  -4   5  -2   10.60    2.44
  -4   5  -2   10.60    2.44
  -4   5  -2    9.97    2.37
  -4   5  -2    4.35    2.51
  -4   5  -2    7.54    2.56
   4  -5   2   10.88    3.16
   4  -5   2    8.19    2.42
   4  -5   2   11.17    3.08
   4  -5   2   11.17    3.08
   4  -5   2   10.61    2.12
   4  -5   2    9.04    2.69
   4  -5   2   10.61    2.12
   4  -5   2    8.19    2.42
   7   4  -2   16.44    3.29
   7   4  -2   19.20    2.99
   7   4  -2   16.00    3.13
   7   4  -2   20.11    4.74
   7   4  -2   21.07    3.32
   7   4  -2   24.87    3.14
   7   4  -2   21.07    3.32
   7   4  -2   24.87    3.14
   7   4  -2   20.11    4.74
  -7  -4   2   26.84    3.82
  -7  -4   2   24.73    3.40
  -7  -4   2   18.07    3.22
  -7  -4   2   24.73    3.40
  -7  -4   2   17.91    2.64
  -7  -4   2   16.32    4.03
  -7  -4   2   17.91    2.64
  -7  -4   2   16.32    4.03
  -7  -4   2   18.07    3.22
   6   4  -2   55.82    3.97
   6   4  -2   56.04    3.14
   6   4  -2   50.99    3.24
   6   4  -2   56.04    3.14
   6   4  -2   41.06    3.73
   6   4  -2   66.74    5.32
   6   4  -2   41.19    3.61
   6   4  -2   55.82    3.97
   6   4  -2   66.74    5.32
  -6  -4   2   55.03    4.57
  -6  -4   2   52.41    4.45
  -6  -4   2   48.88    3.64
  -6  -4   2   48.88    3.64
  -6  -4   2   43.47    2.84
  -6  -4   2   52.41    4.45
  -6  -4   2   43.48    2.84
   5   4  -2  141.64    4.14
   5   4  -2  141.64    4.14
   5   4  -2  137.33    5.64
   5   4  -2  141.92    4.08
   5   4  -2  137.33    5.64
   5   4  -2  141.91    4.08
   5   4  -2  141.44    4.07
   5   4  -2  138.44    4.68
   5   4  -2  133.55    4.25
   5   4  -2  139.21    4.57
  -5  -4   2  141.21    4.67
  -5  -4   2  140.78    4.04
  -5  -4   2  141.21    4.67
  -5  -4   2  138.52    5.50
  -5  -4   2  138.52    5.50
  -5  -4   2  140.76    4.05
  -5  -4   2  167.66    6.16
   4   4  -2   27.39    2.19
   4   4  -2   28.12    1.75
   4   4  -2   27.47    2.12
   4   4  -2   28.06    1.70
   4   4  -2   26.93    2.04
   4   4  -2   29.45    2.02
   4   4  -2   26.65    1.97
   4   4  -2   26.93    2.04
   4   4  -2   26.65    1.97
   4   4  -2   30.03    2.75
   4   4  -2   30.03    2.75
   4   4  -2   28.12    1.75
  -4  -4   2   29.45    2.13
  -4  -4   2   29.01    1.59
  -4  -4   2   28.04    2.50
  -4  -4   2   29.01    1.59
  -4  -4   2   28.04    2.50
  -4  -4   2   27.79    2.15
  -4  -4   2   29.09    1.64
  -4  -4   2   29.09    1.64
  -4  -4   2   27.79    2.15
   3   4  -2  148.80    3.62
   3   4  -2  150.92    3.92
   3   4  -2  150.92    3.92
   3   4  -2  141.13    3.89
   3   4  -2  140.82    3.82
   3   4  -2  149.66    3.73
   3   4  -2  145.05    4.57
   3   4  -2  145.05    4.57
   3   4  -2  148.80    3.62
  -3  -4   2  155.30    3.69
  -3  -4   2  144.35    3.83
  -3  -4   2  155.30    3.69
  -3  -4   2  150.93    3.38
  -3  -4   2  150.11    3.94
  -3  -4   2  144.35    3.83
  -3  -4   2  150.96    3.38
  -3  -4   2  141.08    4.50
  -3  -4   2  146.84    3.67
  -3  -4   2  141.08    4.50
   2   4  -2   97.69    2.55
   2   4  -2   96.26    2.60
   2   4  -2   96.93    2.28
   2   4  -2   93.09    2.62
   2   4  -2   99.31    3.13
   2   4  -2   96.93    2.28
   2   4  -2   97.69    2.55
   2   4  -2   99.31    3.13
  -2  -4   2   98.46    2.55
  -2  -4   2   98.46    2.55
  -2  -4   2   97.66    3.13
  -2  -4   2   95.87    2.58
  -2  -4   2   98.28    2.65
  -2  -4   2   97.66    3.13
  -2  -4   2   95.68    2.57
  -2  -4   2   95.87    2.58
   1   4  -2   54.39    1.77
   1   4  -2   53.72    1.87
   1   4  -2   53.91    1.72
   1   4  -2   52.76    1.72
   1   4  -2   52.76    1.72
   1   4  -2   53.91    1.72
   1   4  -2   53.72    1.87
  -1  -4   2   54.30    1.70
  -1  -4   2   53.48    1.72
  -1  -4   2   54.34    1.74
  -1  -4   2   54.30    1.70
  -1  -4   2   54.34    1.74
  -1  -4   2   50.58    1.87
  -1  -4   2   50.58    1.87
  -1  -4   2   55.05    1.82
   0   4  -2   62.71    2.12
   0   4  -2   61.43    2.04
   0   4  -2   63.55    2.18
   0   4  -2   63.99    2.23
   0   4  -2   61.43    2.04
   0   4  -2   63.55    2.18
   0  -4   2   61.01    2.00
   0  -4   2   61.01    2.00
   0  -4   2   58.44    1.60
   0  -4   2   60.45    2.25
   0  -4   2   60.00    2.11
   0  -4   2   60.00    2.11
   0  -4   2   58.44    1.60
  -1   4  -2  124.84    3.64
  -1   4  -2  133.47    3.85
  -1   4  -2  121.90    3.55
  -1   4  -2  133.47    3.85
  -1   4  -2  121.90    3.55
  -1   4  -2  128.73    3.88
   1  -4   2  129.08    3.88
   1  -4   2  121.26    3.55
   1  -4   2  125.69    3.74
   1  -4   2  129.22    3.66
   1  -4   2  122.30    2.82
   1  -4   2  121.26    3.55
   1  -4   2  125.69    3.74
   1  -4   2  122.30    2.82
  -2   4  -2   34.30    2.13
  -2   4  -2   33.43    2.45
  -2   4  -2   33.51    2.38
  -2   4  -2   34.30    2.13
  -2   4  -2   33.62    2.11
  -2   4  -2   33.62    2.11
  -2   4  -2   32.38    2.18
   2  -4   2   32.24    1.62
   2  -4   2   32.22    2.18
   2  -4   2   31.01    2.36
   2  -4   2   33.33    1.92
   2  -4   2   38.81    2.59
   2  -4   2   31.01    2.36
   2  -4   2   32.24    1.62
   2  -4   2   33.33    1.92
  -3   4  -2   95.10    4.00
  -3   4  -2   98.44    4.02
  -3   4  -2   90.49    3.88
  -3   4  -2   90.49    3.88
  -3   4  -2   97.98    3.88
  -3   4  -2   89.80    3.79
  -3   4  -2   89.80    3.79
   3  -4   2   99.57    3.41
   3  -4   2   93.74    3.53
   3  -4   2   93.74    3.53
   3  -4   2   99.57    3.41
   3  -4   2   96.47    4.13
   3  -4   2   96.47    4.13
   3  -4   2   98.62    3.97
  -4   4  -2   46.20    3.92
  -4   4  -2   54.13    3.48
  -4   4  -2   57.84    3.60
  -4   4  -2   57.84    3.60
  -4   4  -2   46.10    4.06
  -4   4  -2   54.13    3.48
   4  -4   2   55.65    3.33
   4  -4   2   53.08    3.48
   4  -4   2   62.19    3.90
   4  -4   2   55.96    4.26
   4  -4   2   55.65    3.33
   4  -4   2   53.08    3.48
   4  -4   2   56.40    3.63
   4  -4   2   56.40    3.63
  -5   4  -2   -0.54    3.14
  -5   4  -2    2.15    2.42
  -5   4  -2    0.66    2.54
  -5   4  -2    1.54    2.63
  -5   4  -2    1.54    2.63
  -5   4  -2   -0.54    2.99
  -5   4  -2    2.15    2.42
   5  -4   2   -1.15    3.17
   5  -4   2    0.89    2.65
   5  -4   2    0.89    2.65
   5  -4   2   -1.15    3.17
   5  -4   2   -0.25    2.53
   5  -4   2    0.33    2.64
   5  -4   2    0.33    2.64
   5  -4   2   -0.43    3.14
   7   3  -2    7.14    2.97
   7   3  -2    7.14    2.97
   7   3  -2    5.45    4.38
   7   3  -2   11.52    3.20
   7   3  -2   11.00    3.36
   7   3  -2    5.45    4.38
   7   3  -2   15.05    3.18
  -7  -3   2   16.19    2.82
  -7  -3   2    9.34    3.13
  -7  -3   2   18.31    3.39
  -7  -3   2    8.38    2.96
  -7  -3   2   16.17    2.81
  -7  -3   2    8.38    2.96
  -7  -3   2   10.18    3.49
  -7  -3   2   18.31    3.39
  -7  -3   2    9.34    3.13
   6   3  -2   35.56    2.97
   6   3  -2   32.55    3.08
   6   3  -2   36.49    3.25
   6   3  -2   36.64    3.39
   6   3  -2   35.56    2.97
   6   3  -2   32.55    3.08
   6   3  -2   32.25    2.90
  -6  -3   2   38.51    2.79
  -6  -3   2   30.34    3.14
  -6  -3   2   38.51    2.79
  -6  -3   2   31.88    3.26
  -6  -3   2   30.34    3.14
  -6  -3   2   30.78    3.61
  -6  -3   2   30.78    3.61
   5   3  -2    3.19    1.44
   5   3  -2    3.18    2.53
   5   3  -2    0.96    1.85
   5   3  -2    0.96    1.85
   5   3  -2    3.19    1.44
   5   3  -2    5.04    1.59
   5   3  -2    2.61    2.20
   5   3  -2    2.61    2.20
   5   3  -2    3.22    2.66
  -5  -3   2    1.07    1.59
  -5  -3   2    5.03    1.41
  -5  -3   2    2.09    1.26
  -5  -3   2    2.32    2.13
  -5  -3   2    2.32    2.13
  -5  -3   2    2.09    1.27
  -5  -3   2    5.03    1.41
  -5  -3   2    1.07    1.59
  -5  -3   2    0.72    1.74
   4   3  -2  144.36    4.27
   4   3  -2  137.48    3.89
   4   3  -2  135.68    4.95
   4   3  -2  146.41    4.05
   4   3  -2  146.46    3.71
   4   3  -2  139.22    4.18
   4   3  -2  139.22    4.18
   4   3  -2  145.19    3.69
   4   3  -2  135.68    4.95
   4   3  -2  143.46    4.36
   4   3  -2  146.47    3.71
   4   3  -2  137.48    3.89
  -4  -3   2  141.30    3.93
  -4  -3   2  136.40    4.20
  -4  -3   2  135.13    3.77
  -4  -3   2  140.97    4.68
  -4  -3   2  136.40    4.20
  -4  -3   2  136.87    3.91
  -4  -3   2  137.48    4.32
  -4  -3   2  141.30    3.93
  -4  -3   2  135.14    3.77
  -4  -3   2  140.97    4.68
   3   3  -2  212.94    5.32
   3   3  -2  223.00    5.03
   3   3  -2  213.98    5.25
   3   3  -2  218.64    5.29
   3   3  -2  223.09    5.93
   3   3  -2  215.66    5.11
   3   3  -2  223.00    5.03
   3   3  -2  218.64    5.29
   3   3  -2  223.09    5.93
  -3  -3   2  219.36    5.08
  -3  -3   2  213.96    5.03
  -3  -3   2  213.96    5.03
  -3  -3   2  210.03    5.22
  -3  -3   2  214.36    5.88
  -3  -3   2  210.03    5.22
  -3  -3   2  210.91    4.76
  -3  -3   2  210.91    4.76
  -3  -3   2  214.36    5.88
   2   3  -2   65.85    1.85
   2   3  -2   66.85    2.01
   2   3  -2   64.88    1.92
   2   3  -2   65.85    1.85
   2   3  -2   66.85    2.01
   2   3  -2   58.11    1.93
   2   3  -2   63.61    2.41
   2   3  -2   63.61    2.41
  -2  -3   2   64.36    1.88
  -2  -3   2   62.71    1.87
  -2  -3   2   63.54    1.93
  -2  -3   2   63.54    1.93
  -2  -3   2   63.44    2.46
  -2  -3   2   64.36    1.88
  -2  -3   2   63.44    2.46
   1   3  -2    1.12    0.44
   1   3  -2    1.47    0.50
   1   3  -2    0.88    0.49
   1   3  -2    1.12    0.44
   1   3  -2    1.86    0.61
   1   3  -2    1.57    0.46
   1   3  -2    1.86    0.61
   1   3  -2    1.57    0.46
  -1  -3   2    0.80    0.46
  -1  -3   2    1.09    0.48
  -1  -3   2    1.04    0.42
  -1  -3   2    1.04    0.42
  -1  -3   2    1.23    0.66
  -1  -3   2    1.23    0.66
  -1  -3   2    0.80    0.46
   0   3  -2   92.15    2.53
   0   3  -2   86.15    2.36
   0   3  -2   86.63    2.42
   0   3  -2   89.48    2.47
   0   3  -2   89.48    2.47
   0   3  -2   86.15    2.36
   0  -3   2   84.31    2.18
   0  -3   2   86.23    2.45
   0  -3   2   86.02    2.50
   0  -3   2   86.23    2.45
   0  -3   2   90.84    2.43
   0  -3   2   84.31    2.18
   0  -3   2   88.94    2.39
   0  -3   2   88.94    2.39
  -1   3  -2  150.42    3.95
  -1   3  -2  138.31    3.72
  -1   3  -2  143.71    3.98
  -1   3  -2  150.42    3.95
  -1   3  -2  140.65    3.83
  -1   3  -2  138.31    3.72
   1  -3   2  143.88    3.25
   1  -3   2  141.08    3.69
   1  -3   2  141.08    3.69
   1  -3   2  142.90    3.86
   1  -3   2  143.88    3.25
   1  -3   2  142.90    3.86
   1  -3   2  142.48    3.81
   1  -3   2  139.75    3.95
  -2   3  -2   77.84    2.97
  -2   3  -2   76.19    2.70
  -2   3  -2   76.19    2.70
  -2   3  -2   77.98    3.04
  -2   3  -2   80.65    3.16
  -2   3  -2   77.98    3.04
   2  -3   2   73.88    2.93
   2  -3   2   81.12    2.91
   2  -3   2   82.12    3.18
   2  -3   2   78.14    2.44
   2  -3   2   75.92    2.98
   2  -3   2   75.92    2.98
   2  -3   2   81.12    2.91
   2  -3   2   78.14    2.44
  -3   3  -2   89.84    3.54
  -3   3  -2   89.84    3.54
  -3   3  -2   95.22    3.89
  -3   3  -2   91.96    3.36
  -3   3  -2   91.96    3.36
  -3   3  -2   95.00    4.00
  -3   3  -2   97.30    3.82
   3  -3   2   98.12    3.33
   3  -3   2   88.95    3.52
   3  -3   2   96.17    3.99
   3  -3   2   98.12    3.33
   3  -3   2   90.16    3.73
   3  -3   2   88.95    3.52
   3  -3   2   92.56    3.79
   3  -3   2   92.56    3.79
  -4   3  -2   13.05    2.22
  -4   3  -2   11.26    2.35
  -4   3  -2   11.26    2.35
  -4   3  -2   11.70    2.36
  -4   3  -2   13.05    2.22
  -4   3  -2    8.63    2.07
  -4   3  -2   11.66    2.26
   4  -3   2    8.55    1.68
   4  -3   2    8.55    1.68
   4  -3   2    6.37    1.85
   4  -3   2   13.32    2.42
   4  -3   2   10.73    2.05
   4  -3   2   13.32    2.42
   4  -3   2   10.50    2.19
   4  -3   2   10.73    2.05
  -5   3  -2   47.52    4.15
  -5   3  -2   46.43    3.73
  -5   3  -2   39.40    3.82
  -5   3  -2   46.14    3.57
  -5   3  -2   50.23    3.82
  -5   3  -2   39.40    3.82
  -5   3  -2   50.23    3.82
   5  -3   2   56.65    4.34
   5  -3   2   53.65    4.19
   5  -3   2   49.37    3.76
   5  -3   2   56.65    4.34
   5  -3   2   50.15    3.80
   5  -3   2   52.33    4.65
   5  -3   2   50.15    3.80
   5  -3   2   52.33    4.65
   7   2  -2   -0.63    2.49
   7   2  -2    0.23    2.90
   7   2  -2   -1.27    3.11
   7   2  -2   -1.95    3.98
   7   2  -2   -1.05    2.95
   7   2  -2   -0.63    2.49
   7   2  -2   -1.50    2.99
   7   2  -2   -1.95    3.98
   7   2  -2   -1.05    2.95
  -7  -2   2   -4.47    2.09
  -7  -2   2    5.75    2.94
  -7  -2   2    2.86    2.53
  -7  -2   2   -2.24    3.34
  -7  -2   2   -1.76    2.76
  -7  -2   2   -2.25    3.31
  -7  -2   2   -1.76    2.76
  -7  -2   2    2.88    2.53
  -7  -2   2   -4.47    2.09
  -7  -2   2    5.81    3.10
  -7  -2   2   -2.24    3.34
   6   2  -2   15.12    2.39
   6   2  -2   15.43    2.80
   6   2  -2   19.08    2.69
   6   2  -2   15.22    2.68
   6   2  -2   15.22    2.68
   6   2  -2   15.12    2.39
   6   2  -2   15.49    2.69
  -6  -2   2   15.78    2.87
  -6  -2   2   18.12    2.43
  -6  -2   2   15.14    3.01
  -6  -2   2   16.11    2.47
  -6  -2   2   16.11    2.47
  -6  -2   2   15.14    3.01
  -6  -2   2   18.31    2.55
  -6  -2   2   15.53    2.35
  -6  -2   2   15.53    2.35
   5   2  -2   14.12    1.94
   5   2  -2   10.34    2.07
   5   2  -2    9.69    2.36
   5   2  -2   14.12    1.94
   5   2  -2   12.20    1.90
   5   2  -2    9.69    2.36
   5   2  -2   10.25    1.97
  -5  -2   2    8.59    1.45
  -5  -2   2   10.28    1.78
  -5  -2   2   10.17    1.69
  -5  -2   2   10.52    2.04
  -5  -2   2   10.52    2.04
  -5  -2   2   10.26    2.09
  -5  -2   2    8.59    1.45
   4   2  -2   52.21    3.17
   4   2  -2   50.42    2.52
   4   2  -2   50.42    2.52
   4   2  -2   55.28    2.20
   4   2  -2   47.64    2.48
   4   2  -2   47.59    2.57
   4   2  -2   52.21    3.17
   4   2  -2   52.48    2.48
   4   2  -2   55.28    2.20
  -4  -2   2   53.49    2.35
  -4  -2   2   50.41    2.31
  -4  -2   2   53.99    2.44
  -4  -2   2   48.82    2.70
  -4  -2   2   52.66    2.74
  -4  -2   2   48.82    2.70
  -4  -2   2   48.75    2.34
  -4  -2   2   50.41    2.31
  -4  -2   2   48.75    2.34
   3   2  -2  323.76    7.31
   3   2  -2  325.68    7.43
   3   2  -2  321.98    7.51
   3   2  -2  323.22    7.43
   3   2  -2  308.57    7.85
   3   2  -2  325.68    7.43
   3   2  -2  308.57    7.85
   3   2  -2  328.10    7.23
   3   2  -2  328.10    7.23
  -3  -2   2  335.60    7.47
  -3  -2   2  324.09    7.24
  -3  -2   2  327.60    7.53
  -3  -2   2  335.60    7.47
  -3  -2   2  323.09    7.93
  -3  -2   2  323.09    7.93
  -3  -2   2  324.09    7.24
   2   2  -2  244.11    5.38
   2   2  -2  244.91    5.39
   2   2  -2  236.86    5.25
   2   2  -2  236.86    5.25
   2   2  -2  240.13    5.87
   2   2  -2  245.99    5.46
   2   2  -2  236.08    5.30
   2   2  -2  244.91    5.39
   2   2  -2  240.13    5.87
  -2  -2   2  236.04    5.29
  -2  -2   2  235.81    4.96
  -2  -2   2  237.25    5.87
  -2  -2   2  235.94    5.25
  -2  -2   2  235.94    5.25
  -2  -2   2  237.05    5.36
  -2  -2   2  237.05    5.36
  -2  -2   2  237.25    5.87
  -2  -2   2  235.82    4.95
   1   2  -2  145.19    3.64
   1   2  -2  146.94    3.38
   1   2  -2  146.94    3.38
   1   2  -2  146.59    3.40
   1   2  -2  147.33    3.36
   1   2  -2  145.19    3.64
   1   2  -2  147.33    3.36
   1   2  -2  151.15    3.40
  -1  -2   2  148.63    3.36
  -1  -2   2  149.34    3.37
  -1  -2   2  148.63    3.36
  -1  -2   2  149.34    3.37
  -1  -2   2  150.40    3.68
  -1  -2   2  148.54    3.39
  -1  -2   2  150.40    3.68
   0   2  -2  339.74    7.11
   0   2  -2  341.52    7.11
   0   2  -2  340.80    7.06
   0   2  -2  339.74    7.11
   0   2  -2  340.80    7.06
   0   2  -2  341.62    7.15
   0  -2   2  342.29    7.07
   0  -2   2  327.42    7.09
   0  -2   2  329.19    7.14
   0  -2   2  334.05    7.01
   0  -2   2  327.42    7.09
   0  -2   2  342.29    7.07
   0  -2   2  335.96    7.09
   0  -2   2  334.05    7.01
  -1   2  -2  966.68   19.33
  -1   2  -2  966.68   19.33
  -1   2  -2  972.37   19.40
  -1   2  -2  944.01   19.20
  -1   2  -2  962.34   19.28
  -1   2  -2  944.01   19.20
   1  -2   2  931.92   19.27
   1  -2   2  941.18   19.36
   1  -2   2  951.83   19.20
   1  -2   2  931.92   19.27
   1  -2   2  951.83   19.20
   1  -2   2  954.94   19.25
  -2   2  -2    7.15    1.21
  -2   2  -2    6.70    1.16
  -2   2  -2    7.15    1.21
  -2   2  -2    6.42    1.15
  -2   2  -2    6.35    0.97
  -2   2  -2    6.35    0.97
   2  -2   2    6.26    0.90
   2  -2   2    9.20    1.20
   2  -2   2    7.08    1.20
   2  -2   2    6.26    0.90
   2  -2   2    5.90    1.09
   2  -2   2    7.82    1.13
   2  -2   2    9.20    1.20
   2  -2   2    5.90    1.09
  -3   2  -2    1.72    1.37
  -3   2  -2    0.80    0.94
  -3   2  -2    1.72    1.37
  -3   2  -2    0.32    1.20
  -3   2  -2    1.83    1.30
  -3   2  -2    1.83    1.35
  -3   2  -2    0.32    1.20
   3  -2   2    1.70    1.09
   3  -2   2    1.94    1.27
   3  -2   2    1.94    1.27
   3  -2   2    2.94    1.18
   3  -2   2    1.70    1.09
   3  -2   2    0.58    1.20
   3  -2   2    1.04    1.18
   3  -2   2    0.58    1.20
  -4   2  -2   58.23    2.88
  -4   2  -2   58.33    3.02
  -4   2  -2   62.75    3.47
  -4   2  -2   57.75    3.42
  -4   2  -2   58.33    3.02
  -4   2  -2   57.62    3.54
  -4   2  -2   58.23    2.88
   4  -2   2   58.24    3.60
   4  -2   2   51.87    2.76
   4  -2   2   55.95    3.09
   4  -2   2   55.95    3.09
   4  -2   2   53.59    3.29
   4  -2   2   51.87    2.76
  -5   2  -2   53.16    3.84
  -5   2  -2   61.08    4.27
  -5   2  -2   58.44    3.69
  -5   2  -2   61.08    4.27
  -5   2  -2   53.37    3.19
  -5   2  -2   58.07    3.53
  -5   2  -2   53.37    3.19
   5  -2   2   52.37    3.16
   5  -2   2   59.56    3.99
   5  -2   2   58.38    4.26
   5  -2   2   58.38    4.26
   5  -2   2   54.79    3.94
   5  -2   2   60.72    4.23
   5  -2   2   54.79    3.94
   5  -2   2   52.37    3.16
  -6   2  -2   43.20    3.95
  -6   2  -2   46.11    4.01
  -6   2  -2   46.17    4.28
  -6   2  -2   43.20    3.95
  -6   2  -2   47.12    4.29
  -6   2  -2   46.11    4.01
  -6   2  -2   46.29    4.46
   6  -2   2   48.28    4.60
   6  -2   2   43.73    3.99
   6  -2   2   43.20    4.54
   6  -2   2   42.85    3.72
   6  -2   2   43.20    4.54
   6  -2   2   43.81    4.46
   6  -2   2   43.73    3.99
   6  -2   2   48.28    4.60
   7   1  -2   36.80    3.97
   6   1  -2   28.33    3.19
   6   1  -2   30.78    3.21
   6   1  -2   31.50    3.38
   6   1  -2   32.03    3.05
   6   1  -2   32.03    3.05
   6   1  -2   31.39    3.22
   6   1  -2   28.33    3.19
  -6  -1   2   27.98    2.98
  -6  -1   2   34.53    3.79
  -6  -1   2   27.71    2.84
  -6  -1   2   25.44    3.25
  -6  -1   2   34.53    3.79
  -6  -1   2   40.04    3.80
  -6  -1   2   25.44    3.25
   5   1  -2   31.09    2.92
   5   1  -2   28.07    3.25
   5   1  -2   30.47    2.24
   5   1  -2   31.76    2.76
   5   1  -2   30.94    2.79
   5   1  -2   30.47    2.24
   5   1  -2   36.79    3.29
   5   1  -2   28.07    3.25
   5   1  -2   36.79    3.29
  -5  -1   2   30.97    2.41
  -5  -1   2   30.97    2.41
  -5  -1   2   30.94    2.50
  -5  -1   2   30.34    2.64
  -5  -1   2   30.94    2.50
  -5  -1   2   34.35    3.03
  -5  -1   2   30.48    2.76
   4   1  -2   95.18    3.35
   4   1  -2   96.53    3.73
   4   1  -2   95.18    3.35
   4   1  -2   96.53    3.73
   4   1  -2   88.48    3.44
   4   1  -2   86.58    3.39
   4   1  -2   86.58    3.39
   4   1  -2   96.23    3.48
   4   1  -2   88.25    3.54
  -4  -1   2   88.28    3.10
  -4  -1   2   92.25    3.89
  -4  -1   2  101.63    3.34
  -4  -1   2   91.73    3.69
  -4  -1   2   93.31    3.59
  -4  -1   2   92.25    3.89
  -4  -1   2   88.28    3.10
  -4  -1   2  101.93    3.45
  -4  -1   2   93.31    3.59
   3   1  -2   92.95    3.07
   3   1  -2   87.40    2.90
   3   1  -2   99.24    3.47
   3   1  -2   91.81    2.02
   3   1  -2   99.24    3.47
   3   1  -2   87.63    2.99
   3   1  -2   94.74    2.92
   3   1  -2   89.07    2.01
   3   1  -2   94.74    2.92
   3   1  -2   87.63    2.99
   3   1  -2   91.81    2.02
   3   1  -2   92.44    3.14
  -3  -1   2   90.99    2.85
  -3  -1   2   96.03    2.89
  -3  -1   2   92.48    3.15
  -3  -1   2   87.77    3.23
  -3  -1   2   96.03    2.89
  -3  -1   2   88.46    3.04
  -3  -1   2   87.77    3.23
  -3  -1   2   88.46    3.04
  -3  -1   2   91.00    2.93
   2   1  -2   55.40    1.71
   2   1  -2   52.76    2.18
   2   1  -2   54.30    1.91
   2   1  -2   52.76    2.18
   2   1  -2   50.97    1.83
   2   1  -2   54.47    1.86
   2   1  -2   51.77    1.81
   2   1  -2   55.40    1.71
   2   1  -2   50.97    1.83
  -2  -1   2   52.99    1.87
  -2  -1   2   54.39    1.92
  -2  -1   2   56.43    1.79
  -2  -1   2   49.40    2.04
  -2  -1   2   52.99    1.87
  -2  -1   2   56.43    1.79
  -2  -1   2   49.40    2.04
   1   1  -2   18.82    0.85
   1   1  -2   20.97    0.91
   1   1  -2   18.16    0.83
   1   1  -2   21.46    0.79
   1   1  -2   21.46    0.79
   1   1  -2   18.72    1.09
   1   1  -2   18.72    1.09
   1   1  -2   18.82    0.85
  -1  -1   2   18.74    0.81
  -1  -1   2   20.99    0.91
  -1  -1   2   18.67    1.11
  -1  -1   2   18.36    0.79
  -1  -1   2   18.67    1.11
  -1  -1   2   18.92    0.85
  -1  -1   2   18.74    0.81
  -1  -1   2   18.36    0.79
   0   1  -2  621.68   12.59
   0   1  -2  643.66   12.66
   0   1  -2  629.37   12.62
   0   1  -2  621.68   12.59
   0   1  -2  629.37   12.62
   0   1  -2  630.14   12.63
   0  -1   2  643.39   12.61
   0  -1   2  616.37   12.60
   0  -1   2  643.39   12.61
   0  -1   2  646.49   12.64
   0  -1   2  616.37   12.60
   0  -1   2  624.90   12.65
  -1   1  -2  336.68    7.18
  -1   1  -2  335.04    7.19
  -1   1  -2  335.04    7.19
  -1   1  -2  331.29    7.13
  -1   1  -2  338.86    7.25
  -1   1  -2  331.29    7.13
   1  -1   2  332.45    7.19
   1  -1   2  329.49    7.24
   1  -1   2  336.03    7.13
   1  -1   2  332.45    7.19
   1  -1   2  335.36    7.16
   1  -1   2  336.03    7.13
  -2   1  -2   75.82    2.54
  -2   1  -2   74.77    2.36
  -2   1  -2   74.77    2.36
  -2   1  -2   79.39    2.64
  -2   1  -2   75.78    2.55
  -2   1  -2   75.78    2.55
   2  -1   2   71.83    2.31
   2  -1   2   71.83    2.31
   2  -1   2   65.94    2.28
   2  -1   2   74.41    2.52
   2  -1   2   65.94    2.28
   2  -1   2   74.41    2.52
   2  -1   2   68.91    2.48
   2  -1   2   71.19    2.47
  -3   1  -2   92.36    3.41
  -3   1  -2   99.35    3.54
  -3   1  -2  101.49    3.38
  -3   1  -2   95.94    3.28
  -3   1  -2  101.49    3.38
  -3   1  -2   99.69    3.45
  -3   1  -2   95.94    3.28
   3  -1   2   99.30    3.29
   3  -1   2   95.41    3.32
   3  -1   2   98.36    3.57
   3  -1   2  101.64    3.49
   3  -1   2   95.41    3.32
   3  -1   2   97.03    3.42
   3  -1   2  101.64    3.49
   3  -1   2   99.30    3.29
  -4   1  -2   14.48    1.92
  -4   1  -2   12.09    1.67
  -4   1  -2   14.55    2.01
  -4   1  -2   15.91    1.79
  -4   1  -2   14.84    1.85
  -4   1  -2   15.91    1.79
  -4   1  -2   12.09    1.67
  -4   1  -2   14.09    2.08
  -4   1  -2   14.84    1.85
   4  -1   2   16.34    1.88
   4  -1   2   13.59    1.66
   4  -1   2   12.84    1.95
   4  -1   2   12.84    1.95
   4  -1   2   14.71    2.04
   4  -1   2   14.55    2.11
   4  -1   2   13.59    1.66
   4  -1   2   14.71    2.04
  -5   1  -2   47.49    3.16
  -5   1  -2   50.21    3.65
  -5   1  -2   55.26    3.76
  -5   1  -2   45.42    3.35
  -5   1  -2   55.26    3.76
  -5   1  -2   52.50    3.80
  -5   1  -2   47.49    3.16
  -5   1  -2   45.42    3.35
  -5   1  -2   52.30    3.65
   5  -1   2   43.78    2.82
   5  -1   2   54.63    3.58
   5  -1   2   51.33    3.68
   5  -1   2   46.67    3.70
   5  -1   2   48.80    3.69
   5  -1   2   48.80    3.69
   5  -1   2   43.78    2.82
   5  -1   2   51.33    3.68
  -6   1  -2   13.63    3.12
  -6   1  -2   13.56    2.98
  -6   1  -2   19.32    3.02
  -6   1  -2   16.03    3.06
  -6   1  -2   19.32    3.02
  -6   1  -2   13.12    3.21
  -6   1  -2   13.12    3.21
   6  -1   2   12.70    3.58
   6  -1   2   12.70    3.58
   6  -1   2   16.51    3.38
   6  -1   2   16.22    2.90
   6  -1   2   16.22    2.90
   6  -1   2   12.11    2.76
   6  -1   2   16.71    3.31
   6  -1   2   16.71    3.31
   6   0  -2   34.98    3.16
   6   0  -2   34.08    3.41
   6   0  -2   34.37    3.55
   6   0  -2   32.76    3.45
   6   0  -2   32.71    3.30
   6   0  -2   32.71    3.30
   6   0  -2   34.98    3.16
  -6   0   2   28.12    3.21
  -6   0   2   28.12    3.21
  -6   0   2   33.92    3.51
  -6   0   2   33.80    3.80
  -6   0   2   33.92    3.51
  -6   0   2   31.17    3.25
  -6   0   2   33.80    3.80
  -6   0   2   37.30    4.03
  -6   0   2   31.33    3.39
   5   0  -2  177.68    5.39
   5   0  -2  170.09    5.75
   5   0  -2  186.22    6.34
   5   0  -2  177.46    5.90
   5   0  -2  170.09    5.75
   5   0  -2  186.22    6.34
   5   0  -2  176.75    6.04
   5   0  -2  183.53    5.61
   5   0  -2  177.68    5.39
  -5   0   2  174.54    5.56
  -5   0   2  172.19    5.56
  -5   0   2  176.11    5.66
  -5   0   2  173.75    6.01
  -5   0   2  172.19    5.56
  -5   0   2  175.21    5.79
  -5   0   2  174.54    5.56
   4   0  -2   14.35    2.00
   4   0  -2   11.89    1.61
   4   0  -2   11.63    1.68
   4   0  -2   14.35    2.00
   4   0  -2   11.63    1.68
   4   0  -2   12.42    1.80
   4   0  -2   14.42    1.69
   4   0  -2   11.95    1.69
   4   0  -2   14.42    1.69
  -4   0   2   14.60    2.05
  -4   0   2   11.23    1.88
  -4   0   2   11.68    1.93
  -4   0   2   11.23    1.88
  -4   0   2   11.68    1.93
  -4   0   2   12.03    1.66
  -4   0   2   10.64    1.71
  -4   0   2   12.03    1.66
  -4   0   2   10.62    1.64
   3   0  -2   46.13    2.10
   3   0  -2   47.78    2.49
   3   0  -2   47.55    2.17
   3   0  -2   46.13    2.10
   3   0  -2   51.12    2.33
   3   0  -2   48.11    2.15
   3   0  -2   47.55    2.17
   3   0  -2   47.92    2.21
   3   0  -2   47.78    2.49
  -3   0   2   51.16    2.07
  -3   0   2   52.07    2.38
  -3   0   2   47.84    2.49
  -3   0   2   53.46    2.08
  -3   0   2   53.46    2.08
  -3   0   2   48.49    2.56
  -3   0   2   50.90    2.13
  -3   0   2   48.49    2.56
  -3   0   2   52.07    2.38
   2   0  -2  352.05    7.59
   2   0  -2  352.90    7.67
   2   0  -2  352.44    7.60
   2   0  -2  351.01    7.88
   2   0  -2  351.01    7.88
   2   0  -2  335.46    7.55
   2   0  -2  339.36    7.48
   2   0  -2  335.46    7.55
   2   0  -2  339.36    7.48
  -2   0   2  333.39    7.65
  -2   0   2  342.38    7.58
  -2   0   2  340.44    7.48
  -2   0   2  351.11    7.62
  -2   0   2  342.34    7.51
  -2   0   2  340.44    7.48
  -2   0   2  332.10    7.81
  -2   0   2  351.11    7.62
  -2   0   2  332.10    7.81
   1   0  -2   29.89    1.03
   1   0  -2   30.64    1.14
   1   0  -2   29.89    1.03
   1   0  -2   30.88    1.18
   1   0  -2   28.61    1.12
   1   0  -2   28.61    1.12
   1   0  -2   28.08    1.08
   1   0  -2   29.82    1.31
   1   0  -2   29.82    1.31
  -1   0   2   30.12    1.07
  -1   0   2   31.66    1.17
  -1   0   2   28.93    1.09
  -1   0   2   29.61    1.34
  -1   0   2   29.61    1.34
  -1   0   2   30.12    1.07
   0   0  -2  138.76    3.00
   0   0  -2  135.42    2.92
   0   0  -2  135.69    3.03
   0   0  -2  140.18    3.02
   0   0  -2  135.42    2.92
   0   0  -2  140.53    3.04
   0   0  -2  140.18    3.02
   0   0  -2  138.76    3.00
   0   0   2  136.10    3.03
   0   0   2  138.66    2.94
   0   0   2  138.07    3.04
   0   0   2  138.66    2.94
   0   0   2  136.04    3.00
   0   0   2  137.33    3.01
   0   0   2  136.04    3.00
   0   0   2  137.33    3.01
  -1   0  -2  228.90    4.97
  -1   0  -2  231.43    5.04
  -1   0  -2  225.69    4.93
  -1   0  -2  228.90    4.97
  -1   0  -2  223.38    4.96
  -1   0  -2  231.33    5.02
  -1   0  -2  231.43    5.04
  -1   0  -2  225.69    4.93
   1   0   2  231.61    4.99
   1   0   2  232.60    4.99
   1   0   2  230.40    5.02
   1   0   2  231.61    4.99
   1   0   2  229.97    4.94
   1   0   2  229.97    4.94
  -2   0  -2   20.20    1.12
  -2   0  -2   21.04    1.23
  -2   0  -2   18.24    1.27
  -2   0  -2   21.04    1.23
  -2   0  -2   20.42    1.29
  -2   0  -2   20.20    1.12
   2   0   2   20.64    1.30
   2   0   2   18.91    1.24
   2   0   2   19.26    1.26
   2   0   2   19.61    1.31
   2   0   2   19.90    1.20
   2   0   2   19.26    1.26
   2   0   2   19.90    1.20
   2   0   2   18.91    1.24
  -3   0  -2   47.78    2.20
  -3   0  -2   50.66    2.29
  -3   0  -2   49.16    2.32
  -3   0  -2   54.04    2.27
  -3   0  -2   47.78    2.20
  -3   0  -2   44.63    2.23
  -3   0  -2   54.04    2.27
  -3   0  -2   50.66    2.29
  -3   0  -2   44.50    2.30
   3   0   2   48.87    2.27
   3   0   2   47.51    2.17
   3   0   2   46.16    2.26
   3   0   2   47.51    2.17
   3   0   2   47.74    2.29
   3   0   2   48.87    2.27
   3   0   2   47.74    2.29
   3   0   2   50.37    2.38
  -4   0  -2  492.71   11.21
  -4   0  -2  493.22   11.24
  -4   0  -2  488.02   11.12
  -4   0  -2  491.13   11.14
  -4   0  -2  488.02   11.12
  -4   0  -2  491.13   11.14
  -4   0  -2  491.50   11.34
  -4   0  -2  493.22   11.24
  -4   0  -2  482.55   11.23
   4   0   2  474.64   11.14
   4   0   2  494.59   11.39
   4   0   2  494.59   11.39
   4   0   2  467.51   11.09
   4   0   2  464.84   10.97
   4   0   2  503.31   11.41
   4   0   2  464.84   10.97
   4   0   2  467.51   11.09
  -5   0  -2    0.43    1.81
  -5   0  -2   -2.48    1.53
  -5   0  -2   -0.48    1.73
  -5   0  -2    2.71    1.97
  -5   0  -2    0.83    1.61
  -5   0  -2    0.43    1.72
  -5   0  -2   -2.48    1.53
  -5   0  -2   -0.48    1.73
  -5   0  -2    0.83    1.61
   5   0   2    1.80    1.88
   5   0   2    0.86    1.78
   5   0   2    0.86    1.78
   5   0   2    3.03    1.74
   5   0   2    1.94    1.83
   5   0   2    1.80    1.88
   5   0   2    2.22    1.60
   5   0   2    2.22    1.60
  -6   0  -2   11.17    2.66
  -6   0  -2   11.52    3.03
  -6   0  -2   13.23    2.97
  -6   0  -2   11.46    2.89
  -6   0  -2   11.17    2.66
  -6   0  -2   17.80    2.89
  -6   0  -2   17.80    2.89
   6   0   2   19.54    3.11
   6   0   2   14.69    2.16
   6   0   2   15.71    2.54
   6   0   2   15.52    2.49
   6   0   2   14.24    2.72
   6   0   2   15.52    2.49
   6   0   2   14.69    2.16
   6   0   2   19.54    3.11
   6  -1  -2   19.50    3.25
   6  -1  -2   21.63    3.16
   6  -1  -2   21.63    3.16
   6  -1  -2   19.50    3.25
   6  -1  -2   16.46    3.16
   6  -1  -2   15.29    3.23
   6  -1  -2   16.06    3.29
  -6   1   2   11.36    3.00
  -6   1   2   10.26    3.02
  -6   1   2   14.70    2.71
  -6   1   2   13.27    3.10
  -6   1   2   14.04    2.88
  -6   1   2   14.07    3.00
  -6   1   2   13.27    3.10
  -6   1   2   11.36    3.00
  -6   1   2   10.26    3.02
   5  -1  -2   37.39    3.32
   5  -1  -2   42.89    3.65
   5  -1  -2   39.41    3.53
   5  -1  -2   39.05    3.39
   5  -1  -2   40.16    2.88
   5  -1  -2   39.83    3.50
   5  -1  -2   37.39    3.32
   5  -1  -2   40.16    2.88
   5  -1  -2   42.89    3.65
  -5   1   2   40.32    3.50
  -5   1   2   37.01    2.89
  -5   1   2   41.24    3.34
  -5   1   2   43.20    3.48
  -5   1   2   43.20    3.48
  -5   1   2   37.05    2.79
  -5   1   2   41.24    3.34
   4  -1  -2   35.11    2.92
   4  -1  -2   40.75    2.92
   4  -1  -2   39.20    2.63
   4  -1  -2   37.75    2.34
   4  -1  -2   40.75    2.92
   4  -1  -2   35.24    2.82
   4  -1  -2   38.16    2.40
   4  -1  -2   39.20    2.63
   4  -1  -2   37.75    2.34
  -4   1   2   33.84    2.52
  -4   1   2   33.84    2.52
  -4   1   2   33.86    2.96
  -4   1   2   41.56    2.72
  -4   1   2   34.80    2.38
  -4   1   2   34.80    2.38
  -4   1   2   37.70    2.35
  -4   1   2   37.70    2.35
  -4   1   2   41.67    2.83
   3  -1  -2   60.58    2.56
   3  -1  -2   57.30    2.64
   3  -1  -2   57.30    2.64
   3  -1  -2   61.40    2.77
   3  -1  -2   63.01    2.53
   3  -1  -2   61.90    2.72
   3  -1  -2   60.58    2.56
   3  -1  -2   62.28    2.83
   3  -1  -2   61.40    2.77
  -3   1   2   55.12    2.64
  -3   1   2   57.08    2.53
  -3   1   2   61.22    2.85
  -3   1   2   61.75    2.68
  -3   1   2   58.01    2.77
  -3   1   2   55.12    2.64
  -3   1   2   61.59    2.59
  -3   1   2   57.08    2.53
  -3   1   2   58.01    2.77
   2  -1  -2  181.93    4.65
   2  -1  -2  181.75    4.72
   2  -1  -2  184.85    4.72
   2  -1  -2  190.66    4.82
   2  -1  -2  184.70    4.71
   2  -1  -2  190.66    4.82
   2  -1  -2  184.59    4.58
   2  -1  -2  184.59    4.58
   2  -1  -2  184.85    4.72
  -2   1   2  193.74    4.87
  -2   1   2  187.35    4.60
  -2   1   2  187.35    4.60
  -2   1   2  184.54    4.73
  -2   1   2  193.74    4.87
  -2   1   2  184.54    4.73
  -2   1   2  188.62    4.66
  -2   1   2  188.15    4.73
  -2   1   2  182.97    4.79
   1  -1  -2  171.52    3.95
   1  -1  -2  169.45    3.72
   1  -1  -2  170.11    4.10
   1  -1  -2  167.85    3.72
   1  -1  -2  170.11    4.10
   1  -1  -2  176.66    4.01
   1  -1  -2  168.25    3.96
   1  -1  -2  167.84    3.72
   1  -1  -2  168.25    3.96
   1  -1  -2  177.17    4.07
   1  -1  -2  171.52    3.95
   1  -1  -2  174.83    3.99
  -1   1   2  166.39    4.12
  -1   1   2  174.79    3.95
  -1   1   2  166.39    4.12
  -1   1   2  173.69    4.00
  -1   1   2  173.72    3.96
  -1   1   2  174.79    3.95
  -1   1   2  173.85    4.00
  -1   1   2  173.85    4.00
  -1   1   2  171.13    4.05
   0  -1  -2  757.43   15.24
   0  -1  -2  777.87   15.24
   0  -1  -2  777.87   15.24
   0  -1  -2  777.85   15.23
   0  -1  -2  777.85   15.23
   0   1   2  783.96   15.23
   0   1   2  759.30   15.24
   0   1   2  783.96   15.23
   0   1   2  778.94   15.27
   0   1   2  759.30   15.24
  -1  -1  -2    0.45    0.29
  -1  -1  -2    0.25    0.28
  -1  -1  -2    0.23    0.31
  -1  -1  -2    0.45    0.29
  -1  -1  -2    0.23    0.31
  -1  -1  -2   -0.05    0.35
  -1  -1  -2   -0.05    0.35
   1   1   2    0.78    0.39
   1   1   2    0.53    0.26
   1   1   2    0.54    0.27
   1   1   2    0.26    0.27
   1   1   2    0.30    0.29
   1   1   2    0.26    0.27
   1   1   2    0.53    0.26
   1   1   2    0.78    0.39
  -2  -1  -2   47.80    1.79
  -2  -1  -2   49.50    1.69
  -2  -1  -2   43.64    1.56
  -2  -1  -2   46.63    1.62
  -2  -1  -2   47.80    1.78
  -2  -1  -2   46.63    1.62
  -2  -1  -2   43.64    1.56
  -2  -1  -2   44.35    1.62
   2   1   2   44.69    1.64
   2   1   2   46.71    1.81
   2   1   2   44.96    1.60
   2   1   2   44.96    1.60
   2   1   2   42.49    1.53
   2   1   2   46.71    1.81
   2   1   2   45.82    1.62
   2   1   2   42.49    1.53
  -3  -1  -2   60.27    2.47
  -3  -1  -2   57.38    2.27
  -3  -1  -2   60.27    2.47
  -3  -1  -2   58.49    2.29
  -3  -1  -2   63.69    2.33
  -3  -1  -2   64.90    2.43
  -3  -1  -2   57.38    2.27
  -3  -1  -2   60.88    2.34
  -3  -1  -2   58.49    2.29
  -3  -1  -2   63.69    2.33
  -3  -1  -2   64.78    2.36
   3   1   2   65.91    2.38
   3   1   2   59.72    2.33
   3   1   2   61.39    2.27
   3   1   2   61.39    2.27
   3   1   2   59.72    2.33
   3   1   2   61.71    2.41
   3   1   2   63.84    2.56
   3   1   2   63.84    2.56
  -4  -1  -2  101.71    3.54
  -4  -1  -2  101.75    3.52
  -4  -1  -2  101.71    3.54
  -4  -1  -2   92.37    3.53
  -4  -1  -2   92.37    3.53
  -4  -1  -2  102.46    3.49
  -4  -1  -2  102.46    3.49
  -4  -1  -2  101.75    3.52
  -4  -1  -2   99.15    3.59
  -4  -1  -2   99.15    3.59
  -4  -1  -2  101.47    3.64
   4   1   2   93.71    3.35
   4   1   2   97.44    3.84
   4   1   2   97.25    3.34
   4   1   2   99.64    3.66
   4   1   2   97.25    3.34
   4   1   2   96.81    3.46
   4   1   2   97.44    3.84
   4   1   2   93.71    3.35
  -5  -1  -2   63.07    3.37
  -5  -1  -2   64.97    3.50
  -5  -1  -2   54.25    3.36
  -5  -1  -2   54.59    2.82
  -5  -1  -2   54.25    3.37
  -5  -1  -2   62.68    3.31
  -5  -1  -2   61.83    3.32
  -5  -1  -2   62.68    3.31
  -5  -1  -2   54.59    2.82
  -5  -1  -2   64.97    3.50
  -5  -1  -2   62.12    3.22
   5   1   2   65.18    3.36
   5   1   2   68.87    3.45
   5   1   2   65.18    3.36
   5   1   2   64.29    3.40
   5   1   2   57.55    3.67
   5   1   2   59.54    3.31
   5   1   2   57.55    3.67
   5   1   2   59.54    3.31
  -6  -1  -2   35.01    2.46
  -6  -1  -2   32.39    2.43
  -6  -1  -2   32.65    3.23
  -6  -1  -2   33.81    3.09
  -6  -1  -2   33.40    3.38
  -6  -1  -2   33.81    3.09
  -6  -1  -2   32.61    2.91
  -6  -1  -2   33.37    3.25
  -6  -1  -2   35.02    2.46
  -6  -1  -2   32.65    3.23
  -6  -1  -2   32.61    2.91
  -6  -1  -2   38.62    3.36
   6   1   2   32.98    2.93
   6   1   2   32.98    2.93
   6   1   2   27.78    2.88
   6   1   2   35.04    3.07
   6   1   2   27.78    2.88
   6   1   2   36.02    3.93
   6   1   2   35.38    3.47
   6   1   2   36.02    3.93
  -7  -1  -2   22.88    3.47
  -7  -1  -2   16.46    3.43
  -7  -1  -2   17.70    2.87
  -7  -1  -2   17.70    2.87
  -7  -1  -2   21.02    3.33
  -7  -1  -2   16.12    3.65
  -7  -1  -2   19.74    1.85
  -7  -1  -2   16.18    3.81
  -7  -1  -2   19.26    1.80
  -7  -1  -2   19.75    1.85
  -7  -1  -2   21.02    3.33
  -7  -1  -2   16.47    3.44
   7   1   2   19.72    3.43
   7   1   2   17.60    3.55
   7   1   2   17.13    3.23
   7   1   2   15.32    4.55
   7   1   2   17.60    3.55
   7   1   2   17.18    3.74
   7   1   2   17.13    3.23
   7   1   2   15.32    4.55
   6  -2  -2    9.52    2.73
   6  -2  -2    5.24    3.28
   6  -2  -2    6.61    2.56
   6  -2  -2    5.24    3.28
   6  -2  -2   10.80    3.17
   6  -2  -2   10.71    3.29
   6  -2  -2    6.61    2.56
  -6   2   2    8.06    3.13
  -6   2   2   13.51    3.06
  -6   2   2   11.83    3.39
  -6   2   2   11.83    3.39
  -6   2   2    8.10    3.28
  -6   2   2    4.95    3.02
  -6   2   2    4.95    3.02
  -6   2   2    7.29    3.46
  -6   2   2   13.51    3.06
   5  -2  -2   65.50    4.14
   5  -2  -2   64.62    4.25
   5  -2  -2   65.50    4.14
   5  -2  -2   77.02    4.25
   5  -2  -2   71.03    4.12
   5  -2  -2   65.18    4.13
   5  -2  -2   77.02    4.25
   5  -2  -2   71.03    4.12
   5  -2  -2   62.10    4.18
  -5   2   2   70.38    4.16
  -5   2   2   64.85    4.21
  -5   2   2   62.93    4.09
  -5   2   2   56.78    4.04
  -5   2   2   70.38    4.16
  -5   2   2   62.89    3.94
  -5   2   2   56.78    4.04
   4  -2  -2   32.02    2.86
   4  -2  -2   29.27    3.03
   4  -2  -2   39.31    3.12
   4  -2  -2   29.27    3.03
   4  -2  -2   32.98    2.81
   4  -2  -2   32.02    2.86
   4  -2  -2   38.51    3.00
   4  -2  -2   33.82    2.81
   4  -2  -2   33.82    2.81
  -4   2   2   40.14    2.92
  -4   2   2   34.14    2.74
  -4   2   2   35.80    2.90
  -4   2   2   35.80    2.90
  -4   2   2   34.14    2.74
  -4   2   2   40.31    2.82
  -4   2   2   33.76    2.75
  -4   2   2   34.73    1.20
  -4   2   2   34.70    1.21
  -4   2   2   33.76    2.75
  -4   2   2   35.93    3.09
  -4   2   2   34.70    1.21
   3  -2  -2  109.16    3.74
   3  -2  -2  110.76    3.86
   3  -2  -2  108.17    3.86
   3  -2  -2  113.72    3.81
   3  -2  -2  109.35    4.02
   3  -2  -2  113.72    3.81
   3  -2  -2  109.68    3.91
   3  -2  -2  108.17    3.86
   3  -2  -2  109.16    3.74
  -3   2   2  107.90    3.56
  -3   2   2  108.28    2.73
  -3   2   2  108.27    2.73
  -3   2   2  106.90    3.86
  -3   2   2  106.90    3.86
  -3   2   2  117.45    3.82
  -3   2   2  109.42    2.72
  -3   2   2  109.98    4.01
  -3   2   2  107.90    3.56
  -3   2   2  117.53    3.93
  -3   2   2  109.77    3.78
  -3   2   2  109.77    3.78
   2  -2  -2   45.50    2.14
   2  -2  -2   46.57    1.89
   2  -2  -2   46.57    1.89
   2  -2  -2   45.71    2.08
   2  -2  -2   45.50    2.14
   2  -2  -2   45.83    2.02
   2  -2  -2   44.65    2.20
   2  -2  -2   44.47    2.12
   2  -2  -2   45.83    2.02
  -2   2   2   49.43    2.20
  -2   2   2   44.81    1.50
  -2   2   2   42.30    1.49
  -2   2   2   42.30    1.49
  -2   2   2   45.49    2.06
  -2   2   2   49.47    2.13
  -2   2   2   48.38    2.06
  -2   2   2   44.91    2.10
  -2   2   2   44.91    2.10
  -2   2   2   44.56    2.16
  -2   2   2   48.38    2.06
  -2   2   2   45.49    2.06
   1  -2  -2   27.65    1.24
   1  -2  -2   28.60    1.36
   1  -2  -2   28.63    1.32
   1  -2  -2   25.83    1.24
   1  -2  -2   25.41    1.29
   1  -2  -2   25.64    1.28
   1  -2  -2   25.41    1.29
   1  -2  -2   27.65    1.24
   1  -2  -2   25.83    1.24
  -1   2   2   26.82    1.35
  -1   2   2   24.48    1.14
  -1   2   2   26.43    1.27
  -1   2   2   24.82    1.29
  -1   2   2   25.37    1.16
  -1   2   2   24.82    1.29
  -1   2   2   24.22    1.26
  -1   2   2   25.37    1.16
  -1   2   2   26.46    1.32
  -1   2   2   27.24    1.25
  -1   2   2   24.22    1.26
  -1   2   2   27.24    1.25
   0  -2  -2    7.50    0.59
   0  -2  -2    6.60    0.70
   0  -2  -2    6.99    0.53
   0  -2  -2    7.54    0.50
   0  -2  -2    7.50    0.59
   0  -2  -2    7.11    0.73
   0  -2  -2    7.54    0.50
   0  -2  -2    7.11    0.73
   0   2   2    6.28    0.50
   0   2   2    6.64    0.50
   0   2   2    8.69    0.82
   0   2   2    5.92    0.51
   0   2   2    6.84    0.58
   0   2   2    6.72    0.52
   0   2   2    6.28    0.50
   0   2   2    5.98    0.71
   0   2   2    8.69    0.82
   0   2   2    5.92    0.51
  -2  -2  -2    3.24    0.53
  -2  -2  -2    3.49    0.48
  -2  -2  -2    4.87    0.84
  -2  -2  -2    4.87    0.84
  -2  -2  -2    4.00    0.56
  -2  -2  -2    6.01    0.82
  -2  -2  -2    4.57    0.59
  -2  -2  -2    4.05    0.54
  -2  -2  -2    6.01    0.82
  -2  -2  -2    3.24    0.53
  -2  -2  -2    4.09    0.79
  -2  -2  -2    4.57    0.59
   2   2   2    4.00    0.82
   2   2   2    4.03    0.65
   2   2   2    4.03    0.51
   2   2   2    4.03    0.65
   2   2   2    4.17    0.54
   2   2   2    4.15    0.61
   2   2   2    4.00    0.82
   2   2   2    4.17    0.54
   2   2   2    3.65    0.55
   2   2   2    4.03    0.51
  -3  -2  -2    4.54    0.92
  -3  -2  -2    5.07    1.13
  -3  -2  -2    5.79    0.94
  -3  -2  -2    7.46    1.08
  -3  -2  -2    3.99    0.85
  -3  -2  -2    4.54    0.92
  -3  -2  -2    6.00    0.95
  -3  -2  -2    5.96    0.91
  -3  -2  -2    5.07    1.13
  -3  -2  -2    5.80    0.94
  -3  -2  -2    6.52    1.01
  -3  -2  -2    3.99    0.85
  -3  -2  -2    7.46    1.08
   3   2   2    4.56    0.87
   3   2   2    4.53    0.87
   3   2   2    4.73    1.15
   3   2   2    6.49    0.98
   3   2   2    4.23    0.83
   3   2   2    4.23    0.83
   3   2   2    4.53    0.87
   3   2   2    4.73    1.15
  -4  -2  -2   58.34    2.52
  -4  -2  -2   54.27    2.47
  -4  -2  -2   59.43    2.51
  -4  -2  -2   58.36    2.61
  -4  -2  -2   52.21    2.68
  -4  -2  -2   60.32    2.40
  -4  -2  -2   60.32    2.40
  -4  -2  -2   52.21    2.68
  -4  -2  -2   59.48    2.59
  -4  -2  -2   62.67    2.39
  -4  -2  -2   54.27    2.47
  -4  -2  -2   60.83    2.69
  -4  -2  -2   58.34    2.52
  -4  -2  -2   58.36    2.61
   4   2   2   59.48    2.53
   4   2   2   62.44    2.56
   4   2   2   60.23    2.46
   4   2   2   62.06    2.68
   4   2   2   60.36    2.80
   4   2   2   60.36    2.80
   4   2   2   60.23    2.46
   4   2   2   62.44    2.56
  -5  -2  -2   64.38    2.64
  -5  -2  -2   59.65    3.11
  -5  -2  -2   69.13    3.20
  -5  -2  -2   69.13    3.20
  -5  -2  -2   59.23    2.92
  -5  -2  -2   66.51    3.38
  -5  -2  -2   65.93    2.64
  -5  -2  -2   63.50    3.26
  -5  -2  -2   59.22    2.92
  -5  -2  -2   63.53    3.15
  -5  -2  -2   59.65    3.11
  -5  -2  -2   64.38    2.64
  -5  -2  -2   69.99    3.16
  -5  -2  -2   69.99    3.16
   5   2   2   69.98    3.87
   5   2   2   64.57    3.05
   5   2   2   61.52    3.12
   5   2   2   68.90    3.27
   5   2   2   69.98    3.87
   5   2   2   61.52    3.12
   5   2   2   61.94    3.28
   5   2   2   64.57    3.05
  -6  -2  -2   16.30    2.48
  -6  -2  -2   15.72    1.81
  -6  -2  -2   13.51    2.55
  -6  -2  -2   15.03    2.58
  -6  -2  -2   21.81    2.94
  -6  -2  -2   15.72    1.82
  -6  -2  -2   15.01    2.47
  -6  -2  -2   14.70    2.33
  -6  -2  -2   15.27    1.79
  -6  -2  -2   21.81    2.94
  -6  -2  -2   14.70    2.33
  -6  -2  -2   16.30    2.47
   6   2   2   20.96    2.53
   6   2   2   20.96    2.53
   6   2   2   18.91    2.57
   6   2   2   16.76    2.56
   6   2   2   20.17    2.79
   6   2   2   16.76    2.56
   6   2   2   20.54    5.52
   6   2   2   20.54    5.52
  -7  -2  -2   44.10    2.69
  -7  -2  -2   49.03    4.15
  -7  -2  -2   44.07    2.69
  -7  -2  -2   47.64    4.15
  -7  -2  -2   49.09    4.11
  -7  -2  -2   49.03    4.15
  -7  -2  -2   45.21    3.99
  -7  -2  -2   46.80    4.15
  -7  -2  -2   44.41    4.37
  -7  -2  -2   44.41    4.37
  -7  -2  -2   46.80    4.15
  -7  -2  -2   45.52    4.17
  -7  -2  -2   43.48    2.61
  -7  -2  -2   49.09    4.11
   7   2   2   36.31    4.94
   7   2   2   44.64    3.74
   7   2   2   50.50    4.55
   7   2   2   47.06    3.90
   7   2   2   36.31    4.94
   7   2   2   44.64    3.74
   7   2   2   47.06    3.90
   7   2   2   46.00    4.29
   6  -3  -2   -2.63    2.42
   6  -3  -2   -2.63    2.42
   6  -3  -2    4.15    3.62
   6  -3  -2   -2.09    2.54
   6  -3  -2    5.34    3.33
   6  -3  -2    5.34    3.33
  -6   3   2    1.99    3.33
  -6   3   2    5.34    3.05
  -6   3   2    1.99    3.33
  -6   3   2    3.20    2.69
  -6   3   2    3.46    2.72
  -6   3   2    5.34    3.05
  -6   3   2    3.46    2.72
  -6   3   2    1.14    3.74
  -6   3   2    1.13    3.56
   5  -3  -2   57.17    4.67
   5  -3  -2   47.71    4.02
   5  -3  -2   55.02    4.19
   5  -3  -2   54.05    4.44
   5  -3  -2   53.24    4.19
   5  -3  -2   47.29    4.14
   5  -3  -2   53.24    4.19
   5  -3  -2   55.02    4.19
   5  -3  -2   57.17    4.67
  -5   3   2   54.94    4.33
  -5   3   2   49.92    1.82
  -5   3   2   57.27    4.32
  -5   3   2   49.92    1.83
  -5   3   2   54.94    4.33
  -5   3   2   57.43    4.17
  -5   3   2   51.06    4.13
  -5   3   2   51.06    4.13
  -5   3   2   49.14    1.80
  -5   3   2   49.91    3.71
   4  -3  -2   84.04    4.05
   4  -3  -2   79.12    4.04
   4  -3  -2   89.38    4.28
   4  -3  -2   84.29    3.99
   4  -3  -2   84.29    3.99
   4  -3  -2   87.94    4.04
   4  -3  -2   87.94    4.04
   4  -3  -2   89.84    4.16
   4  -3  -2   79.12    4.04
  -4   3   2   76.39    2.56
  -4   3   2   76.39    2.56
  -4   3   2   77.45    4.68
  -4   3   2   85.13    3.85
  -4   3   2   80.09    2.57
  -4   3   2   78.06    3.75
  -4   3   2   68.86    4.45
  -4   3   2   84.37    3.89
  -4   3   2   84.45    4.03
  -4   3   2   68.86    4.45
  -4   3   2   85.13    3.85
  -4   3   2   77.45    4.68
   3  -3  -2  129.04    4.37
   3  -3  -2  108.35    4.19
   3  -3  -2  121.57    4.02
   3  -3  -2  108.35    4.19
   3  -3  -2  128.13    4.52
   3  -3  -2  123.15    4.17
   3  -3  -2  123.15    4.17
   3  -3  -2  127.78    4.39
   3  -3  -2  121.57    4.02
  -3   3   2  130.07    4.24
  -3   3   2  126.53    4.17
  -3   3   2  119.79    4.23
  -3   3   2  127.03    4.07
  -3   3   2  118.16    3.98
  -3   3   2  123.82    3.37
  -3   3   2  118.16    3.98
  -3   3   2  122.19    3.34
  -3   3   2  119.79    4.23
  -3   3   2  125.78    4.45
  -3   3   2  123.82    3.38
  -3   3   2  130.07    4.24
   2  -3  -2   17.24    1.62
   2  -3  -2   16.99    1.68
   2  -3  -2   16.99    1.68
   2  -3  -2   18.16    1.51
   2  -3  -2   19.51    1.70
   2  -3  -2   17.18    1.68
   2  -3  -2   16.91    1.36
   2  -3  -2   18.16    1.51
   2  -3  -2   16.91    1.36
  -2   3   2   18.63    1.35
  -2   3   2   19.44    1.78
  -2   3   2   15.60    1.31
  -2   3   2   18.75    1.68
  -2   3   2   19.16    1.67
  -2   3   2   17.92    1.78
  -2   3   2   18.63    1.35
  -2   3   2   18.75    1.68
  -2   3   2   19.51    1.72
  -2   3   2   19.16    1.67
   1  -3  -2   47.29    1.89
   1  -3  -2   48.55    1.91
   1  -3  -2   46.21    1.71
   1  -3  -2   48.42    1.96
   1  -3  -2   46.21    1.71
   1  -3  -2   47.29    1.89
   1  -3  -2   49.83    1.89
  -1   3   2   48.39    1.83
  -1   3   2   49.45    1.78
  -1   3   2   48.30    1.90
  -1   3   2   49.19    1.96
  -1   3   2   46.45    1.82
  -1   3   2   46.10    1.88
  -1   3   2   48.42    1.85
  -1   3   2   48.39    1.83
  -1   3   2   49.45    1.78
  -1   3   2   46.10    1.88
  -1   3   2   46.46    1.82
  -1   3   2   48.34    1.88
   0  -3  -2  175.95    3.98
   0  -3  -2  175.36    4.02
   0  -3  -2  181.86    3.96
   0  -3  -2  176.67    3.95
   0  -3  -2  180.17    4.34
   0  -3  -2  180.17    4.34
   0  -3  -2  175.04    3.97
   0  -3  -2  175.95    3.98
   0  -3  -2  173.88    4.31
   0  -3  -2  181.86    3.96
   0   3   2  180.69    4.02
   0   3   2  172.97    4.03
   0   3   2  181.89    4.40
   0   3   2  173.90    3.99
   0   3   2  173.90    3.99
   0   3   2  176.16    3.92
   0   3   2  176.83    4.37
   0   3   2  181.89    4.40
   0   3   2  176.16    3.92
   0   3   2  181.44    3.98
  -1  -3  -2  144.38    3.00
  -1  -3  -2  150.23    3.03
  -1  -3  -2  147.58    3.04
  -1  -3  -2  150.81    3.06
  -1  -3  -2  146.47    3.89
  -1  -3  -2  146.47    3.89
  -1  -3  -2  150.81    3.06
  -1  -3  -2  150.94    3.89
  -1  -3  -2  147.20    3.05
  -1  -3  -2  150.23    3.03
   1   3   2  149.48    3.01
   1   3   2  153.66    3.56
   1   3   2  153.63    3.56
   1   3   2  144.58    3.03
   1   3   2  149.50    3.05
   1   3   2  149.50    3.91
   1   3   2  149.50    3.91
   1   3   2  149.50    3.05
   1   3   2  150.35    3.90
   1   3   2  149.48    3.01
   1   3   2  149.31    3.07
  -2  -3  -2  139.46    2.98
  -2  -3  -2  134.50    3.50
  -2  -3  -2  140.10    3.08
  -2  -3  -2  138.86    3.05
  -2  -3  -2  140.10    3.08
  -2  -3  -2  138.79    3.77
  -2  -3  -2  142.22    3.78
  -2  -3  -2  138.80    3.77
  -2  -3  -2  134.50    3.50
  -2  -3  -2  138.44    3.08
   2   3   2  122.17    3.18
   2   3   2  136.09    3.03
   2   3   2  145.09    3.75
   2   3   2  137.20    3.11
   2   3   2  145.34    3.60
   2   3   2  139.20    3.74
   2   3   2  144.35    2.99
   2   3   2  122.17    3.18
   2   3   2  145.09    3.75
   2   3   2  142.55    3.80
   2   3   2  145.34    3.59
   2   3   2  142.55    3.80
   2   3   2  144.35    2.99
  -3  -3  -2   61.21    2.37
  -3  -3  -2   61.21    2.37
  -3  -3  -2   66.26    2.36
  -3  -3  -2   64.49    2.00
  -3  -3  -2   56.13    2.32
  -3  -3  -2   59.73    1.96
  -3  -3  -2   62.09    2.02
  -3  -3  -2   61.22    1.98
  -3  -3  -2   62.09    2.02
  -3  -3  -2   56.13    2.32
  -3  -3  -2   60.92    2.02
  -3  -3  -2   62.35    2.37
  -3  -3  -2   66.25    2.36
  -3  -3  -2   59.73    1.96
   3   3   2   63.04    2.40
   3   3   2   60.08    2.03
   3   3   2   64.93    2.69
   3   3   2   63.04    2.40
   3   3   2   62.45    2.00
   3   3   2   64.93    2.69
   3   3   2   63.06    1.97
   3   3   2   61.24    2.09
   3   3   2   63.06    1.97
   3   3   2   62.45    2.00
  -4  -3  -2   64.31    2.63
  -4  -3  -2   69.77    2.64
  -4  -3  -2   69.37    2.63
  -4  -3  -2   67.95    2.81
  -4  -3  -2   69.89    2.56
  -4  -3  -2   65.39    2.50
  -4  -3  -2   67.95    2.81
  -4  -3  -2   68.33    2.62
  -4  -3  -2   67.00    2.67
  -4  -3  -2   69.37    2.63
  -4  -3  -2   63.43    2.96
  -4  -3  -2   67.00    2.67
  -4  -3  -2   63.43    2.96
  -4  -3  -2   68.33    2.62
   4   3   2   69.30    2.49
   4   3   2   70.23    2.77
   4   3   2   69.94    3.29
   4   3   2   69.75    2.54
   4   3   2   69.75    2.54
   4   3   2   68.31    2.61
   4   3   2   69.30    2.49
   4   3   2   69.94    3.29
  -5  -3  -2   63.93    3.61
  -5  -3  -2   72.44    3.28
  -5  -3  -2   69.17    2.91
  -5  -3  -2   71.22    3.25
  -5  -3  -2   66.97    3.65
  -5  -3  -2   71.09    2.90
  -5  -3  -2   69.19    2.91
  -5  -3  -2   67.82    3.02
  -5  -3  -2   67.55    3.10
  -5  -3  -2   67.82    3.02
  -5  -3  -2   71.22    3.25
  -5  -3  -2   72.45    3.28
  -5  -3  -2   67.93    3.02
  -5  -3  -2   66.97    3.65
   5   3   2   72.31    3.10
   5   3   2   71.18    3.01
   5   3   2   67.06    3.49
   5   3   2   72.46    3.23
   5   3   2   72.31    3.10
   5   3   2   67.06    3.49
   5   3   2   69.11    3.15
   5   3   2   71.18    3.01
  -6  -3  -2   17.56    2.45
  -6  -3  -2   21.75    1.95
  -6  -3  -2   25.22    2.27
  -6  -3  -2   14.54    2.33
  -6  -3  -2   21.50    2.37
  -6  -3  -2   21.50    2.37
  -6  -3  -2   17.88    2.85
  -6  -3  -2   23.67    2.66
  -6  -3  -2   14.54    2.33
  -6  -3  -2   21.76    1.95
  -6  -3  -2   23.67    2.65
  -6  -3  -2   17.88    2.85
   6   3   2   19.06    2.41
   6   3   2   18.86    2.56
   6   3   2   19.19    2.47
   6   3   2   19.68    2.36
   6   3   2   19.68    2.36
   6   3   2   19.06    2.41
  -7  -3  -2   -0.52    2.68
  -7  -3  -2    7.43    2.72
  -7  -3  -2   -0.52    2.81
  -7  -3  -2    7.61    2.80
  -7  -3  -2    7.62    2.80
  -7  -3  -2   17.18    3.09
  -7  -3  -2    2.52    2.60
  -7  -3  -2   17.18    3.09
  -7  -3  -2    2.52    2.60
  -7  -3  -2    2.15    3.09
  -7  -3  -2    2.15    3.09
   7   3   2   11.33    2.84
   7   3   2    7.11    2.90
   7   3   2    9.86    4.10
   7   3   2   11.33    2.84
   7   3   2    9.86    4.10
   7   3   2    5.59    3.04
   7   3   2    7.11    2.90
   7   3   2    6.53    2.60
   5  -4  -2   31.18    3.48
   5  -4  -2   30.76    3.66
   5  -4  -2   30.76    3.66
   5  -4  -2   25.82    3.38
   5  -4  -2   26.70    3.57
   5  -4  -2   25.82    3.38
   5  -4  -2   31.18    3.48
   5  -4  -2   29.15    3.26
  -5   4   2   18.43    3.26
  -5   4   2   24.79    3.43
  -5   4   2   23.50    1.96
  -5   4   2   22.19    4.14
  -5   4   2   23.50    1.96
  -5   4   2   22.09    3.96
  -5   4   2   23.96    1.91
  -5   4   2   23.73    3.58
  -5   4   2   23.73    3.58
  -5   4   2   24.79    3.43
   4  -4  -2   64.30    4.09
   4  -4  -2   57.10    3.26
   4  -4  -2   52.93    3.92
   4  -4  -2   57.10    3.26
   4  -4  -2   64.05    4.19
   4  -4  -2   52.49    3.83
   4  -4  -2   52.49    3.83
   4  -4  -2   59.34    3.75
   4  -4  -2   59.34    3.75
  -4   4   2   67.99    3.50
  -4   4   2   57.39    3.99
  -4   4   2   56.96    3.27
  -4   4   2   56.96    3.27
  -4   4   2   62.68    2.73
  -4   4   2   67.17    3.97
  -4   4   2   62.77    2.77
  -4   4   2   67.17    3.97
  -4   4   2   57.46    3.85
  -4   4   2   59.06    3.97
  -4   4   2   67.99    3.50
  -4   4   2   62.79    2.77
   3  -4  -2    8.36    1.86
   3  -4  -2    7.65    1.59
   3  -4  -2    6.69    1.42
   3  -4  -2    7.65    1.59
   3  -4  -2    6.69    1.42
   3  -4  -2   10.75    1.83
   3  -4  -2    7.88    1.93
   3  -4  -2    7.86    1.85
   3  -4  -2   10.75    1.83
  -3   4   2    8.99    1.87
  -3   4   2    9.02    1.96
  -3   4   2    9.46    1.89
  -3   4   2    7.68    1.70
  -3   4   2    9.81    1.89
  -3   4   2    9.63    1.43
  -3   4   2    9.46    1.89
  -3   4   2    7.68    1.70
  -3   4   2    7.66    1.58
  -3   4   2    9.63    1.43
  -3   4   2    7.43    1.36
  -3   4   2    7.66    1.58
   2  -4  -2  324.10    7.78
   2  -4  -2  324.24    7.49
   2  -4  -2  327.29    7.96
   2  -4  -2  324.24    7.49
   2  -4  -2  328.14    7.95
   2  -4  -2  324.10    7.78
   2  -4  -2  328.14    7.95
   2  -4  -2  335.39    8.08
   2  -4  -2  338.18    7.98
  -2   4   2  315.99    7.55
  -2   4   2  329.96    7.92
  -2   4   2  331.57    8.08
  -2   4   2  315.99    7.55
  -2   4   2  321.31    7.56
  -2   4   2  338.42    7.90
  -2   4   2  320.82    7.90
  -2   4   2  338.42    7.90
  -2   4   2  326.46    7.52
  -2   4   2  326.46    7.52
  -2   4   2  328.22    8.03
  -2   4   2  320.82    7.90
   1  -4  -2  114.24    3.43
   1  -4  -2  122.27    3.49
   1  -4  -2  126.84    3.43
   1  -4  -2  120.09    3.47
   1  -4  -2  120.09    3.47
   1  -4  -2  126.84    3.43
   1  -4  -2  113.52    3.50
  -1   4   2  115.74    3.39
  -1   4   2  119.90    3.57
  -1   4   2  115.12    3.45
  -1   4   2  117.42    3.16
  -1   4   2  119.91    3.57
  -1   4   2  116.85    3.43
  -1   4   2  118.36    3.38
  -1   4   2  116.85    3.43
  -1   4   2  119.04    3.54
  -1   4   2  115.28    3.55
  -1   4   2  118.36    3.38
  -1   4   2  117.42    3.16
   0  -4  -2  110.24    2.88
   0  -4  -2  109.58    2.78
   0  -4  -2  108.33    2.81
   0  -4  -2  109.32    2.86
   0  -4  -2  109.58    2.78
   0  -4  -2  111.88    2.83
   0  -4  -2  109.32    2.86
   0   4   2  108.78    2.75
   0   4   2  108.84    2.84
   0   4   2  108.78    2.75
   0   4   2  109.47    2.83
   0   4   2  109.47    2.88
   0   4   2  108.84    2.84
   0   4   2  107.71    2.90
   0   4   2  108.94    3.33
   0   4   2  111.13    3.37
   0   4   2  111.13    3.37
  -1  -4  -2   66.49    1.41
  -1  -4  -2   64.20    1.46
  -1  -4  -2   66.99    1.48
  -1  -4  -2   66.99    1.48
  -1  -4  -2   65.18    1.53
  -1  -4  -2   65.18    1.53
   1   4   2   62.85    1.46
   1   4   2   63.17    1.56
   1   4   2   64.09    2.46
   1   4   2   64.09    2.46
   1   4   2   62.85    1.46
   1   4   2   68.72    2.12
   1   4   2   68.72    2.12
   1   4   2   65.14    2.47
   1   4   2   67.06    1.42
   1   4   2   67.06    1.42
  -2  -4  -2    0.79    0.94
  -2  -4  -2   -0.11    0.62
  -2  -4  -2   -0.11    0.62
  -2  -4  -2    0.79    0.94
  -2  -4  -2    0.67    0.89
   2   4   2    0.39    0.73
   2   4   2    0.34    0.15
   2   4   2    0.06    0.81
   2   4   2    2.47    0.74
   2   4   2    0.39    0.73
   2   4   2    0.47    0.84
   2   4   2    0.47    0.84
   2   4   2    0.81    0.13
   2   4   2    2.47    0.74
  -3  -4  -2   30.14    1.17
  -3  -4  -2   32.90    1.24
  -3  -4  -2   32.77    1.20
  -3  -4  -2   31.90    1.30
  -3  -4  -2   33.09    1.93
  -3  -4  -2   31.90    1.30
  -3  -4  -2   33.56    1.70
  -3  -4  -2   33.55    1.70
  -3  -4  -2   31.52    1.93
  -3  -4  -2   33.09    1.92
   3   4   2   28.69    1.36
   3   4   2   33.30    2.00
   3   4   2   33.98    1.86
   3   4   2   28.69    1.36
   3   4   2   32.32    1.17
   3   4   2   33.30    2.00
   3   4   2   32.32    1.17
   3   4   2   31.93    1.29
   3   4   2   32.90    1.33
   3   4   2   31.97    2.07
   3   4   2   31.97    2.07
   3   4   2   33.98    1.86
   3   4   2   34.67    1.98
  -4  -4  -2  272.70    6.46
  -4  -4  -2  272.70    6.46
  -4  -4  -2  271.89    6.64
  -4  -4  -2  265.69    6.92
  -4  -4  -2  260.35    6.58
  -4  -4  -2  271.88    6.64
  -4  -4  -2  253.28    6.07
  -4  -4  -2  265.79    6.15
  -4  -4  -2  261.39    6.11
  -4  -4  -2  260.24    6.08
  -4  -4  -2  266.30    6.07
  -4  -4  -2  261.39    6.11
  -4  -4  -2  253.28    6.07
  -4  -4  -2  265.69    6.92
   4   4   2  255.10    6.99
   4   4   2  263.18    6.23
   4   4   2  264.36    6.07
   4   4   2  263.26    6.11
   4   4   2  261.40    6.19
   4   4   2  263.26    6.11
   4   4   2  264.36    6.07
   4   4   2  255.10    6.99
  -5  -4  -2   42.45    2.36
  -5  -4  -2   40.00    2.54
  -5  -4  -2   33.56    2.60
  -5  -4  -2   42.34    2.44
  -5  -4  -2   37.69    2.51
  -5  -4  -2   42.26    2.63
  -5  -4  -2   33.56    2.60
  -5  -4  -2   39.92    2.45
  -5  -4  -2   36.37    2.37
  -5  -4  -2   39.92    2.45
  -5  -4  -2   40.76    3.04
  -5  -4  -2   40.76    3.04
  -5  -4  -2   42.26    2.63
  -5  -4  -2   39.99    2.54
   5   4   2   37.49    2.36
   5   4   2   38.97    2.34
   5   4   2   37.49    2.36
   5   4   2   40.94    2.91
   5   4   2   32.75    2.41
   5   4   2   40.94    2.91
   5   4   2   40.58    2.56
   5   4   2   38.97    2.34
  -6  -4  -2    1.68    1.73
  -6  -4  -2   -0.24    1.62
  -6  -4  -2   -0.44    1.81
  -6  -4  -2    1.97    1.95
  -6  -4  -2    4.05    1.83
  -6  -4  -2    1.97    1.95
  -6  -4  -2   -0.24    1.63
  -6  -4  -2   -0.44    1.81
  -6  -4  -2    1.68    1.73
   6   4   2    1.40    1.75
   6   4   2    2.52    1.60
   6   4   2    2.52    1.60
   6   4   2    0.74    1.59
   6   4   2   -0.17    1.95
   6   4   2    0.74    1.59
  -7  -4  -2   52.30    4.31
  -7  -4  -2   55.04    4.92
  -7  -4  -2   52.30    4.31
  -7  -4  -2   55.68    4.17
  -7  -4  -2   62.50    4.24
  -7  -4  -2   48.30    3.64
  -7  -4  -2   48.43    3.78
  -7  -4  -2   62.50    4.24
  -7  -4  -2   55.68    4.17
  -7  -4  -2   55.04    4.92
   7   4   2   59.30    4.44
   7   4   2   45.75    3.68
   7   4   2   45.75    3.68
   7   4   2   59.94    4.93
   7   4   2   59.30    4.44
   7   4   2   53.79    4.16
   7   4   2   59.94    4.93
   7   4   2   56.99    4.53
   5  -5  -2   52.26    4.27
   5  -5  -2   48.17    4.61
   5  -5  -2   52.26    4.27
   5  -5  -2   48.17    4.61
   5  -5  -2   48.14    4.49
   5  -5  -2   50.57    4.54
   5  -5  -2   50.57    4.54
   5  -5  -2   51.54    4.52
  -5   5   2   54.39    4.97
  -5   5   2   56.46    4.78
  -5   5   2   53.38    4.62
  -5   5   2   43.47    3.27
  -5   5   2   43.27    4.34
  -5   5   2   39.68    3.32
  -5   5   2   43.27    4.34
  -5   5   2   39.71    3.32
  -5   5   2   54.14    4.76
  -5   5   2   53.38    4.62
   4  -5  -2    9.71    2.84
   4  -5  -2   10.05    2.35
   4  -5  -2   10.27    2.72
   4  -5  -2   10.05    2.35
  -4   5   2    8.76    2.71
  -4   5   2   10.42    2.12
  -4   5   2   12.02    2.61
  -4   5   2   12.02    2.61
  -4   5   2    7.26    1.98
  -4   5   2   15.32    2.75
  -4   5   2   15.32    2.75
  -4   5   2   10.61    2.67
  -4   5   2    7.25    1.98
  -4   5   2   10.42    2.12
  -4   5   2    8.81    2.84
  -4   5   2    9.12    1.94
   3  -5  -2   -1.32    1.69
   3  -5  -2    0.90    1.48
   3  -5  -2   -0.46    1.74
   3  -5  -2    0.90    1.48
   3  -5  -2   -3.57    1.47
   3  -5  -2   -3.57    1.47
   3  -5  -2   -0.46    1.74
   3  -5  -2   -0.95    1.81
  -3   5   2    1.46    1.69
  -3   5   2    0.75    1.58
  -3   5   2    1.08    1.75
  -3   5   2    1.14    1.54
  -3   5   2    1.76    1.43
  -3   5   2    2.01    1.62
  -3   5   2    2.02    1.69
  -3   5   2    1.78    1.87
  -3   5   2    1.14    1.54
  -3   5   2    1.46    1.69
  -3   5   2    1.76    1.43
  -3   5   2    1.08    1.75
   2  -5  -2   37.58    2.68
   2  -5  -2   40.29    2.62
   2  -5  -2   43.28    2.65
   2  -5  -2   40.29    2.62
  -2   5   2   41.92    2.76
  -2   5   2   38.81    2.63
  -2   5   2   42.27    2.60
  -2   5   2   43.75    2.67
  -2   5   2   41.60    2.58
  -2   5   2   41.65    2.84
  -2   5   2   43.75    2.67
  -2   5   2   41.60    2.58
  -2   5   2   42.53    2.09
  -2   5   2   42.27    2.60
  -2   5   2   42.53    2.09
  -2   5   2   43.88    2.67
   1  -5  -2  247.40    6.02
   1  -5  -2  265.70    6.85
   1  -5  -2  247.40    6.02
   1  -5  -2  236.14    6.02
   1  -5  -2  232.76    6.02
   1  -5  -2  232.76    6.02
  -1   5   2  245.73    6.33
  -1   5   2  245.25    5.53
  -1   5   2  245.73    6.33
  -1   5   2  248.30    6.33
  -1   5   2  233.09    6.09
  -1   5   2  250.85    6.03
  -1   5   2  247.34    6.15
  -1   5   2  249.24    6.07
  -1   5   2  244.39    6.03
  -1   5   2  245.25    5.53
  -1   5   2  244.39    6.03
  -1   5   2  250.85    6.03
   0  -5  -2  152.77    3.83
   0  -5  -2  153.45    3.83
   0  -5  -2  153.92    3.77
   0  -5  -2  148.06    3.78
   0  -5  -2  152.77    3.83
   0  -5  -2  153.92    3.77
   0   5   2  144.85    3.76
   0   5   2  155.79    3.84
   0   5   2  148.15    3.88
   0   5   2  155.01    3.90
   0   5   2  144.85    3.76
   0   5   2  152.80    3.76
   0   5   2  158.57    4.54
   0   5   2  152.80    3.76
   0   5   2  151.36    4.49
   0   5   2  151.36    4.49
  -1  -5  -2    0.90    0.38
  -1  -5  -2    0.30    0.30
  -1  -5  -2    0.38    0.30
  -1  -5  -2    0.90    0.38
  -1  -5  -2    0.52    0.35
  -1  -5  -2    0.52    0.35
   1   5   2    0.65    0.85
   1   5   2    0.01    0.33
   1   5   2   -0.12    0.38
   1   5   2    0.45    0.38
   1   5   2    0.37    0.59
   1   5   2    0.48    0.32
   1   5   2    0.65    0.85
   1   5   2    0.48    0.32
   1   5   2    0.37    0.59
   1   5   2   -0.12    0.36
   1   5   2    0.16    0.82
   1   5   2    0.01    0.33
   2   5   2   75.68    2.61
   2   5   2   69.26    2.74
   2   5   2   71.01    2.44
   2   5   2   68.97    2.76
   2   5   2   75.68    2.61
   2   5   2   68.96    2.76
   2   5   2   71.00    2.43
  -3  -5  -2   88.46    2.89
  -3  -5  -2   87.56    1.98
  -3  -5  -2   87.56    1.98
  -3  -5  -2   88.45    2.88
   3   5   2   87.80    1.83
   3   5   2   87.50    2.95
   3   5   2   87.58    2.02
   3   5   2   87.80    1.83
   3   5   2   87.35    3.34
   3   5   2   90.32    3.32
   3   5   2   87.50    2.95
   3   5   2   87.36    3.34
   3   5   2   89.70    3.35
   3   5   2   90.32    3.32
   3   5   2   86.24    2.02
   3   5   2   88.61    1.83
   3   5   2   88.61    1.83
  -4  -5  -2   77.49    2.29
  -4  -5  -2   78.10    2.92
  -4  -5  -2   78.10    2.92
  -4  -5  -2   76.10    2.33
  -4  -5  -2   76.10    2.33
  -4  -5  -2   77.89    2.27
  -4  -5  -2   77.75    2.22
   4   5   2   74.65    2.40
   4   5   2   79.80    3.13
   4   5   2   79.79    3.13
   4   5   2   72.19    2.24
   4   5   2   79.23    2.44
   4   5   2   72.19    2.24
   4   5   2   79.75    3.67
   4   5   2   79.75    3.67
  -5  -5  -2   10.61    1.74
  -5  -5  -2   10.61    1.74
  -5  -5  -2   11.15    1.43
  -5  -5  -2    9.50    1.37
  -5  -5  -2   11.15    1.43
  -5  -5  -2   10.14    1.39
  -5  -5  -2   10.31    1.44
  -5  -5  -2   10.31    1.44
  -5  -5  -2   10.03    1.32
   5   5   2   12.54    1.45
   5   5   2    9.35    1.31
   5   5   2    7.41    2.41
   5   5   2    7.41    2.41
   5   5   2    9.35    1.31
   5   5   2   12.54    1.45
   5   5   2    9.02    1.53
  -6  -5  -2    3.74    2.49
  -6  -5  -2    1.64    1.75
  -6  -5  -2    4.42    1.77
  -6  -5  -2    3.74    2.49
  -6  -5  -2    4.17    1.59
  -6  -5  -2    1.64    1.75
  -6  -5  -2    4.65    2.03
  -6  -5  -2    4.17    1.59
  -6  -5  -2    4.65    2.03
   6   5   2    4.31    1.78
   6   5   2    4.50    1.82
   6   5   2    2.77    1.60
   6   5   2    3.17    1.73
   6   5   2    4.98    3.08
   6   5   2    4.98    3.08
   6   5   2    3.17    1.73
   6   5   2    2.77    1.60
  -7  -5  -2   21.69    3.21
  -7  -5  -2   23.64    2.76
  -7  -5  -2   22.74    3.14
  -7  -5  -2   23.64    2.76
  -7  -5  -2   27.81    2.95
  -7  -5  -2   26.38    2.92
  -7  -5  -2   21.69    3.21
  -7  -5  -2   25.64    2.88
  -7  -5  -2   22.80    3.15
  -7  -5  -2   26.70    3.07
  -7  -5  -2   25.64    2.88
   7   5   2   22.00    3.87
   7   5   2   27.14    3.11
   7   5   2   30.06    3.07
   7   5   2   22.78    2.87
   7   5   2   22.78    2.87
   7   5   2   18.29    2.69
   7   5   2   30.06    3.07
   7   5   2   22.00    3.87
   4  -6  -2   21.64    3.26
   4  -6  -2   21.64    3.26
   4  -6  -2   22.73    2.94
   4  -6  -2   22.73    2.94
   4  -6  -2   31.34    3.79
   4  -6  -2   23.37    2.64
   4  -6  -2   23.37    2.64
   4  -6  -2   25.52    3.45
  -4   6   2   23.54    2.45
  -4   6   2   22.12    3.61
  -4   6   2   24.92    3.29
  -4   6   2   21.99    3.45
  -4   6   2   36.96    3.81
  -4   6   2   29.36    2.99
  -4   6   2   25.39    3.46
  -4   6   2   24.92    3.29
  -4   6   2   23.83    2.85
  -4   6   2   29.35    3.00
  -4   6   2   23.54    2.45
  -4   6   2   36.96    3.81
   3  -6  -2   14.66    2.61
   3  -6  -2   14.27    2.37
   3  -6  -2   18.22    2.87
   3  -6  -2   14.27    2.37
  -3   6   2   17.94    1.91
  -3   6   2   14.14    2.55
  -3   6   2   18.83    2.48
  -3   6   2   18.83    2.48
  -3   6   2   17.94    1.91
  -3   6   2   14.14    2.55
  -3   6   2   22.28    2.72
  -3   6   2   17.92    2.55
  -3   6   2   17.92    2.55
  -3   6   2   22.19    2.60
  -3   6   2   18.30    2.53
  -3   6   2   16.74    2.60
   2  -6  -2   71.00    3.30
   2  -6  -2   65.26    3.27
   2  -6  -2   65.26    3.27
   2  -6  -2   66.63    3.33
   2  -6  -2   71.00    3.30
   2  -6  -2   61.62    3.38
  -2   6   2   56.73    3.23
  -2   6   2   60.67    3.29
  -2   6   2   55.19    2.30
  -2   6   2   60.67    3.29
  -2   6   2   55.19    2.30
  -2   6   2   63.65    3.21
  -2   6   2   61.15    3.52
  -2   6   2   61.57    3.42
  -2   6   2   63.65    3.21
   1  -6  -2   38.12    2.20
   1  -6  -2   33.16    2.20
   1  -6  -2   41.42    3.65
   1  -6  -2   38.12    2.20
   1  -6  -2   33.16    2.20
  -1   6   2   37.22    2.29
  -1   6   2   35.62    2.11
  -1   6   2   37.33    2.73
  -1   6   2   35.00    2.70
  -1   6   2   36.93    2.36
  -1   6   2   34.84    2.17
  -1   6   2   35.93    2.28
  -1   6   2   34.84    2.17
  -1   6   2   34.27    1.49
  -1   6   2   35.00    2.71
  -1   6   2   35.62    2.11
  -1   6   2   34.27    1.49
   0  -6  -2    0.75    0.90
   0  -6  -2    1.02    0.80
   0  -6  -2    2.26    0.88
   0  -6  -2    0.75    0.90
   0  -6  -2    2.26    0.88
   0  -6  -2   -0.10    0.85
   0   6   2    1.66    0.66
   0   6   2    1.64    0.93
   0   6   2    1.04    0.85
   0   6   2    2.39    0.90
   0   6   2    1.83    1.40
   0   6   2    1.66    0.66
   0   6   2    1.64    0.89
   0   6   2    2.39    0.90
   0   6   2    1.54    0.88
   0   6   2    1.04    0.85
   0   6   2    0.28    1.32
   0   6   2    0.28    1.33
  -1  -6  -2  133.29    3.12
  -1  -6  -2  128.51    3.03
  -1  -6  -2  133.29    3.12
  -1  -6  -2  135.77    3.02
  -1  -6  -2  128.51    3.03
  -1  -6  -2  134.28    2.97
   1   6   2  133.47    3.12
   1   6   2  133.50    3.40
   1   6   2  132.75    2.98
   1   6   2  133.50    3.40
   1   6   2  136.72    4.35
   1   6   2  134.72    4.30
   1   6   2  132.75    2.98
   1   6   2  132.84    3.03
   1   6   2  136.71    4.35
   1   6   2  132.84    3.03
   1   6   2  128.75    3.18
   1   6   2  129.23    3.14
   2   6   2  105.05    3.99
   2   6   2  109.12    3.27
   2   6   2  106.20    3.33
   2   6   2  106.20    3.33
   2   6   2  109.12    3.27
   2   6   2  107.96    4.01
   2   6   2  107.96    4.00
   3   6   2   15.48    1.57
   3   6   2   15.86    1.84
   3   6   2   15.71    2.00
   3   6   2   15.48    1.57
   3   6   2   15.86    1.84
   3   6   2   15.72    2.01
   3   6   2   16.18    1.98
  -4  -6  -2   74.47    2.04
  -4  -6  -2   79.37    1.80
  -4  -6  -2   80.75    3.09
  -4  -6  -2   80.77    3.09
  -4  -6  -2   74.47    2.04
  -4  -6  -2   80.58    1.79
   4   6   2   74.97    3.76
   4   6   2   79.76    1.88
   4   6   2   78.53    1.83
   4   6   2   74.97    3.76
   4   6   2   79.76    1.88
   4   6   2   85.44    3.65
   4   6   2   77.19    2.13
   4   6   2   76.86    3.20
   4   6   2   86.72    3.61
   4   6   2   76.45    2.05
   4   6   2   78.53    1.83
   4   6   2   76.86    3.20
   4   6   2   85.44    3.64
  -5  -6  -2   26.51    1.70
  -5  -6  -2   25.45    1.77
  -5  -6  -2   29.10    2.30
  -5  -6  -2   25.45    1.77
  -5  -6  -2   29.09    2.30
   5   6   2   27.80    1.63
   5   6   2   27.04    3.05
   5   6   2   27.80    1.63
   5   6   2   27.04    3.05
   5   6   2   27.69    1.94
   5   6   2   24.96    1.90
  -6  -6  -2    2.28    1.77
  -6  -6  -2    0.44    1.65
  -6  -6  -2    2.28    1.77
  -6  -6  -2    0.44    1.65
  -6  -6  -2    0.46    1.67
  -6  -6  -2    0.46    1.67
  -6  -6  -2    2.22    1.52
   6   6   2    2.81    1.68
   6   6   2    1.32    1.46
   6   6   2    3.43    2.93
   6   6   2    3.43    2.93
   6   6   2    1.32    1.46
   6   6   2    5.34    1.67
   6   6   2    1.50    1.36
   6   6   2    1.50    1.36
  -7  -6  -2   13.86    2.40
  -7  -6  -2   10.97    2.46
  -7  -6  -2   16.82    2.72
  -7  -6  -2   16.82    2.73
  -7  -6  -2    8.85    2.59
  -7  -6  -2   13.86    2.40
  -7  -6  -2    8.85    2.59
   7   6   2    6.23    4.26
   7   6   2    6.23    4.26
   7   6   2   13.51    2.35
   7   6   2   13.51    2.35
   7   6   2   13.33    2.49
   7   6   2   14.05    2.54
   7   6   2   11.53    2.41
   7   6   2   11.53    2.41
   3  -7  -2   62.79    4.52
   3  -7  -2   71.02    4.36
   3  -7  -2   71.02    4.36
   3  -7  -2   66.90    4.14
   3  -7  -2   66.90    4.14
   3  -7  -2   71.21    4.67
  -3   7   2   72.10    4.21
  -3   7   2   67.96    4.32
  -3   7   2   62.31    2.85
  -3   7   2   62.31    2.85
  -3   7   2   66.21    4.58
  -3   7   2   72.10    4.21
  -3   7   2   66.95    4.60
  -3   7   2   67.96    4.32
  -3   7   2   66.95    4.59
  -3   7   2   65.97    4.74
  -3   7   2   72.95    4.67
  -3   7   2   66.15    4.61
   2  -7  -2   18.21    2.38
   2  -7  -2   23.89    2.74
   2  -7  -2   19.74    2.55
   2  -7  -2   18.21    2.38
   2  -7  -2   23.89    2.74
  -2   7   2   19.36    2.31
  -2   7   2   20.59    2.44
  -2   7   2   22.62    2.79
  -2   7   2   19.76    1.52
  -2   7   2   18.30    2.69
  -2   7   2   20.63    2.55
  -2   7   2   18.23    2.43
  -2   7   2   19.76    1.52
  -2   7   2   19.36    2.31
  -2   7   2   24.58    2.59
  -2   7   2   22.61    2.79
  -2   7   2   24.58    2.59
   1  -7  -2   45.95    2.64
   1  -7  -2   45.95    2.64
   1  -7  -2   44.87    2.70
   1  -7  -2   48.08    2.59
   1  -7  -2   48.08    2.59
   1  -7  -2   41.17    2.74
  -1   7   2   43.77    2.85
  -1   7   2   47.35    3.38
  -1   7   2   45.04    2.80
  -1   7   2   41.47    2.79
  -1   7   2   49.39    3.41
  -1   7   2   40.66    1.27
  -1   7   2   46.81    2.72
  -1   7   2   43.45    2.94
  -1   7   2   49.39    3.41
  -1   7   2   46.81    2.72
  -1   7   2   40.66    1.27
  -1   7   2   45.04    2.80
   0  -7  -2    9.39    1.26
   0  -7  -2   11.31    1.44
   0  -7  -2    9.13    1.29
   0  -7  -2   11.31    1.44
   0  -7  -2    9.39    1.26
   0  -7  -2    9.53    1.26
   0   7   2   13.52    2.17
   0   7   2    9.06    1.20
   0   7   2   10.95    0.76
   0   7   2    9.11    1.34
   0   7   2    9.06    1.20
   0   7   2    9.54    1.31
   0   7   2    9.24    2.07
   0   7   2    9.38    0.86
   0   7   2    9.38    0.86
   0   7   2    9.54    1.31
   0   7   2    8.28    1.43
   0   7   2   13.52    2.17
   0   7   2    8.28    1.37
   0   7   2   10.95    0.76
  -1  -7  -2   31.27    1.48
  -1  -7  -2   31.27    1.48
  -1  -7  -2   31.62    1.21
  -1  -7  -2   31.09    1.28
  -1  -7  -2   31.86    1.36
  -1  -7  -2   31.09    1.28
   1   7   2   29.99    1.32
   1   7   2   30.45    1.36
   1   7   2   29.25    1.48
   1   7   2   33.90    2.90
   1   7   2   30.48    1.57
   1   7   2   30.48    1.57
   1   7   2   29.99    1.32
   1   7   2   32.04    1.26
   1   7   2   32.04    1.26
   1   7   2   29.29    1.53
   1   7   2   31.31    2.89
   1   7   2   31.31    2.89
   2   7   2   85.28    3.01
   2   7   2   85.28    3.01
   2   7   2   85.79    4.04
   2   7   2   85.79    4.04
   2   7   2   98.22    3.19
   2   7   2   78.99    3.95
   2   7   2   98.21    3.18
   3   7   2    7.38    1.70
   3   7   2    7.38    1.70
   3   7   2    6.82    2.04
   3   7   2    5.82    1.38
   3   7   2    6.82    2.04
   3   7   2    5.83    1.38
   3   7   2    7.39    2.03
   4   7   2   16.15    1.94
   4   7   2   16.15    1.94
   4   7   2   20.23    2.23
   4   7   2   19.03    2.46
   4   7   2   19.97    2.53
   4   7   2   19.03    2.46
   4   7   2   19.97    2.53
  -5  -7  -2   16.00    1.33
  -5  -7  -2   23.20    2.23
  -5  -7  -2   18.52    1.21
  -5  -7  -2   17.50    0.86
  -5  -7  -2   16.00    1.33
  -5  -7  -2   18.52    1.21
  -5  -7  -2   23.19    2.23
  -5  -7  -2   20.07    0.87
   5   7   2   18.98    2.89
   5   7   2   17.26    0.96
   5   7   2   17.56    1.31
   5   7   2   17.77    2.58
   5   7   2   12.37    2.63
   5   7   2   20.43    2.55
   5   7   2   18.98    2.89
   5   7   2   18.65    1.04
   5   7   2   18.34    1.42
   5   7   2   18.65    1.04
   5   7   2   20.43    2.56
   5   7   2   17.26    0.96
   5   7   2   12.37    2.62
  -6  -7  -2   87.83    2.89
  -6  -7  -2   84.79    3.78
  -6  -7  -2   84.80    3.78
   6   7   2   83.77    3.13
   6   7   2   83.12    2.93
   6   7   2   83.97    2.72
   6   7   2   83.97    2.72
   6   7   2   81.69    3.24
   6   7   2   80.80    5.68
   6   7   2   83.12    2.93
   6   7   2   80.80    5.68
  -3   8   2    0.56    2.64
  -3   8   2    2.22    3.33
  -3   8   2    2.22    3.34
  -3   8   2    0.56    2.64
  -3   8   2   -1.93    2.72
  -3   8   2   -3.99    3.16
   2  -8  -2   37.36    3.12
   2  -8  -2   32.54    3.13
   2  -8  -2   30.61    3.10
   2  -8  -2   37.36    3.12
   2  -8  -2   30.61    3.10
  -2   8   2   37.15    3.04
  -2   8   2   35.86    3.83
  -2   8   2   36.73    3.84
  -2   8   2   36.73    3.84
  -2   8   2   36.24    3.40
  -2   8   2   36.38    3.54
  -2   8   2   37.15    3.04
  -2   8   2   38.52    3.43
  -2   8   2   38.52    3.43
  -2   8   2   35.14    3.08
   1  -8  -2   36.25    3.13
   1  -8  -2   40.25    2.88
   1  -8  -2   36.25    3.13
   1  -8  -2   34.51    2.95
   1  -8  -2   34.51    2.95
  -1   8   2   46.55    3.05
  -1   8   2   37.84    3.06
  -1   8   2   44.93    2.65
  -1   8   2   40.15    2.93
  -1   8   2   43.57    3.79
  -1   8   2   37.84    3.06
  -1   8   2   39.93    3.02
  -1   8   2   43.56    3.78
  -1   8   2   44.93    2.65
  -1   8   2   42.08    3.80
   0  -8  -2   14.37    1.63
   0  -8  -2   13.58    1.56
   0  -8  -2   10.12    1.57
   0  -8  -2   13.58    1.56
   0  -8  -2   10.12    1.57
   0  -8  -2   13.09    1.47
   0   8   2    5.75    2.61
   0   8   2   12.71    1.61
   0   8   2   12.52    1.54
   0   8   2    9.90    1.45
   0   8   2   11.85    2.75
   0   8   2    9.90    1.45
   0   8   2   11.31    1.69
   0   8   2   12.71    1.61
   0   8   2   11.86    2.76
   0   8   2   11.33    1.76
  -1  -8  -2   49.92    2.04
  -1  -8  -2   48.17    1.73
  -1  -8  -2   48.17    1.73
  -1  -8  -2   49.67    1.67
  -1  -8  -2   52.65    1.87
  -1  -8  -2   49.92    2.04
   1   8   2   47.79    3.78
   1   8   2   48.60    2.06
   1   8   2   46.51    1.79
   1   8   2   48.72    2.13
   1   8   2   49.23    1.71
   1   8   2   46.94    1.83
   1   8   2   46.51    1.79
   1   8   2   49.23    1.71
   1   8   2   47.79    3.78
   1   8   2   50.21    1.87
   1   8   2   52.37    3.83
   1   8   2   46.94    1.83
   2   8   2   36.30    3.34
   2   8   2   33.29    2.40
   2   8   2   33.25    2.40
   2   8   2   36.68    3.31
   2   8   2   35.52    2.20
   2   8   2   36.31    3.35
   2   8   2   35.52    2.20
   3   8   2   16.88    2.01
   3   8   2   14.59    1.82
   3   8   2   13.57    2.70
   3   8   2   12.69    2.69
   3   8   2   13.57    2.69
   3   8   2   14.59    1.83
   3   8   2   16.88    2.01
   4   8   2    9.30    2.66
   4   8   2    6.73    1.84
   4   8   2    6.73    1.84
   4   8   2    6.84    2.23
   4   8   2    7.34    2.61
   4   8   2    9.30    2.66
   4   8   2    6.84    2.23
   5   8   2   39.15    3.79
   5   8   2   39.15    3.79
   5   8   2   48.19    3.60
   5   8   2   45.44    3.91
   5   8   2   45.44    3.91
   5   8   2   38.29    3.77
   5   8   2   48.19    3.60
  -6  -8  -2    0.34    1.00
  -6  -8  -2    0.02    1.83
  -6  -8  -2    0.34    1.00
  -6  -8  -2    0.74    1.08
  -6  -8  -2    0.74    1.08
  -6  -8  -2    0.01    1.83
   6   8   2    4.40    3.59
   6   8   2    4.40    3.59
   6   8   2    1.32    1.02
   6   8   2    1.01    0.55
   6   8   2    0.51    0.53
   6   8   2    0.56    0.98
   6   8   2    0.51    0.53
   6   8   2    1.01    0.55
   1  -9  -2   73.27    3.82
   1  -9  -2   64.58    3.61
   1  -9  -2   73.27    3.82
   1  -9  -2   55.23    3.90
  -1   9   2   72.10    4.02
  -1   9   2   66.79    3.28
  -1   9   2   67.97    6.19
  -1   9   2   66.79    3.28
  -1   9   2   66.32    5.89
  -1   9   2   56.89    3.73
  -1   9   2   72.10    4.02
  -1   9   2   67.91    6.18
  -1   9   2   60.58    3.70
  -1   9   2   57.09    3.62
   0  -9  -2    5.27    1.84
   0  -9  -2    4.08    1.58
   0  -9  -2    3.87    1.47
   0  -9  -2    5.27    1.84
   0  -9  -2    4.08    1.58
   0   9   2    6.38    1.43
   0   9   2    6.38    1.43
   0   9   2    4.51    1.50
   0   9   2    3.95    1.82
   0   9   2    3.94    1.74
   0   9   2    1.90    1.53
   0   9   2    1.90    1.53
  -1  -9  -2   11.36    1.60
  -1  -9  -2    9.77    1.05
  -1  -9  -2   10.73    1.24
  -1  -9  -2    9.77    1.05
  -1  -9  -2   11.36    1.60
  -1  -9  -2   10.94    0.99
   1   9   2   10.96    0.99
   1   9   2   10.96    0.99
   1   9   2    9.68    1.18
   1   9   2   11.98    1.16
   1   9   2    9.68    1.18
   1   9   2   12.08    1.51
   1   9   2   12.06    1.44
   2   9   2    9.06    1.54
   2   9   2    7.41    1.93
   2   9   2    9.06    1.54
   2   9   2    7.41    1.92
   3   9   2  102.17    4.03
   3   9   2   97.55    3.91
   3   9   2  107.60    5.59
   3   9   2  107.61    5.59
   3   9   2   97.55    3.91
   3   9   2   96.68    5.47
   3   9   2  102.17    4.03
   4   9   2    9.46    2.69
   4   9   2    8.35    2.05
   4   9   2    9.46    2.69
   4   9   2    5.53    2.50
   4   9   2    8.36    2.05
   5   9   2   11.95    3.52
   5   9   2   16.46    2.78
   5   9   2   14.83    3.42
   5   9   2   11.43    3.46
   5   9   2   11.43    3.46
   5   9   2   14.83    3.42
   5   9   2   16.47    2.79
   0 -10  -2   16.68    1.92
   0 -10  -2   16.68    1.92
   0 -10  -2   19.13    2.39
   0 -10  -2   17.66    1.90
   0  10   2   17.26    3.65
   0  10   2   17.25    3.64
   0  10   2   16.24    2.48
   0  10   2   16.69    2.20
   0  10   2   16.69    2.20
   0  10   2   12.63    1.95
   0  10   2   12.72    1.85
   0  10   2   12.72    1.85
   0  10   2   16.14    2.37
   0  10   2   20.51    3.64
  -1 -10  -2   -0.48    1.04
  -1 -10  -2   -1.34    1.46
  -1 -10  -2   -0.73    0.86
  -1 -10  -2   -0.48    1.04
  -1 -10  -2   -1.34    1.46
   1  10   2    2.52    1.55
   1  10   2   -0.06    1.10
   1  10   2    2.49    1.48
   1  10   2   -6.59    3.53
   1  10   2    0.36    0.94
   1  10   2   -6.59    3.52
   1  10   2    0.36    0.94
   1  10   2    0.72    1.10
   1  10   2   -0.06    1.10
   1  10   2   -1.34    3.58
   2  10   2   41.62    3.40
   2  10   2   41.82    3.40
   2  10   2   42.19    2.24
   2  10   2   42.19    2.24
   3  10   2    0.40    3.68
   3  10   2    2.86    2.03
   3  10   2    2.86    2.03
   3  10   2   -1.40    1.96
   3  10   2   -1.40    1.96
   3  10   2    0.40    3.68
   3  10   2   -1.47    3.61
   4  10   2   33.44    4.61
   4  10   2   27.68    4.53
   4  10   2   32.19    2.96
   4  10   2   32.20    2.96
   4  10   2   33.44    4.61
   4   9  -3   16.35    4.03
   4   9  -3    9.93    1.93
   4   9  -3   10.55    1.92
   4   9  -3    5.45    3.84
   4   9  -3   13.62    2.98
   4   9  -3    9.85    1.84
   4   9  -3   13.62    2.98
   4   9  -3    5.45    3.84
   4   9  -3   10.55    1.92
   4   9  -3    8.22    1.83
  -4  -9   3   10.78    1.81
  -4  -9   3   14.70    2.71
  -4  -9   3   11.55    1.97
  -4  -9   3   14.70    2.71
  -4  -9   3   10.24    1.97
  -4  -9   3   10.24    1.97
   3   9  -3   10.09    1.47
   3   9  -3   13.79    2.06
   3   9  -3   13.11    1.97
   3   9  -3   13.11    1.97
   3   9  -3   11.01    2.11
   3   9  -3   11.01    2.11
   3   9  -3   11.31    1.77
   3   9  -3   10.08    1.47
  -3  -9   3    9.22    1.79
  -3  -9   3    9.22    1.79
  -3  -9   3   14.10    2.06
  -3  -9   3   14.10    2.06
  -3  -9   3    8.92    2.00
  -3  -9   3    7.00    2.02
  -3  -9   3   11.07    1.77
  -3  -9   3    7.00    2.02
   2   9  -3   27.98    2.47
   2   9  -3   31.82    2.39
   2   9  -3   24.31    2.39
   2   9  -3   25.31    2.52
   2   9  -3   24.31    2.39
   2   9  -3   23.79    1.95
   2   9  -3   23.80    1.95
   2   9  -3   31.82    2.39
  -2  -9   3   23.96    1.95
  -2  -9   3   25.59    2.90
  -2  -9   3   23.96    1.95
  -2  -9   3   24.90    2.06
  -2  -9   3   24.20    2.57
  -2  -9   3   25.59    2.90
   1   9  -3    4.47    1.64
   1   9  -3    6.36    2.29
   1   9  -3    6.36    2.29
   1   9  -3    4.47    1.64
   1   9  -3    3.10    2.27
   1   9  -3    5.32    1.69
  -1  -9   3    6.57    1.80
  -1  -9   3    1.10    2.22
  -1  -9   3    6.57    1.80
  -1  -9   3    4.77    1.73
   0   9  -3    6.11    2.00
   0   9  -3    8.18    1.98
   0   9  -3   10.64    2.99
   0   9  -3   10.64    2.99
   0   9  -3    6.11    2.00
   0   9  -3    7.67    2.67
   0   9  -3    7.60    2.76
   0  -9   3   10.66    2.12
   0  -9   3   10.66    2.12
   0  -9   3    6.09    2.65
   0  -9   3    6.09    2.65
   0  -9   3    7.23    2.89
   0  -9   3    7.43    1.89
   5   8  -3   -2.47    1.43
   5   8  -3   -6.69    3.12
   5   8  -3   -2.01    1.99
   5   8  -3    3.18    3.36
   5   8  -3   -4.49    3.15
   5   8  -3    0.20    1.98
   5   8  -3   -1.99    1.90
   5   8  -3   -4.49    3.16
   5   8  -3    3.18    3.36
   5   8  -3    0.20    1.98
   5   8  -3    2.13    1.61
   5   8  -3   -2.47    1.43
  -5  -8   3   -2.83    2.72
  -5  -8   3   -2.83    2.72
  -5  -8   3    0.42    2.15
  -5  -8   3    1.42    1.63
  -5  -8   3   -3.41    1.91
  -5  -8   3    0.42    2.15
   4   8  -3   15.63    1.71
   4   8  -3   13.99    1.87
   4   8  -3   18.21    1.99
   4   8  -3   14.11    1.97
   4   8  -3   15.44    2.85
   4   8  -3   15.44    2.85
   4   8  -3   17.90    1.85
   4   8  -3   18.21    1.99
   4   8  -3   15.63    1.71
  -4  -8   3   17.90    2.10
  -4  -8   3   20.36    2.59
  -4  -8   3   20.36    2.59
  -4  -8   3   17.90    2.10
  -4  -8   3   15.67    1.92
  -4  -8   3   15.97    1.90
  -4  -8   3   18.98    1.81
  -4  -8   3   15.97    1.90
   3   8  -3   48.62    2.60
   3   8  -3   53.29    3.38
   3   8  -3   48.29    2.67
   3   8  -3   52.36    2.62
   3   8  -3   53.29    3.38
   3   8  -3   47.77    2.03
   3   8  -3   47.77    2.03
   3   8  -3   48.62    2.60
  -3  -8   3   49.03    2.63
  -3  -8   3   49.03    2.63
  -3  -8   3   48.12    2.60
  -3  -8   3   52.27    3.14
  -3  -8   3   48.12    2.60
  -3  -8   3   52.27    3.14
   2   8  -3   27.55    2.01
   2   8  -3   29.97    1.98
   2   8  -3   23.61    2.07
   2   8  -3   23.61    2.07
   2   8  -3   28.27    2.58
   2   8  -3   27.55    2.01
   2   8  -3   29.96    1.98
   2   8  -3   31.16    2.20
  -2  -8   3   35.74    2.19
  -2  -8   3   26.23    2.22
  -2  -8   3   26.23    2.22
  -2  -8   3   29.85    2.08
  -2  -8   3   35.74    2.19
  -2  -8   3   29.85    2.08
  -2  -8   3   30.00    2.18
   1   8  -3    9.06    1.94
   1   8  -3    8.01    1.50
   1   8  -3    9.09    1.96
   1   8  -3    8.65    1.47
   1   8  -3    9.09    1.96
   1   8  -3    8.01    1.50
  -1  -8   3   12.18    2.10
  -1  -8   3   11.69    1.63
  -1  -8   3   12.18    2.10
  -1  -8   3    7.48    1.50
  -1  -8   3    7.48    1.50
   0   8  -3   12.88    1.69
   0   8  -3   12.88    1.69
   0   8  -3   13.36    1.86
   0   8  -3   12.90    2.55
   0   8  -3   17.21    2.70
   0   8  -3   12.90    2.55
   0  -8   3   16.98    1.99
   0  -8   3   12.59    1.78
   0  -8   3   16.98    1.99
  -1   8  -3   26.99    3.27
  -1   8  -3   29.71    3.20
  -1   8  -3   29.71    3.20
  -1   8  -3   24.37    2.37
  -1   8  -3   24.37    2.37
  -1   8  -3   30.24    2.63
  -1   8  -3   26.75    3.14
   1  -8   3   25.11    3.21
   1  -8   3   26.45    2.50
   1  -8   3   25.11    3.21
   1  -8   3   28.10    2.59
   1  -8   3   26.45    2.50
   1  -8   3   26.97    3.46
  -2   8  -3    2.24    2.27
   2  -8   3   -1.73    3.11
   5   7  -3   30.60    3.39
   5   7  -3   24.41    2.08
   5   7  -3   26.07    3.66
   5   7  -3   32.15    2.40
   5   7  -3   30.24    2.52
   5   7  -3   30.31    2.60
   5   7  -3   30.61    3.39
   5   7  -3   32.15    2.40
   5   7  -3   30.11    2.48
   5   7  -3   28.36    3.34
   5   7  -3   30.24    2.52
   5   7  -3   26.07    3.66
  -5  -7   3   31.80    3.26
  -5  -7   3   23.53    2.12
  -5  -7   3   27.91    2.61
  -5  -7   3   26.04    2.48
  -5  -7   3   31.80    3.26
  -5  -7   3   23.53    2.12
  -5  -7   3   26.04    2.48
  -5  -7   3   22.80    1.96
   4   7  -3   17.22    1.62
   4   7  -3   21.69    2.05
   4   7  -3   21.42    1.95
   4   7  -3   17.22    1.62
   4   7  -3   25.46    3.02
   4   7  -3   25.46    3.02
   4   7  -3   23.01    2.07
  -4  -7   3   24.27    2.70
  -4  -7   3   24.27    2.70
  -4  -7   3   24.06    1.98
  -4  -7   3   22.82    2.08
  -4  -7   3   20.56    2.01
  -4  -7   3   20.56    2.01
  -4  -7   3   24.06    1.98
   3   7  -3   26.17    2.02
   3   7  -3   24.79    2.01
   3   7  -3   29.60    2.03
   3   7  -3   28.83    1.39
   3   7  -3   28.81    1.39
   3   7  -3   34.38    2.79
   3   7  -3   31.28    2.07
   3   7  -3   29.60    2.03
   3   7  -3   34.38    2.79
   3   7  -3   24.79    2.01
  -3  -7   3   28.96    1.99
  -3  -7   3   29.33    2.04
  -3  -7   3   31.46    2.80
  -3  -7   3   28.15    2.12
  -3  -7   3   29.33    2.04
  -3  -7   3   31.46    2.80
  -3  -7   3   28.96    1.99
  -3  -7   3   32.98    2.09
   2   7  -3    7.28    0.98
   2   7  -3    4.30    1.27
   2   7  -3    7.14    1.21
   2   7  -3    3.59    1.13
   2   7  -3    4.27    1.29
   2   7  -3    7.29    0.98
   2   7  -3    4.27    1.29
   2   7  -3    7.14    1.21
  -2  -7   3    6.68    1.26
  -2  -7   3    6.35    1.32
  -2  -7   3    5.15    1.35
  -2  -7   3    6.85    1.48
  -2  -7   3    6.85    1.48
  -2  -7   3    5.15    1.35
  -2  -7   3    5.91    1.22
  -2  -7   3    5.91    1.22
   1   7  -3   22.34    1.85
   1   7  -3   20.27    1.61
   1   7  -3   19.97    1.95
   1   7  -3   20.27    1.61
   1   7  -3   20.33    1.95
   1   7  -3   20.33    1.95
  -1  -7   3   22.50    2.02
  -1  -7   3   21.11    1.84
  -1  -7   3   21.20    1.74
  -1  -7   3   21.20    1.74
  -1  -7   3   21.11    1.84
  -1  -7   3   21.96    1.26
  -1  -7   3   21.96    1.26
  -1  -7   3   20.52    1.77
   0   7  -3  113.64    4.37
   0   7  -3  118.96    3.88
   0   7  -3  114.98    4.47
   0   7  -3  113.64    4.37
   0  -7   3  121.85    3.85
   0  -7   3  121.85    3.85
   0  -7   3  122.48    4.24
   0  -7   3  122.48    4.24
  -1   7  -3   18.20    2.74
  -1   7  -3   23.66    2.72
  -1   7  -3   22.26    2.17
  -1   7  -3   22.19    2.07
  -1   7  -3   22.19    2.07
  -1   7  -3   18.20    2.74
   1  -7   3   22.80    2.15
   1  -7   3   23.42    4.55
   1  -7   3   23.42    4.55
   1  -7   3   22.60    2.23
   1  -7   3   22.80    2.15
  -2   7  -3   14.70    3.05
  -2   7  -3   10.20    2.00
  -2   7  -3   10.20    2.00
  -2   7  -3   14.93    3.17
  -2   7  -3   14.71    2.83
  -2   7  -3   16.38    2.38
  -2   7  -3   14.71    2.83
   2  -7   3   17.49    3.10
   2  -7   3   15.31    2.41
   2  -7   3   13.83    2.17
   2  -7   3   13.83    2.17
   2  -7   3   12.73    2.90
   2  -7   3   12.73    2.90
  -3   7  -3    7.59    3.42
  -3   7  -3    7.59    3.42
  -3   7  -3   -0.72    2.20
  -3   7  -3   -2.21    3.25
  -3   7  -3   -2.32    2.39
  -3   7  -3   -0.72    2.20
  -3   7  -3   -0.97    3.11
   3  -7   3   -3.58    3.24
   3  -7   3   -3.52    2.96
   3  -7   3   -2.13    2.16
   3  -7   3   -2.13    2.16
   3  -7   3   -3.52    2.96
   3  -7   3   -0.03    2.52
   6   6  -3   15.72    3.27
   6   6  -3   10.84    2.45
   6   6  -3   17.14    2.84
   6   6  -3   11.48    2.61
   6   6  -3   11.46    2.51
   6   6  -3   15.72    3.27
   6   6  -3   11.82    2.49
   6   6  -3   16.56    2.18
   6   6  -3   13.10    1.98
   6   6  -3   17.14    2.84
   6   6  -3   16.56    2.18
   6   6  -3   11.82    2.49
  -6  -6   3   13.39    2.04
  -6  -6   3   17.72    2.94
  -6  -6   3   13.39    2.04
  -6  -6   3   12.22    1.61
  -6  -6   3   14.00    2.16
  -6  -6   3   17.72    2.94
  -6  -6   3   18.73    3.66
  -6  -6   3   18.73    3.66
  -6  -6   3    7.99    2.59
  -6  -6   3   12.21    1.61
   5   6  -3   34.13    3.02
   5   6  -3   37.30    2.33
   5   6  -3   34.84    2.97
   5   6  -3   35.43    3.00
   5   6  -3   37.30    2.33
   5   6  -3   34.89    2.51
   5   6  -3   41.44    3.84
   5   6  -3   37.58    3.05
   5   6  -3   41.44    3.84
   5   6  -3   34.84    2.97
   5   6  -3   37.58    3.05
   5   6  -3   35.29    3.10
  -5  -6   3   37.88    2.47
  -5  -6   3   35.81    3.08
  -5  -6   3   35.81    3.08
  -5  -6   3   37.88    2.47
  -5  -6   3   39.08    3.59
  -5  -6   3   37.85    3.10
  -5  -6   3   39.08    3.59
   4   6  -3   73.30    3.06
   4   6  -3   72.73    2.79
   4   6  -3   77.21    2.70
   4   6  -3   73.30    3.06
   4   6  -3   77.21    2.70
   4   6  -3   77.95    3.20
   4   6  -3   71.36    4.11
   4   6  -3   77.95    3.10
   4   6  -3   71.36    4.11
  -4  -6   3   68.23    3.08
  -4  -6   3   76.16    2.72
  -4  -6   3   68.23    3.08
  -4  -6   3   73.33    2.72
  -4  -6   3   73.33    3.81
  -4  -6   3   65.21    3.11
  -4  -6   3   73.33    3.81
  -4  -6   3   73.33    2.72
   3   6  -3   28.64    2.47
   3   6  -3   21.21    1.71
   3   6  -3   18.93    1.60
   3   6  -3   20.05    1.65
   3   6  -3   20.05    1.65
   3   6  -3   28.64    2.47
   3   6  -3   18.93    1.60
  -3  -6   3   25.72    2.39
  -3  -6   3   21.68    1.69
  -3  -6   3   25.63    1.86
  -3  -6   3   25.63    1.86
  -3  -6   3   22.11    1.85
  -3  -6   3   25.72    2.39
  -3  -6   3   23.48    1.96
  -3  -6   3   23.48    1.96
   2   6  -3   14.33    1.38
   2   6  -3   13.76    1.28
   2   6  -3   14.85    1.07
   2   6  -3   13.76    1.28
   2   6  -3   14.84    1.07
   2   6  -3   13.82    1.34
   2   6  -3   14.33    1.38
   2   6  -3   14.54    1.40
   2   6  -3   15.30    1.64
   2   6  -3   15.30    1.64
  -2  -6   3   12.36    1.33
  -2  -6   3   14.54    1.32
  -2  -6   3   13.67    1.43
  -2  -6   3   15.49    1.72
  -2  -6   3   13.67    1.43
  -2  -6   3   15.87    1.40
  -2  -6   3   15.49    1.72
  -2  -6   3   12.36    1.33
   1   6  -3    1.68    1.17
   1   6  -3    1.68    1.17
   1   6  -3    1.89    0.84
   1   6  -3    1.89    0.84
   1   6  -3    0.73    0.94
  -1  -6   3    1.87    1.05
  -1  -6   3    0.64    0.84
  -1  -6   3    1.35    1.04
  -1  -6   3    0.56    0.83
  -1  -6   3   -0.32    0.94
  -1  -6   3    1.35    1.04
  -1  -6   3   -0.32    0.94
  -1  -6   3    0.56    0.83
   0   6  -3  198.58    5.39
   0   6  -3  182.03    4.80
   0   6  -3  198.58    5.39
   0   6  -3  184.24    5.34
   0   6  -3  187.29    4.95
   0   6  -3  182.03    4.80
   0  -6   3  182.75    4.83
   0  -6   3  185.76    5.17
   0  -6   3  182.75    4.83
   0  -6   3  185.76    5.17
   0  -6   3  181.25    5.27
  -1   6  -3   61.41    2.85
  -1   6  -3   59.08    2.71
  -1   6  -3   57.08    3.48
  -1   6  -3   59.08    2.71
  -1   6  -3   61.42    3.25
  -1   6  -3   61.42    3.25
   1  -6   3   59.53    2.76
   1  -6   3   61.45    3.19
   1  -6   3   62.86    3.36
   1  -6   3   62.94    2.85
   1  -6   3   61.45    3.19
   1  -6   3   59.53    2.76
  -2   6  -3    6.06    2.23
  -2   6  -3    4.68    1.68
  -2   6  -3    6.18    2.35
  -2   6  -3    8.34    1.82
  -2   6  -3    5.95    2.25
  -2   6  -3    4.68    1.68
  -2   6  -3    6.06    2.23
   2  -6   3    4.64    2.28
   2  -6   3    5.76    1.72
   2  -6   3    5.76    1.72
   2  -6   3    3.20    1.81
  -3   6  -3   19.08    2.58
  -3   6  -3   19.40    2.69
  -3   6  -3   14.07    2.97
  -3   6  -3   15.02    2.56
  -3   6  -3   14.42    3.11
  -3   6  -3   19.40    2.69
  -3   6  -3   19.08    2.58
   3  -6   3   13.70    1.51
   3  -6   3   13.70    1.51
   3  -6   3   16.33    3.31
   3  -6   3   15.03    2.97
   3  -6   3   19.21    2.65
   3  -6   3   15.03    2.97
   6   5  -3   25.91    2.96
   6   5  -3   17.96    2.14
   6   5  -3   20.22    2.73
   6   5  -3   16.67    3.92
   6   5  -3   16.67    3.92
   6   5  -3   17.96    2.13
   6   5  -3   21.29    2.16
   6   5  -3   25.82    2.84
   6   5  -3   20.22    2.73
   6   5  -3   20.57    2.48
   6   5  -3   23.40    2.24
   6   5  -3   23.40    2.24
  -6  -5   3   20.73    2.83
  -6  -5   3   21.32    1.94
  -6  -5   3   24.03    2.51
  -6  -5   3   20.73    2.83
  -6  -5   3   20.37    3.53
  -6  -5   3   20.37    3.53
  -6  -5   3   21.34    1.95
  -6  -5   3   24.03    2.51
   5   5  -3   51.03    3.01
   5   5  -3   45.42    2.93
   5   5  -3   45.43    2.93
   5   5  -3   41.21    3.04
   5   5  -3   41.03    3.14
   5   5  -3   49.63    3.00
   5   5  -3   52.11    2.64
   5   5  -3   52.11    2.64
   5   5  -3   49.63    3.00
   5   5  -3   57.45    4.50
   5   5  -3   57.45    4.50
   5   5  -3   47.75    3.00
  -5  -5   3   50.01    2.09
  -5  -5   3   52.22    3.93
  -5  -5   3   50.48    3.42
  -5  -5   3   52.22    3.93
  -5  -5   3   49.28    2.50
  -5  -5   3   49.97    2.09
  -5  -5   3   49.28    2.50
  -5  -5   3   48.57    3.04
  -5  -5   3   50.48    3.42
   4   5  -3    8.63    1.60
   4   5  -3    9.33    1.24
   4   5  -3    8.63    1.60
   4   5  -3    8.35    1.31
   4   5  -3    9.33    1.24
   4   5  -3    7.98    1.86
   4   5  -3    7.96    1.78
  -4  -5   3    8.40    1.52
  -4  -5   3    8.28    1.24
  -4  -5   3    8.46    1.97
  -4  -5   3    9.17    1.30
  -4  -5   3    8.40    1.52
  -4  -5   3    8.46    1.97
  -4  -5   3    7.36    1.58
  -4  -5   3    9.17    1.30
   3   5  -3   87.38    2.81
   3   5  -3   92.11    2.69
   3   5  -3   82.47    3.57
   3   5  -3   92.11    2.69
   3   5  -3   85.14    2.78
   3   5  -3   82.47    3.57
   3   5  -3   87.38    2.81
  -3  -5   3   89.81    2.93
  -3  -5   3   83.25    2.92
  -3  -5   3   88.66    2.73
  -3  -5   3   89.81    2.93
  -3  -5   3   91.68    3.74
  -3  -5   3   91.68    3.74
  -3  -5   3   67.45    3.49
  -3  -5   3   88.66    2.73
   2   5  -3   62.25    2.26
   2   5  -3   63.87    1.65
   2   5  -3   69.00    2.76
   2   5  -3   66.59    2.26
   2   5  -3   61.78    2.30
   2   5  -3   60.27    2.22
   2   5  -3   66.59    2.26
   2   5  -3   63.88    1.65
   2   5  -3   60.27    2.22
   2   5  -3   69.00    2.76
  -2  -5   3   66.05    2.22
  -2  -5   3   67.26    2.70
  -2  -5   3   64.80    2.25
  -2  -5   3   67.26    2.70
  -2  -5   3   64.80    2.25
  -2  -5   3   66.05    2.22
  -2  -5   3   64.64    2.28
  -2  -5   3   67.08    2.29
   1   5  -3   76.42    2.41
   1   5  -3   79.07    2.73
   1   5  -3   77.79    2.54
   1   5  -3   79.38    2.59
   1   5  -3   79.38    2.59
   1   5  -3   76.42    2.41
  -1  -5   3   75.85    2.52
  -1  -5   3   79.15    2.58
  -1  -5   3   80.67    2.67
  -1  -5   3   80.67    2.67
  -1  -5   3   79.15    2.58
  -1  -5   3   78.57    2.69
  -1  -5   3   75.85    2.52
   0   5  -3   31.66    1.62
   0   5  -3   28.79    1.93
   0   5  -3   29.48    1.70
   0   5  -3   31.66    1.62
   0   5  -3   30.27    2.00
   0   5  -3   28.79    1.93
   0  -5   3   27.33    1.86
   0  -5   3   28.56    1.29
   0  -5   3   29.96    1.66
   0  -5   3   27.33    1.86
   0  -5   3   29.45    1.99
   0  -5   3   29.96    1.66
   0  -5   3   27.44    1.80
   0  -5   3   28.56    1.29
  -1   5  -3   18.33    1.62
  -1   5  -3   17.66    1.67
  -1   5  -3   18.33    1.62
  -1   5  -3   16.63    1.89
  -1   5  -3   16.63    1.89
  -1   5  -3   18.52    2.04
   1  -5   3   17.80    0.92
   1  -5   3   16.76    0.94
   1  -5   3   16.27    1.65
   1  -5   3   17.80    0.92
   1  -5   3   16.98    1.65
   1  -5   3   16.76    0.94
   1  -5   3   16.66    2.20
   1  -5   3   16.66    2.20
   1  -5   3   16.98    1.65
  -2   5  -3   38.57    2.55
  -2   5  -3   42.19    3.20
  -2   5  -3   35.48    2.51
  -2   5  -3   35.27    2.92
  -2   5  -3   35.48    2.51
  -2   5  -3   35.27    2.92
   2  -5   3   38.46    2.93
   2  -5   3   38.46    2.93
   2  -5   3   37.70    1.77
   2  -5   3   37.70    2.52
   2  -5   3   39.83    2.62
   2  -5   3   37.70    1.77
   2  -5   3   37.70    2.52
   2  -5   3   39.76    3.15
  -3   5  -3   39.61    3.47
  -3   5  -3   37.10    3.47
  -3   5  -3   39.61    3.47
  -3   5  -3   36.88    3.34
  -3   5  -3   40.87    3.01
  -3   5  -3   35.30    2.47
  -3   5  -3   35.30    2.47
   3  -5   3   39.64    2.52
   3  -5   3   44.19    3.31
   3  -5   3   37.17    3.42
   3  -5   3   42.64    3.09
   3  -5   3   42.64    3.09
   3  -5   3   39.64    2.52
  -4   5  -3   45.77    3.98
  -4   5  -3   45.96    3.85
  -4   5  -3   42.34    3.77
  -4   5  -3   34.61    3.27
  -4   5  -3   42.34    3.77
  -4   5  -3   43.87    3.58
  -4   5  -3   43.87    3.58
   4  -5   3   40.56    4.07
   4  -5   3   48.95    3.73
   4  -5   3   40.56    4.07
   4  -5   3   43.17    3.33
   4  -5   3   38.13    3.39
   4  -5   3   37.75    4.15
   4  -5   3   43.17    3.33
   4  -5   3   48.95    3.73
   6   4  -3   27.63    2.92
   6   4  -3   22.87    2.90
   6   4  -3   24.01    2.38
   6   4  -3   22.81    3.34
   6   4  -3   22.81    3.34
   6   4  -3   18.29    2.40
   6   4  -3   22.64    2.76
   6   4  -3   27.63    2.92
   6   4  -3   24.01    2.38
  -6  -4   3   27.47    3.10
  -6  -4   3   27.47    3.10
  -6  -4   3   21.32    3.19
  -6  -4   3   27.02    2.26
  -6  -4   3   27.02    2.26
  -6  -4   3   17.94    3.47
  -6  -4   3   17.94    3.47
   5   4  -3   44.10    2.92
   5   4  -3   44.05    2.57
   5   4  -3   45.81    2.47
   5   4  -3   47.29    2.43
   5   4  -3   42.62    2.95
   5   4  -3   52.04    3.56
   5   4  -3   45.37    2.42
   5   4  -3   42.62    2.95
   5   4  -3   45.37    2.43
   5   4  -3   52.04    3.56
   5   4  -3   43.75    3.01
   5   4  -3   45.81    2.47
  -5  -4   3   44.87    3.08
  -5  -4   3   46.95    2.21
  -5  -4   3   42.50    3.17
  -5  -4   3   47.81    3.75
  -5  -4   3   47.45    2.54
  -5  -4   3   46.96    2.21
  -5  -4   3   47.45    2.54
  -5  -4   3   44.87    3.08
  -5  -4   3   42.50    3.17
   4   4  -3    0.32    1.07
   4   4  -3    0.99    1.22
   4   4  -3   -0.90    1.12
   4   4  -3    0.99    1.22
   4   4  -3    0.19    1.04
   4   4  -3    0.40    2.03
   4   4  -3   -0.91    1.18
   4   4  -3    0.32    1.07
   4   4  -3    0.40    2.03
  -4  -4   3   -0.99    1.22
  -4  -4   3    1.70    1.83
  -4  -4   3    1.22    0.70
  -4  -4   3    1.22    0.70
  -4  -4   3    1.70    1.83
  -4  -4   3   -0.77    0.98
  -4  -4   3   -0.99    1.22
   3   4  -3   61.24    2.35
   3   4  -3   70.69    3.17
   3   4  -3   64.28    2.24
   3   4  -3   62.11    2.42
   3   4  -3   67.19    2.35
   3   4  -3   64.28    2.24
   3   4  -3   70.69    3.17
   3   4  -3   61.24    2.35
   3   4  -3   61.61    2.34
  -3  -4   3   64.38    2.27
  -3  -4   3   61.58    2.14
  -3  -4   3   69.05    3.18
  -3  -4   3   61.58    2.14
  -3  -4   3   64.54    2.41
  -3  -4   3   64.54    2.41
  -3  -4   3   69.05    3.18
   2   4  -3  154.12    3.92
   2   4  -3  151.28    3.95
   2   4  -3  153.70    3.86
   2   4  -3  153.74    3.99
   2   4  -3  153.70    3.86
   2   4  -3  161.43    4.53
   2   4  -3  154.12    3.92
   2   4  -3  161.43    4.53
  -2  -4   3  159.28    3.98
  -2  -4   3  158.07    4.54
  -2  -4   3  158.07    4.54
  -2  -4   3  154.01    3.91
  -2  -4   3  164.96    3.93
  -2  -4   3  159.28    3.98
  -2  -4   3  164.96    3.93
   1   4  -3  150.10    3.86
   1   4  -3  157.49    3.97
   1   4  -3  153.24    3.80
   1   4  -3  157.66    3.90
   1   4  -3  153.24    3.80
   1   4  -3  157.66    3.90
  -1  -4   3  150.69    3.80
  -1  -4   3  152.18    4.03
  -1  -4   3  159.65    3.94
  -1  -4   3  153.57    3.95
  -1  -4   3  152.18    4.03
  -1  -4   3  159.65    3.94
  -1  -4   3  150.69    3.80
   0   4  -3   40.34    1.72
   0   4  -3   40.55    1.88
   0   4  -3   40.34    1.72
   0   4  -3   40.55    1.88
   0   4  -3   38.58    1.92
   0   4  -3   36.70    1.75
   0  -4   3   39.52    1.73
   0  -4   3   40.82    1.94
   0  -4   3   39.00    1.58
   0  -4   3   42.89    1.84
   0  -4   3   38.45    1.75
   0  -4   3   39.52    1.73
   0  -4   3   39.00    1.58
   0  -4   3   42.89    1.84
  -1   4  -3  104.88    3.28
  -1   4  -3  108.55    3.51
  -1   4  -3  108.55    3.51
  -1   4  -3   97.83    3.12
  -1   4  -3   97.83    3.12
  -1   4  -3  103.26    3.58
   1  -4   3  100.45    3.37
   1  -4   3  100.83    3.20
   1  -4   3  103.25    3.57
   1  -4   3   99.66    2.56
   1  -4   3  100.45    3.37
   1  -4   3   99.66    2.56
   1  -4   3  101.53    3.20
   1  -4   3  101.53    3.20
  -2   4  -3    1.85    1.16
  -2   4  -3    1.85    1.16
  -2   4  -3    0.43    0.92
  -2   4  -3   -0.78    1.06
  -2   4  -3    0.69    0.87
  -2   4  -3    0.69    0.87
   2  -4   3    1.82    1.45
   2  -4   3    0.95    1.22
   2  -4   3    1.93    0.91
   2  -4   3    0.95    1.22
   2  -4   3    1.93    0.91
   2  -4   3    3.50    1.35
  -3   4  -3  128.01    4.93
  -3   4  -3  123.22    4.38
  -3   4  -3  133.22    4.97
  -3   4  -3  128.01    4.93
  -3   4  -3  132.71    5.11
  -3   4  -3  131.10    4.62
  -3   4  -3  123.22    4.38
   3  -4   3  121.29    4.50
   3  -4   3  121.73    4.51
   3  -4   3  121.29    4.50
   3  -4   3  121.83    4.37
   3  -4   3  121.83    4.37
   3  -4   3  123.24    3.96
   3  -4   3  117.56    4.85
   3  -4   3  123.24    3.96
  -4   4  -3   20.54    2.60
  -4   4  -3   22.64    3.06
  -4   4  -3   17.53    2.70
  -4   4  -3   22.24    2.93
  -4   4  -3   18.80    2.69
  -4   4  -3   17.53    2.70
  -4   4  -3   20.54    2.60
   4  -4   3   17.44    2.98
   4  -4   3   23.81    3.30
   4  -4   3   19.13    2.37
   4  -4   3   21.95    2.40
   4  -4   3   19.68    2.61
   4  -4   3   19.68    2.61
   4  -4   3   17.44    2.98
   4  -4   3   19.13    2.37
  -5   4  -3    1.42    1.98
  -5   4  -3    1.42    1.98
  -5   4  -3    4.05    3.57
  -5   4  -3    4.03    3.41
  -5   4  -3    3.81    2.76
  -5   4  -3    3.81    2.76
  -5   4  -3    2.50    2.78
   5  -4   3    5.64    2.74
   5  -4   3    0.00    2.54
   5  -4   3    0.00    2.54
   5  -4   3    0.81    1.91
   5  -4   3    2.19    3.31
   5  -4   3    5.64    2.74
   5  -4   3    3.01    3.46
   5  -4   3    0.81    1.91
   6   3  -3   48.30    3.25
   6   3  -3   51.99    3.77
   6   3  -3   51.31    3.55
   6   3  -3   51.99    3.77
   6   3  -3   48.30    3.25
   6   3  -3   45.14    3.77
   6   3  -3   45.25    3.92
  -6  -3   3   51.95    3.75
  -6  -3   3   54.65    4.19
  -6  -3   3   52.66    3.46
  -6  -3   3   55.64    3.14
  -6  -3   3   51.95    3.75
  -6  -3   3   42.69    4.07
  -6  -3   3   52.66    3.46
  -6  -3   3   55.64    3.14
  -6  -3   3   42.69    4.07
   5   3  -3   91.65    4.15
   5   3  -3   88.46    2.67
   5   3  -3   91.68    4.02
   5   3  -3   94.72    3.48
   5   3  -3   85.47    3.85
   5   3  -3   85.47    3.85
   5   3  -3   91.96    2.67
   5   3  -3   94.72    3.48
   5   3  -3   87.66    4.79
   5   3  -3   87.66    4.79
   5   3  -3   88.45    2.67
   5   3  -3   91.60    3.60
  -5  -3   3   90.48    3.96
  -5  -3   3   94.60    4.26
  -5  -3   3   90.48    3.96
  -5  -3   3   90.55    4.18
  -5  -3   3   94.62    3.57
  -5  -3   3   97.04    3.29
  -5  -3   3   97.11    3.29
  -5  -3   3   94.60    4.26
   4   3  -3   27.66    2.30
   4   3  -3   32.39    2.23
   4   3  -3   34.87    2.94
   4   3  -3   31.90    1.89
   4   3  -3   32.88    2.03
   4   3  -3   34.87    2.94
   4   3  -3   31.78    1.80
   4   3  -3   32.39    2.23
   4   3  -3   35.09    1.82
   4   3  -3   27.61    2.22
   4   3  -3   31.78    1.80
   4   3  -3   31.90    1.89
  -4  -3   3   32.64    1.91
  -4  -3   3   33.88    2.60
  -4  -3   3   29.94    1.69
  -4  -3   3   31.41    2.29
  -4  -3   3   31.41    2.29
  -4  -3   3   32.64    1.91
  -4  -3   3   34.34    2.92
  -4  -3   3   34.34    2.92
  -4  -3   3   29.94    1.69
   3   3  -3   42.94    2.59
   3   3  -3   43.19    1.90
   3   3  -3   43.38    2.03
   3   3  -3   43.38    2.03
   3   3  -3   40.24    1.75
   3   3  -3   43.14    2.08
   3   3  -3   42.94    2.59
   3   3  -3   40.24    1.75
   3   3  -3   43.12    2.01
  -3  -3   3   41.85    1.34
  -3  -3   3   47.85    1.83
  -3  -3   3   41.40    2.64
  -3  -3   3   41.25    2.19
  -3  -3   3   41.40    2.64
  -3  -3   3   47.85    1.83
  -3  -3   3   44.83    1.85
  -3  -3   3   41.85    1.34
  -3  -3   3   41.91    2.02
  -3  -3   3   41.91    2.02
   2   3  -3   30.86    1.35
   2   3  -3   26.68    1.84
   2   3  -3   30.82    1.44
   2   3  -3   26.48    1.42
   2   3  -3   26.68    1.84
   2   3  -3   30.86    1.35
  -2  -3   3   29.90    1.43
  -2  -3   3   30.59    1.38
  -2  -3   3   29.44    1.31
  -2  -3   3   25.18    1.86
  -2  -3   3   25.18    1.86
  -2  -3   3   29.44    1.31
  -2  -3   3   29.90    1.43
   1   3  -3   95.57    2.59
   1   3  -3   92.48    2.81
   1   3  -3   96.88    2.65
   1   3  -3   95.57    2.59
   1   3  -3   92.87    2.55
   1   3  -3   89.99    2.60
   1   3  -3   92.48    2.81
   1   3  -3   92.87    2.55
  -1  -3   3   94.18    2.56
  -1  -3   3   94.18    2.56
  -1  -3   3   93.79    2.65
  -1  -3   3   93.14    2.56
  -1  -3   3   93.14    2.56
  -1  -3   3   94.22    2.60
  -1  -3   3  100.17    2.91
  -1  -3   3  100.17    2.91
   0   3  -3  133.84    3.36
   0   3  -3  133.50    3.47
   0   3  -3  133.50    3.47
   0   3  -3  132.47    3.43
   0   3  -3  129.98    3.52
   0   3  -3  133.84    3.36
   0  -3   3  130.13    3.31
   0  -3   3  129.67    3.51
   0  -3   3  131.67    3.45
   0  -3   3  130.13    3.31
   0  -3   3  125.94    3.33
   0  -3   3  125.94    3.33
   0  -3   3  131.31    3.39
   0  -3   3  131.67    3.45
  -1   3  -3  202.26    5.19
  -1   3  -3  202.26    5.19
  -1   3  -3  201.63    4.95
  -1   3  -3  209.10    5.29
  -1   3  -3  201.63    4.95
  -1   3  -3  199.86    5.06
   1  -3   3  208.05    5.19
   1  -3   3  196.35    5.02
   1  -3   3  208.05    5.19
   1  -3   3  201.26    5.01
   1  -3   3  201.26    5.01
   1  -3   3  207.52    5.28
  -2   3  -3   31.60    2.10
  -2   3  -3   30.10    2.22
  -2   3  -3   27.02    1.86
  -2   3  -3   27.02    1.86
  -2   3  -3   29.89    2.34
  -2   3  -3   30.10    2.22
   2  -3   3   29.68    1.88
   2  -3   3   30.79    1.65
   2  -3   3   31.01    2.10
   2  -3   3   29.68    1.88
   2  -3   3   31.61    1.77
   2  -3   3   30.79    1.65
   2  -3   3   31.61    1.77
   2  -3   3   31.61    2.02
  -3   3  -3   31.64    2.45
  -3   3  -3   33.46    2.85
  -3   3  -3   31.66    2.77
  -3   3  -3   31.66    2.77
  -3   3  -3   31.64    2.45
  -3   3  -3   32.57    2.43
  -3   3  -3   33.96    2.94
   3  -3   3   31.94    2.21
   3  -3   3   31.94    2.21
   3  -3   3   35.10    2.96
   3  -3   3   30.08    2.91
   3  -3   3   34.80    2.45
   3  -3   3   34.80    2.45
   3  -3   3   31.94    2.21
   3  -3   3   30.08    2.91
  -4   3  -3   65.53    4.05
  -4   3  -3   62.58    3.48
  -4   3  -3   65.44    4.21
  -4   3  -3   62.58    3.48
  -4   3  -3   59.57    3.39
  -4   3  -3   59.57    3.39
  -4   3  -3   60.61    3.58
   4  -3   3   56.04    3.43
   4  -3   3   56.04    3.43
   4  -3   3   52.62    3.31
   4  -3   3   52.62    3.31
   4  -3   3   59.40    3.45
  -5   3  -3   16.01    2.38
  -5   3  -3   17.68    3.52
  -5   3  -3   10.75    3.08
  -5   3  -3   10.70    2.95
  -5   3  -3   17.68    3.52
  -5   3  -3   16.01    2.38
   5  -3   3   15.03    3.38
   5  -3   3   13.52    2.93
   5  -3   3   16.09    2.92
   5  -3   3   16.27    3.22
   5  -3   3   16.09    2.92
   5  -3   3   14.26    2.27
   5  -3   3   15.03    3.38
   5  -3   3   14.26    2.27
   6   2  -3    4.09    2.15
   6   2  -3    8.32    2.66
   6   2  -3    4.09    2.15
   6   2  -3    8.76    2.31
   6   2  -3    9.87    2.54
   6   2  -3    8.29    2.54
   6   2  -3    9.87    2.54
  -6  -2   3    6.00    1.98
  -6  -2   3    4.96    2.77
  -6  -2   3    8.19    2.64
  -6  -2   3    6.00    1.98
  -6  -2   3    6.26    2.89
  -6  -2   3    6.26    2.89
  -6  -2   3    8.19    2.64
   5   2  -3   60.66    3.02
   5   2  -3   57.68    3.60
   5   2  -3   56.43    5.36
   5   2  -3   56.42    3.36
   5   2  -3   60.66    3.02
   5   2  -3   56.53    5.58
   5   2  -3   57.68    3.60
   5   2  -3   56.42    3.36
   5   2  -3   63.21    3.25
  -5  -2   3   59.09    3.02
  -5  -2   3   58.40    3.48
  -5  -2   3   59.09    3.02
  -5  -2   3   59.90    3.62
  -5  -2   3   60.61    4.02
  -5  -2   3   60.61    4.02
  -5  -2   3   58.40    3.48
   4   2  -3  216.45    6.06
   4   2  -3  222.90    6.65
   4   2  -3  217.21    5.95
   4   2  -3  221.48    4.87
   4   2  -3  223.91    5.83
   4   2  -3  218.79    5.99
   4   2  -3  218.79    5.99
   4   2  -3  227.58    5.69
   4   2  -3  222.90    6.65
   4   2  -3  216.67    4.86
   4   2  -3  227.58    5.69
   4   2  -3  216.67    4.86
  -4  -2   3  214.85    6.59
  -4  -2   3  224.52    6.07
  -4  -2   3  232.37    5.73
  -4  -2   3  232.37    5.73
  -4  -2   3  224.52    6.07
  -4  -2   3  226.28    6.15
  -4  -2   3  214.85    6.59
   3   2  -3    9.54    1.27
   3   2  -3    9.36    1.26
   3   2  -3    9.94    1.11
   3   2  -3    8.68    1.14
   3   2  -3    9.94    1.11
   3   2  -3    9.57    1.32
   3   2  -3    9.19    1.63
   3   2  -3    9.19    1.63
   3   2  -3    9.36    1.26
  -3  -2   3    9.82    1.12
  -3  -2   3   10.55    1.32
  -3  -2   3    7.47    1.59
  -3  -2   3    7.47    1.59
  -3  -2   3   10.55    1.32
  -3  -2   3    8.36    1.35
   2   2  -3  175.93    4.80
   2   2  -3  181.54    4.21
   2   2  -3  177.80    4.33
   2   2  -3  175.93    4.80
   2   2  -3  177.80    4.33
   2   2  -3  176.94    4.25
   2   2  -3  181.54    4.21
  -2  -2   3  177.22    4.40
  -2  -2   3  180.75    4.87
  -2  -2   3  173.48    4.18
  -2  -2   3  178.96    4.29
  -2  -2   3  173.48    4.18
  -2  -2   3  174.06    3.65
  -2  -2   3  180.75    4.87
  -2  -2   3  178.96    4.29
  -2  -2   3  174.07    3.65
  -2  -2   3  176.28    4.24
   1   2  -3    1.78    0.56
   1   2  -3    2.21    0.56
   1   2  -3    2.21    0.56
   1   2  -3    2.82    0.82
   1   2  -3    1.78    0.56
   1   2  -3    2.48    0.59
   1   2  -3    1.66    0.54
   1   2  -3    2.82    0.82
  -1  -2   3    1.80    0.44
  -1  -2   3    1.44    0.54
  -1  -2   3    1.80    0.44
  -1  -2   3    1.15    0.73
  -1  -2   3    1.44    0.54
  -1  -2   3    2.25    0.56
  -1  -2   3    2.22    0.57
  -1  -2   3    1.15    0.73
   0   2  -3  381.95    8.11
   0   2  -3  376.20    8.03
   0   2  -3  381.62    8.12
   0   2  -3  386.22    8.16
   0   2  -3  376.20    8.03
   0   2  -3  381.62    8.12
   0  -2   3  384.82    8.07
   0  -2   3  381.44    8.12
   0  -2   3  388.23    8.18
   0  -2   3  381.44    8.12
   0  -2   3  384.82    8.07
   0  -2   3  364.20    8.07
  -1   2  -3  114.81    3.18
  -1   2  -3  110.92    3.21
  -1   2  -3  110.92    3.21
  -1   2  -3  111.67    3.09
  -1   2  -3  111.67    3.09
  -1   2  -3  115.73    3.32
   1  -2   3  109.62    3.13
   1  -2   3  113.71    3.06
   1  -2   3  118.86    3.27
   1  -2   3  113.71    3.06
   1  -2   3  113.87    3.16
   1  -2   3  113.87    3.16
  -2   2  -3   11.46    1.31
  -2   2  -3    7.73    1.17
  -2   2  -3   10.08    1.24
  -2   2  -3    9.98    1.39
  -2   2  -3    7.73    1.17
  -2   2  -3   10.08    1.24
   2  -2   3   10.13    1.19
   2  -2   3    9.76    1.24
   2  -2   3   10.24    1.34
   2  -2   3   10.48    1.48
   2  -2   3    9.76    1.24
   2  -2   3   10.24    1.34
   2  -2   3    9.68    1.05
   2  -2   3    9.68    1.05
  -3   2  -3   27.31    2.05
  -3   2  -3   32.66    2.56
  -3   2  -3   29.18    2.41
  -3   2  -3   27.31    2.05
  -3   2  -3   33.08    2.49
  -3   2  -3   29.45    2.01
  -3   2  -3   29.18    2.41
   3  -2   3   26.52    2.08
   3  -2   3   32.44    2.57
   3  -2   3   31.19    2.20
   3  -2   3   26.70    2.00
   3  -2   3   26.70    2.00
   3  -2   3   26.52    2.08
   3  -2   3   29.40    1.99
   3  -2   3   31.19    2.20
  -4   2  -3  126.55    4.59
  -4   2  -3  132.57    5.00
  -4   2  -3  127.84    4.62
  -4   2  -3  132.52    4.81
  -4   2  -3  127.84    4.62
  -4   2  -3  126.72    4.74
  -4   2  -3  132.57    5.00
   4  -2   3  133.40    4.69
   4  -2   3  124.25    4.72
   4  -2   3  129.40    4.57
   4  -2   3  121.58    4.60
   4  -2   3  135.18    4.99
   4  -2   3  133.40    4.69
   4  -2   3  129.40    4.57
   4  -2   3  135.18    4.99
  -5   2  -3   59.83    3.77
  -5   2  -3   59.83    3.77
  -5   2  -3   58.29    3.96
  -5   2  -3   60.62    4.49
  -5   2  -3   60.80    4.34
  -5   2  -3   66.05    3.84
  -5   2  -3   66.05    3.84
   5  -2   3   64.02    3.85
   5  -2   3   62.18    4.57
   5  -2   3   64.02    3.85
   5  -2   3   67.60    3.41
   5  -2   3   67.60    3.41
   5  -2   3   59.55    4.09
   5  -2   3   59.55    4.09
   5  -2   3   59.04    3.97
  -6   2  -3    7.60    2.82
  -6   2  -3    7.60    2.82
  -6   2  -3    6.05    2.23
  -6   2  -3    4.07    2.97
  -6   2  -3    6.05    2.23
  -6   2  -3    0.29    3.09
  -6   2  -3    0.30    3.25
   6  -2   3    5.74    3.57
   6  -2   3    5.74    3.57
   6  -2   3   -1.05    2.64
   6  -2   3    1.77    2.84
   6  -2   3   -0.61    3.35
   6  -2   3   -1.05    2.64
   6   1  -3   38.25    3.30
   6   1  -3   32.62    3.35
   6   1  -3   32.77    3.50
   6   1  -3   38.25    3.30
   6   1  -3   30.31    3.36
   6   1  -3   36.49    3.26
   6   1  -3   39.37    5.04
   6   1  -3   30.31    3.36
   6   1  -3   39.37    5.04
  -6  -1   3   38.35    3.84
  -6  -1   3   38.35    3.84
  -6  -1   3   29.64    3.40
  -6  -1   3   36.39    3.67
  -6  -1   3   33.19    3.19
  -6  -1   3   32.80    3.03
  -6  -1   3   29.64    3.40
   5   1  -3   60.53    3.50
   5   1  -3   66.17    3.31
   5   1  -3   61.63    3.58
   5   1  -3   66.17    3.31
   5   1  -3   60.53    3.50
   5   1  -3   63.60    4.18
   5   1  -3   61.87    3.73
   5   1  -3   59.83    3.39
   5   1  -3   63.60    4.18
  -5  -1   3   65.85    3.26
  -5  -1   3   54.17    3.44
  -5  -1   3   54.20    3.95
  -5  -1   3   57.17    3.80
  -5  -1   3   65.85    3.26
  -5  -1   3   61.00    3.26
  -5  -1   3   54.20    3.95
  -5  -1   3   60.72    3.14
  -5  -1   3   54.17    3.44
   4   1  -3   15.42    1.92
   4   1  -3   16.00    2.25
   4   1  -3   15.95    1.74
   4   1  -3   18.45    1.90
   4   1  -3   12.81    1.87
   4   1  -3   15.42    1.92
   4   1  -3   16.00    2.25
   4   1  -3   15.95    1.74
   4   1  -3   12.80    1.80
  -4  -1   3   15.83    1.98
  -4  -1   3   17.32    1.77
  -4  -1   3   15.76    1.65
  -4  -1   3   15.76    1.65
  -4  -1   3   15.69    2.21
  -4  -1   3   18.45    1.58
  -4  -1   3   17.32    1.77
  -4  -1   3   18.78    1.67
  -4  -1   3   15.69    2.21
   3   1  -3   17.62    1.55
   3   1  -3   16.92    1.41
   3   1  -3   18.57    1.69
   3   1  -3   18.49    1.61
   3   1  -3   16.92    1.41
   3   1  -3   16.53    1.55
   3   1  -3   16.53    1.55
   3   1  -3   18.50    1.77
   3   1  -3   18.50    1.77
  -3  -1   3   18.23    1.72
  -3  -1   3   16.70    1.42
  -3  -1   3   20.19    1.71
  -3  -1   3   20.19    1.71
  -3  -1   3   16.24    1.86
  -3  -1   3   16.24    1.86
  -3  -1   3   16.70    1.42
   2   1  -3  266.30    5.94
   2   1  -3  262.33    6.10
   2   1  -3  265.17    6.47
   2   1  -3  265.17    6.03
   2   1  -3  264.24    5.86
   2   1  -3  261.67    6.02
   2   1  -3  265.17    6.47
   2   1  -3  264.24    5.86
   2   1  -3  265.17    6.03
  -2  -1   3  257.67    6.48
  -2  -1   3  256.20    6.00
  -2  -1   3  260.67    5.92
  -2  -1   3  260.65    5.87
  -2  -1   3  257.67    6.48
  -2  -1   3  254.44    6.06
  -2  -1   3  260.65    5.87
  -2  -1   3  256.20    6.00
   1   1  -3  426.89    8.96
   1   1  -3  405.99    8.54
   1   1  -3  413.91    8.61
   1   1  -3  405.99    8.54
   1   1  -3  405.25    8.50
   1   1  -3  426.89    8.96
   1   1  -3  405.25    8.50
   1   1  -3  403.45    8.54
  -1  -1   3  408.86    8.55
  -1  -1   3  386.16    8.04
  -1  -1   3  386.15    8.04
  -1  -1   3  412.63    8.56
  -1  -1   3  404.47    8.49
  -1  -1   3  415.69    8.98
  -1  -1   3  415.69    8.98
  -1  -1   3  417.44    8.62
  -1  -1   3  404.47    8.49
  -1  -1   3  412.63    8.56
   0   1  -3   80.30    1.96
   0   1  -3   80.30    1.96
   0   1  -3   76.36    2.10
   0   1  -3   84.01    2.20
   0   1  -3   84.01    2.20
   0   1  -3   79.94    2.20
   0   1  -3   82.51    2.22
   0   1  -3   76.36    2.10
   0  -1   3   81.00    2.23
   0  -1   3   78.55    2.12
   0  -1   3   84.53    2.20
   0  -1   3   84.53    2.20
   0  -1   3   78.55    2.12
   0  -1   3   80.68    2.20
  -1   1  -3  186.50    4.48
  -1   1  -3  189.74    4.46
  -1   1  -3  186.50    4.48
  -1   1  -3  190.85    4.39
  -1   1  -3  191.11    4.54
  -1   1  -3  190.85    4.39
   1  -1   3  187.10    4.48
   1  -1   3  187.10    4.48
   1  -1   3  183.17    4.36
   1  -1   3  183.17    4.36
   1  -1   3  191.77    4.52
   1  -1   3  186.05    4.44
  -2   1  -3   11.57    1.18
  -2   1  -3    9.59    1.19
  -2   1  -3   11.57    1.18
  -2   1  -3    9.59    1.19
  -2   1  -3   11.79    1.21
  -2   1  -3   11.05    1.19
   2  -1   3   10.99    1.23
   2  -1   3   10.99    1.23
   2  -1   3   11.10    1.16
   2  -1   3   11.10    1.16
   2  -1   3   12.47    1.15
   2  -1   3    9.52    1.26
   2  -1   3    9.86    1.14
   2  -1   3   12.47    1.15
  -3   1  -3   72.98    3.11
  -3   1  -3   74.07    3.05
  -3   1  -3   72.82    2.99
  -3   1  -3   76.13    3.06
  -3   1  -3   76.13    3.06
  -3   1  -3   71.08    2.67
  -3   1  -3   71.08    2.67
   3  -1   3   70.18    2.98
   3  -1   3   71.70    2.83
   3  -1   3   73.41    2.93
   3  -1   3   68.70    2.92
   3  -1   3   68.98    2.64
   3  -1   3   68.98    2.64
   3  -1   3   70.18    2.98
   3  -1   3   71.70    2.83
  -4   1  -3   64.50    3.01
  -4   1  -3   66.99    3.15
  -4   1  -3   68.94    3.51
  -4   1  -3   66.99    3.15
  -4   1  -3   60.90    3.10
  -4   1  -3   68.55    3.38
  -4   1  -3   60.90    3.10
   4  -1   3   64.97    3.18
   4  -1   3   67.91    3.46
   4  -1   3   61.89    3.20
   4  -1   3   63.31    3.56
   4  -1   3   61.89    3.20
   4  -1   3   64.14    3.12
   4  -1   3   67.91    3.46
   4  -1   3   64.14    3.12
  -5   1  -3   38.48    3.32
  -5   1  -3   37.94    3.41
  -5   1  -3   38.48    3.32
  -5   1  -3   36.21    2.67
  -5   1  -3   37.77    3.27
  -5   1  -3   36.61    3.21
  -5   1  -3   36.21    2.67
   5  -1   3   38.60    3.51
   5  -1   3   38.60    3.51
   5  -1   3   33.13    3.08
   5  -1   3   34.74    2.58
   5  -1   3   34.74    2.58
   5  -1   3   40.01    3.43
   5  -1   3   34.73    2.93
   5  -1   3   34.73    2.93
  -6   1  -3   25.56    2.80
  -6   1  -3   26.39    3.24
  -6   1  -3   21.10    3.33
  -6   1  -3   25.56    2.80
  -6   1  -3   21.31    3.50
  -6   1  -3   26.39    3.24
  -6   1  -3   17.78    2.92
   6  -1   3   17.71    2.97
   6  -1   3   24.42    3.25
   6  -1   3   18.50    3.53
   6  -1   3   18.50    3.53
   6  -1   3   17.71    2.97
   6  -1   3   17.76    3.49
   6   0  -3   19.48    3.18
   6   0  -3   20.30    3.46
   6   0  -3   23.82    3.20
   6   0  -3   19.73    4.10
   6   0  -3   19.48    3.18
   6   0  -3   19.73    4.10
   6   0  -3   23.82    3.20
   6   0  -3   29.09    3.38
   6   0  -3   20.16    3.32
  -6   0   3   23.92    3.00
  -6   0   3   30.91    3.86
  -6   0   3   29.55    3.79
  -6   0   3   16.06    3.11
  -6   0   3   16.06    3.11
  -6   0   3   23.49    2.64
  -6   0   3   23.49    2.64
  -6   0   3   23.77    2.86
  -6   0   3   29.55    3.79
   5   0  -3  100.74    6.47
   5   0  -3  125.37    5.16
   5   0  -3  125.91    4.80
   5   0  -3  100.74    6.47
   5   0  -3  120.74    5.33
   5   0  -3  124.20    4.91
   5   0  -3  125.71    5.01
   5   0  -3  124.20    4.91
   5   0  -3  120.74    5.33
  -5   0   3  128.03    5.38
  -5   0   3  125.22    4.97
  -5   0   3  133.99    4.73
  -5   0   3  133.97    4.88
  -5   0   3  128.03    5.38
  -5   0   3  126.02    4.64
  -5   0   3  126.02    4.64
  -5   0   3  133.35    5.19
  -5   0   3  125.22    4.97
   4   0  -3   -1.89    1.56
   4   0  -3    0.72    1.41
   4   0  -3    0.27    1.38
   4   0  -3   -0.20    1.35
   4   0  -3   -0.20    1.35
   4   0  -3    0.40    1.43
   4   0  -3   -1.89    1.56
   4   0  -3    0.72    1.41
   4   0  -3    0.40    1.49
  -4   0   3    0.24    1.17
  -4   0   3   -0.05    1.23
  -4   0   3   -0.05    1.23
  -4   0   3    0.24    1.23
  -4   0   3    2.85    1.66
  -4   0   3    1.65    1.72
  -4   0   3    2.85    1.66
  -4   0   3   -0.08    1.54
  -4   0   3    1.65    1.72
   3   0  -3   17.36    1.35
   3   0  -3   18.44    1.62
   3   0  -3   18.75    1.61
   3   0  -3   16.23    1.50
   3   0  -3   17.36    1.35
   3   0  -3   15.93    1.87
   3   0  -3   15.93    1.87
   3   0  -3   18.82    1.56
   3   0  -3   16.23    1.50
  -3   0   3   16.62    1.76
  -3   0   3   19.05    1.72
  -3   0   3   18.18    1.82
  -3   0   3   17.30    1.73
  -3   0   3   18.98    1.65
  -3   0   3   17.30    1.73
  -3   0   3   16.62    1.76
  -3   0   3   19.90    1.57
  -3   0   3   19.90    1.57
   2   0  -3  390.76    8.63
   2   0  -3  383.76    8.93
   2   0  -3  388.07    8.66
   2   0  -3  387.05    8.49
   2   0  -3  405.27    8.60
   2   0  -3  386.08    8.73
   2   0  -3  383.76    8.93
   2   0  -3  390.76    8.63
   2   0  -3  387.05    8.49
  -2   0   3  399.29    9.06
  -2   0   3  396.63    8.75
  -2   0   3  406.72    8.56
  -2   0   3  390.49    8.63
  -2   0   3  390.49    8.63
  -2   0   3  399.29    9.06
  -2   0   3  406.72    8.56
   1   0  -3  386.07    8.20
   1   0  -3  388.14    8.25
   1   0  -3  395.46    8.62
   1   0  -3  395.46    8.62
   1   0  -3  382.23    8.30
   1   0  -3  386.07    8.20
  -1   0   3  393.47    8.27
  -1   0   3  396.16    8.67
  -1   0   3  398.95    8.34
  -1   0   3  396.16    8.67
  -1   0   3  401.33    8.30
  -1   0   3  391.57    8.21
  -1   0   3  391.57    8.21
  -1   0   3  401.33    8.30
   0   0  -3   16.05    0.73
   0   0  -3   12.96    0.68
   0   0  -3   14.31    0.78
   0   0  -3   14.56    0.81
   0   0  -3   16.05    0.73
   0   0  -3   14.31    0.78
   0   0  -3   12.96    0.68
   0   0  -3   14.86    0.75
   0   0   3   14.44    0.68
   0   0   3   13.56    0.81
   0   0   3   15.30    0.78
   0   0   3   16.09    0.81
   0   0   3   16.09    0.81
   0   0   3   14.44    0.68
   0   0   3   15.30    0.78
   0   0   3   15.28    0.82
  -1   0  -3    1.77    0.50
  -1   0  -3    1.77    0.50
  -1   0  -3    2.60    0.59
  -1   0  -3    1.56    0.53
  -1   0  -3    2.60    0.59
  -1   0  -3    0.56    0.45
  -1   0  -3    1.98    0.43
  -1   0  -3    1.98    0.43
   1   0   3    2.17    0.56
   1   0   3    2.34    0.55
   1   0   3    1.48    0.50
   1   0   3    2.34    0.55
   1   0   3    1.81    0.54
   1   0   3    1.33    0.48
   1   0   3    1.33    0.48
   1   0   3    1.81    0.54
  -2   0  -3  489.76   10.46
  -2   0  -3  478.33   10.42
  -2   0  -3  493.22   10.30
  -2   0  -3  493.22   10.30
  -2   0  -3  478.30   10.42
  -2   0  -3  477.90   10.36
  -2   0  -3  478.75   10.33
  -2   0  -3  477.90   10.36
   2   0   3  486.90   10.34
   2   0   3  487.66   10.38
   2   0   3  481.51   10.25
   2   0   3  481.51   10.25
   2   0   3  488.82   10.40
   2   0   3  477.01   10.46
   2   0   3  488.82   10.40
   2   0   3  487.66   10.38
  -3   0  -3  108.60    3.60
  -3   0  -3  118.67    3.56
  -3   0  -3  112.76    3.74
  -3   0  -3  113.97    3.53
  -3   0  -3  112.80    3.74
  -3   0  -3  118.67    3.56
  -3   0  -3  107.10    3.65
  -3   0  -3  113.97    3.53
  -3   0  -3  110.84    3.58
   3   0   3  115.61    3.65
   3   0   3  116.51    3.68
   3   0   3  115.17    3.61
   3   0   3  117.66    3.52
   3   0   3  116.51    3.68
   3   0   3  117.82    3.78
   3   0   3  117.66    3.52
   3   0   3  115.61    3.65
  -4   0  -3  148.69    4.67
  -4   0  -3  164.22    4.79
  -4   0  -3  143.12    4.67
  -4   0  -3  156.98    4.98
  -4   0  -3  148.69    4.67
  -4   0  -3  143.11    4.67
  -4   0  -3  164.22    4.79
  -4   0  -3  157.46    4.86
  -4   0  -3  156.29    4.84
   4   0   3  157.60    5.01
   4   0   3  159.59    4.93
   4   0   3  151.24    4.51
   4   0   3  153.39    5.06
   4   0   3  151.24    4.51
   4   0   3  157.60    5.01
   4   0   3  143.10    4.55
   4   0   3  159.59    4.93
  -5   0  -3   16.81    2.36
  -5   0  -3   11.07    2.31
  -5   0  -3   15.64    2.18
  -5   0  -3   15.58    2.08
  -5   0  -3    9.04    1.64
  -5   0  -3   15.85    2.01
  -5   0  -3   11.07    2.31
  -5   0  -3   15.85    2.01
  -5   0  -3    9.04    1.64
   5   0   3   11.95    1.96
   5   0   3   10.76    2.48
   5   0   3   16.32    2.34
   5   0   3   10.76    2.48
   5   0   3   11.95    1.96
   5   0   3   13.99    2.19
   5   0   3    8.75    2.30
   5   0   3   16.32    2.34
  -6   0  -3   12.63    2.95
  -6   0  -3   10.59    2.59
  -6   0  -3   10.59    2.59
  -6   0  -3   10.81    2.88
  -6   0  -3   14.53    2.97
  -6   0  -3   12.68    3.08
  -6   0  -3   14.55    2.98
   6   0   3   13.64    2.62
   6   0   3   10.93    2.64
   6   0   3   12.87    2.91
   6   0   3   19.85    3.35
   6   0   3   13.64    2.62
   6   0   3   12.87    2.91
   6  -1  -3   45.03    4.64
   6  -1  -3   43.24    3.52
   6  -1  -3   37.34    3.98
   6  -1  -3   43.24    3.52
   6  -1  -3   48.21    4.08
   6  -1  -3   45.03    4.64
   6  -1  -3   37.34    3.98
   6  -1  -3   48.77    4.28
  -6   1   3   44.04    4.20
  -6   1   3   43.51    3.84
  -6   1   3   37.88    3.57
  -6   1   3   44.04    4.20
  -6   1   3   42.65    3.50
  -6   1   3   44.00    4.03
  -6   1   3   37.88    3.57
  -6   1   3   42.65    3.50
  -6   1   3   49.45    4.45
   5  -1  -3   57.83    3.69
   5  -1  -3   66.04    3.93
   5  -1  -3   63.61    4.07
   5  -1  -3   56.35    3.82
   5  -1  -3   56.92    4.25
   5  -1  -3   57.83    3.69
   5  -1  -3   63.25    4.21
   5  -1  -3   56.92    4.25
   5  -1  -3   56.35    3.82
  -5   1   3   62.97    4.24
  -5   1   3   56.76    3.47
  -5   1   3   57.83    4.09
  -5   1   3   53.68    3.15
  -5   1   3   55.65    3.66
  -5   1   3   53.81    3.27
  -5   1   3   62.97    4.24
  -5   1   3   55.65    3.66
  -5   1   3   56.76    3.47
   4  -1  -3   19.78    2.08
   4  -1  -3   19.78    2.08
   4  -1  -3   21.28    2.19
   4  -1  -3   16.91    2.13
   4  -1  -3   18.46    2.42
   4  -1  -3   19.64    2.30
   4  -1  -3   21.28    2.19
   4  -1  -3   19.86    2.42
   4  -1  -3   18.46    2.42
  -4   1   3   18.81    2.39
  -4   1   3   19.15    1.94
  -4   1   3   19.55    2.03
  -4   1   3   19.55    2.03
  -4   1   3   22.81    2.29
  -4   1   3   18.98    1.85
  -4   1   3   22.87    2.49
  -4   1   3   22.87    2.49
  -4   1   3   22.81    2.29
   3  -1  -3   37.89    1.93
   3  -1  -3   39.15    2.52
   3  -1  -3   33.42    1.99
   3  -1  -3   39.22    2.43
   3  -1  -3   40.76    2.50
   3  -1  -3   37.89    1.93
   3  -1  -3   40.76    2.50
   3  -1  -3   33.42    1.99
   3  -1  -3   39.59    2.29
  -3   1   3   35.20    2.02
  -3   1   3   37.31    2.23
  -3   1   3   37.41    2.17
  -3   1   3   39.42    1.94
  -3   1   3   35.36    2.49
  -3   1   3   37.57    2.26
  -3   1   3   37.31    2.23
  -3   1   3   35.20    2.02
  -3   1   3   39.42    1.94
   2  -1  -3  604.01   12.52
   2  -1  -3  608.72   12.64
   2  -1  -3  598.69   12.85
   2  -1  -3  557.06   11.83
   2  -1  -3  604.01   12.52
   2  -1  -3  601.42   12.65
   2  -1  -3  596.95   12.58
   2  -1  -3  558.77   11.83
   2  -1  -3  557.06   11.83
   2  -1  -3  610.23   12.74
   2  -1  -3  598.69   12.85
   2  -1  -3  601.42   12.65
  -2   1   3  591.34   12.64
  -2   1   3  591.34   12.64
  -2   1   3  591.12   12.70
  -2   1   3  591.10   12.50
  -2   1   3  591.10   12.50
  -2   1   3  608.25   12.94
  -2   1   3  592.14   12.58
  -2   1   3  591.36   12.49
  -2   1   3  608.25   12.94
   1  -1  -3  119.86    3.05
   1  -1  -3  123.25    3.32
   1  -1  -3  119.16    3.00
   1  -1  -3  119.86    3.05
   1  -1  -3  121.28    3.10
   1  -1  -3  119.66    3.05
   1  -1  -3  123.25    3.32
   1  -1  -3  119.16    3.00
   1  -1  -3  121.09    3.16
  -1   1   3  124.28    3.12
  -1   1   3  117.76    3.00
  -1   1   3  113.89    3.33
  -1   1   3  124.28    3.12
  -1   1   3  113.89    3.33
  -1   1   3  117.39    3.13
   0  -1  -3   36.42    1.19
   0  -1  -3   35.56    1.15
   0  -1  -3   35.56    1.15
   0  -1  -3   36.41    1.18
   0  -1  -3   37.40    1.18
   0  -1  -3   36.42    1.19
   0   1   3   37.08    1.16
   0   1   3   37.08    1.16
   0   1   3   35.46    1.14
   0   1   3   35.96    1.19
   0   1   3   36.69    1.19
   0   1   3   36.75    1.22
   0   1   3   36.68    1.19
   0   1   3   35.96    1.19
  -1  -1  -3   92.27    2.27
  -1  -1  -3   92.27    2.27
  -1  -1  -3   91.69    2.41
  -1  -1  -3   91.22    2.26
  -1  -1  -3   85.96    2.22
  -1  -1  -3   91.47    2.31
  -1  -1  -3   91.69    2.41
  -1  -1  -3   85.96    2.22
   1   1   3   92.19    2.24
   1   1   3   91.37    2.31
   1   1   3   89.75    2.43
   1   1   3   90.30    2.27
   1   1   3   88.59    2.25
   1   1   3   92.19    2.24
   1   1   3   89.75    2.43
   1   1   3   90.30    2.27
  -2  -1  -3  179.91    4.29
  -2  -1  -3  171.34    4.18
  -2  -1  -3  179.54    4.44
  -2  -1  -3  179.91    4.29
  -2  -1  -3  177.78    4.23
  -2  -1  -3  171.34    4.18
  -2  -1  -3  179.77    4.35
  -2  -1  -3  179.53    4.44
   2   1   3  184.93    4.32
   2   1   3  177.49    4.18
   2   1   3  182.28    4.37
   2   1   3  177.49    4.18
   2   1   3  176.49    4.49
   2   1   3  184.93    4.32
   2   1   3  176.49    4.49
   2   1   3  173.98    4.22
  -3  -1  -3  156.98    4.23
  -3  -1  -3  149.96    4.13
  -3  -1  -3  153.53    4.09
  -3  -1  -3  149.59    4.33
  -3  -1  -3  154.87    4.20
  -3  -1  -3  155.16    4.29
  -3  -1  -3  149.58    4.33
  -3  -1  -3  154.87    4.20
  -3  -1  -3  153.53    4.09
   3   1   3  147.60    3.97
   3   1   3  156.50    4.32
   3   1   3  147.60    3.97
   3   1   3  156.46    4.23
   3   1   3  152.48    4.15
   3   1   3  151.19    4.31
   3   1   3  156.46    4.23
   3   1   3  151.19    4.31
  -4  -1  -3   93.50    3.47
  -4  -1  -3   94.04    3.34
  -4  -1  -3   93.84    3.60
  -4  -1  -3   92.50    3.47
  -4  -1  -3   94.04    3.34
  -4  -1  -3   93.71    3.60
  -4  -1  -3   84.32    3.38
  -4  -1  -3   92.50    3.47
  -4  -1  -3   93.45    3.58
   4   1   3   85.68    3.32
   4   1   3   92.93    3.49
   4   1   3   92.82    3.56
   4   1   3   89.62    3.23
   4   1   3   92.82    3.56
   4   1   3   89.62    3.23
   4   1   3  102.51    3.69
   4   1   3   92.93    3.49
  -5  -1  -3   20.98    2.37
  -5  -1  -3   20.98    2.37
  -5  -1  -3   22.51    2.38
  -5  -1  -3   24.71    2.33
  -5  -1  -3   26.56    2.59
  -5  -1  -3   26.43    2.48
  -5  -1  -3   24.71    2.33
   5   1   3   25.20    2.58
   5   1   3   23.14    2.32
   5   1   3   27.11    2.54
   5   1   3   22.29    2.70
   5   1   3   22.29    2.70
   5   1   3   27.11    2.54
   5   1   3   23.14    2.32
   5   1   3   28.83    2.51
  -6  -1  -3   19.82    2.72
  -6  -1  -3   20.70    2.90
  -6  -1  -3   19.86    2.83
  -6  -1  -3   20.81    2.64
  -6  -1  -3   19.87    2.94
  -6  -1  -3   20.70    2.90
  -6  -1  -3   20.81    2.64
   6   1   3   18.40    2.56
   6   1   3   18.40    2.56
   6   1   3   21.29    2.63
   6   1   3   14.90    2.87
   6  -2  -3   -2.28    2.17
   6  -2  -3   -2.28    2.17
   6  -2  -3    2.40    3.08
   6  -2  -3    2.53    2.95
   6  -2  -3    0.24    3.09
   6  -2  -3    1.05    3.10
   6  -2  -3   -1.29    3.46
   6  -2  -3   -1.29    3.46
   6  -2  -3    0.24    3.09
  -6   2   3    2.12    3.17
  -6   2   3    1.59    3.09
  -6   2   3    1.58    2.96
  -6   2   3    2.12    3.17
  -6   2   3    1.88    2.31
  -6   2   3    2.43    3.04
  -6   2   3    2.43    3.04
  -6   2   3    1.88    2.31
   5  -2  -3   26.37    3.35
   5  -2  -3   23.86    3.56
   5  -2  -3   29.40    3.45
   5  -2  -3   25.99    3.19
   5  -2  -3   28.80    3.08
   5  -2  -3   29.40    3.45
   5  -2  -3   27.60    2.78
   5  -2  -3   28.80    3.08
   5  -2  -3   27.60    2.78
  -5   2   3   26.59    2.99
  -5   2   3   28.61    2.84
  -5   2   3   26.65    3.11
  -5   2   3   29.85    3.29
  -5   2   3   29.85    3.29
  -5   2   3   30.26    3.06
  -5   2   3   28.61    2.84
  -5   2   3   30.20    3.40
  -5   2   3   30.26    3.06
   4  -2  -3   69.80    3.63
   4  -2  -3   72.75    3.85
   4  -2  -3   67.82    3.66
   4  -2  -3   67.53    3.46
   4  -2  -3   67.53    3.46
   4  -2  -3   66.24    3.65
   4  -2  -3   66.24    3.65
   4  -2  -3   72.88    3.72
   4  -2  -3   67.82    3.66
  -4   2   3   67.38    3.62
  -4   2   3   73.23    3.64
  -4   2   3   73.59    3.53
  -4   2   3   64.74    3.77
  -4   2   3   66.30    3.64
  -4   2   3   66.30    3.64
  -4   2   3   67.38    3.62
   3  -2  -3   77.44    3.20
   3  -2  -3   78.05    2.90
   3  -2  -3   68.29    3.19
   3  -2  -3   68.57    3.30
   3  -2  -3   78.05    2.90
   3  -2  -3   75.46    3.00
   3  -2  -3   74.40    3.25
   3  -2  -3   75.46    3.00
   3  -2  -3   74.40    3.25
  -3   2   3   76.92    3.31
  -3   2   3   76.92    3.31
  -3   2   3   67.16    2.92
  -3   2   3   80.80    3.46
  -3   2   3   77.88    3.13
  -3   2   3   77.49    3.22
  -3   2   3   67.16    2.92
  -3   2   3   76.14    2.86
  -3   2   3   76.14    2.86
   2  -2  -3   27.64    1.86
   2  -2  -3   27.64    1.86
   2  -2  -3   33.36    2.06
   2  -2  -3   30.75    1.74
   2  -2  -3   30.75    1.74
   2  -2  -3   30.41    1.82
   2  -2  -3   35.22    1.91
   2  -2  -3   35.22    1.91
   2  -2  -3   33.49    1.99
  -2   2   3   30.01    1.73
  -2   2   3   34.50    1.79
  -2   2   3   30.50    1.68
  -2   2   3   30.50    1.68
  -2   2   3   32.76    1.98
  -2   2   3   34.53    1.86
  -2   2   3   30.01    1.73
  -2   2   3   32.76    1.98
  -2   2   3   27.11    1.90
   1  -2  -3  392.57    8.45
   1  -2  -3  398.97    8.29
   1  -2  -3  392.92    8.45
   1  -2  -3  392.25    8.52
   1  -2  -3  393.46    8.35
   1  -2  -3  392.77    8.29
   1  -2  -3  393.46    8.35
   1  -2  -3  393.02    8.40
   1  -2  -3  392.57    8.45
   1  -2  -3  392.77    8.29
  -1   2   3  393.41    8.63
  -1   2   3  379.70    8.31
  -1   2   3  394.82    8.36
  -1   2   3  396.66    8.44
  -1   2   3  374.78    8.39
  -1   2   3  379.70    8.31
  -1   2   3  374.78    8.39
  -1   2   3  393.05    8.52
  -1   2   3  393.41    8.63
   0  -2  -3    3.53    0.50
   0  -2  -3    3.64    0.71
   0  -2  -3    4.48    0.48
   0  -2  -3    4.48    0.48
   0  -2  -3    3.53    0.50
   0  -2  -3    3.91    0.51
   0  -2  -3    3.40    0.72
   0  -2  -3    3.40    0.72
   0   2   3    3.60    0.47
   0   2   3    3.60    0.47
   0   2   3    3.92    0.51
   0   2   3    3.92    0.51
   0   2   3    3.94    0.50
   0   2   3    3.22    0.52
  -1  -2  -3  426.14    9.00
  -1  -2  -3  446.86    8.72
  -1  -2  -3  446.86    8.72
  -1  -2  -3  413.16    8.71
  -1  -2  -3  432.62    8.74
  -1  -2  -3  426.16    9.00
  -1  -2  -3  426.03    8.70
  -1  -2  -3  426.03    8.70
   1   2   3  443.60    9.07
   1   2   3  440.10    8.71
   1   2   3  388.34    8.88
   1   2   3  433.80    8.72
   1   2   3  443.60    9.07
   1   2   3  433.80    8.72
   1   2   3  427.36    8.73
   1   2   3  440.10    8.71
  -2  -2  -3   64.53    1.91
  -2  -2  -3   63.63    2.08
  -2  -2  -3   63.63    2.08
  -2  -2  -3   64.53    1.91
  -2  -2  -3   64.80    1.93
  -2  -2  -3   64.87    1.81
  -2  -2  -3   64.87    1.81
   2   2   3   63.12    1.95
   2   2   3   61.15    2.11
   2   2   3   62.35    1.83
   2   2   3   62.74    1.80
   2   2   3   62.74    1.80
   2   2   3   63.20    1.88
   2   2   3   61.16    2.11
   2   2   3   63.20    1.88
  -3  -2  -3    6.20    1.00
  -3  -2  -3    8.46    1.05
  -3  -2  -3    6.06    0.96
  -3  -2  -3    6.06    0.96
  -3  -2  -3    6.07    1.14
  -3  -2  -3    6.07    1.14
  -3  -2  -3    6.20    1.00
  -3  -2  -3    8.37    1.09
   3   2   3    6.61    1.07
   3   2   3    6.61    1.07
   3   2   3    6.90    1.28
   3   2   3    6.55    0.95
   3   2   3    6.90    1.28
   3   2   3    7.88    0.96
   3   2   3    6.85    1.05
   3   2   3    7.88    0.96
  -4  -2  -3   46.91    2.36
  -4  -2  -3   39.05    2.14
  -4  -2  -3   47.75    2.34
  -4  -2  -3   38.81    2.38
  -4  -2  -3   39.05    2.14
  -4  -2  -3   46.96    2.43
  -4  -2  -3   47.75    2.34
  -4  -2  -3   43.49    2.25
  -4  -2  -3   38.81    2.38
   4   2   3   45.21    2.84
   4   2   3   41.78    2.40
   4   2   3   44.88    2.23
   4   2   3   45.21    2.84
   4   2   3   40.09    2.04
   4   2   3   42.02    2.29
   4   2   3   40.09    2.04
   4   2   3   42.02    2.29
  -5  -2  -3  117.50    4.35
  -5  -2  -3  116.93    4.22
  -5  -2  -3  130.25    4.33
  -5  -2  -3  122.83    3.99
  -5  -2  -3  122.95    4.34
  -5  -2  -3  122.95    4.34
  -5  -2  -3  118.74    3.92
  -5  -2  -3  122.83    3.99
  -5  -2  -3  121.24    4.54
  -5  -2  -3  115.74    4.11
  -5  -2  -3  115.74    4.11
  -5  -2  -3  121.25    4.53
   5   2   3  118.71    4.26
   5   2   3  119.19    4.44
   5   2   3  122.91    4.35
   5   2   3  117.35    4.95
   5   2   3  122.91    4.35
   5   2   3  114.30    4.06
   5   2   3  117.35    4.95
   5   2   3  114.30    4.06
  -6  -2  -3   18.15    2.37
  -6  -2  -3   16.78    2.08
  -6  -2  -3   10.53    2.46
  -6  -2  -3   10.58    2.57
  -6  -2  -3   18.15    2.37
  -6  -2  -3   16.79    2.09
  -6  -2  -3   16.74    2.66
  -6  -2  -3   19.89    2.63
  -6  -2  -3   20.11    2.06
  -6  -2  -3   16.74    2.66
   6   2   3   22.44    2.56
   6   2   3   18.47    2.67
   6   2   3   16.88    2.37
   6   2   3   16.88    2.37
   6   2   3   18.47    2.67
   6   2   3   17.97    2.84
  -7  -2  -3   40.07    3.58
  -7  -2  -3   34.31    4.02
  -7  -2  -3   34.27    3.87
  -7  -2  -3   42.37    3.17
  -7  -2  -3   45.65    4.05
  -7  -2  -3   36.36    3.76
  -7  -2  -3   45.81    3.10
  -7  -2  -3   40.07    3.58
  -7  -2  -3   32.25    3.89
  -7  -2  -3   45.60    4.05
  -7  -2  -3   32.25    3.89
  -7  -2  -3   42.36    3.18
   7   2   3   36.88    3.89
   7   2   3   34.50    5.01
   7   2   3   36.21    3.48
   7   2   3   36.21    3.48
   7   2   3   34.50    5.01
   7   2   3   36.88    3.89
   7   2   3   40.20    3.82
   7   2   3   45.16    4.45
   5  -3  -3   51.66    4.56
   5  -3  -3   51.95    4.52
   5  -3  -3   52.74    3.61
   5  -3  -3   57.83    3.86
   5  -3  -3   63.92    4.43
   5  -3  -3   51.95    4.52
   5  -3  -3   52.74    3.61
   5  -3  -3   63.92    4.43
   5  -3  -3   51.86    4.42
  -5   3   3   56.73    4.29
  -5   3   3   56.92    4.15
  -5   3   3   52.50    4.07
  -5   3   3   67.96    4.52
  -5   3   3   52.50    4.07
  -5   3   3   65.85    4.44
  -5   3   3   65.85    4.44
  -5   3   3   67.96    4.52
   4  -3  -3   51.75    3.40
   4  -3  -3   49.78    3.37
   4  -3  -3   51.75    3.40
   4  -3  -3   45.43    3.45
   4  -3  -3   56.44    3.64
   4  -3  -3   56.13    3.78
   4  -3  -3   52.56    3.56
   4  -3  -3   52.56    3.56
   4  -3  -3   49.78    3.37
  -4   3   3   46.45    3.23
  -4   3   3   46.87    4.07
  -4   3   3   50.59    3.41
  -4   3   3   46.45    3.23
  -4   3   3   50.70    3.30
  -4   3   3   53.65    3.36
  -4   3   3   47.41    3.45
  -4   3   3   53.65    3.36
  -4   3   3   46.87    4.07
   3  -3  -3   23.17    2.28
   3  -3  -3   22.73    2.06
   3  -3  -3   23.30    2.38
   3  -3  -3   22.91    2.10
   3  -3  -3   23.42    2.05
   3  -3  -3   22.91    2.10
   3  -3  -3   23.42    2.05
   3  -3  -3   26.51    2.30
   3  -3  -3   22.73    2.06
  -3   3   3   22.45    1.52
  -3   3   3   22.97    2.17
  -3   3   3   22.97    2.17
  -3   3   3   21.44    2.02
  -3   3   3   20.69    1.50
  -3   3   3   21.62    2.11
  -3   3   3   21.52    2.04
  -3   3   3   22.45    1.52
  -3   3   3   23.84    2.20
  -3   3   3   23.84    2.20
  -3   3   3   21.52    2.04
  -3   3   3   22.76    2.39
   2  -3  -3   97.87    3.25
   2  -3  -3   96.05    3.20
   2  -3  -3   95.27    3.38
   2  -3  -3   95.27    3.38
   2  -3  -3   97.50    3.37
   2  -3  -3   97.87    3.25
   2  -3  -3   96.05    3.20
   2  -3  -3   97.96    3.48
   2  -3  -3   98.10    3.31
  -2   3   3   99.30    2.93
  -2   3   3   97.58    2.91
  -2   3   3   93.73    3.31
  -2   3   3   97.88    3.29
  -2   3   3   97.59    3.37
  -2   3   3  100.30    3.35
  -2   3   3  102.51    3.28
  -2   3   3  100.30    3.35
  -2   3   3  102.51    3.28
  -2   3   3  101.90    3.42
  -2   3   3   99.30    2.93
  -2   3   3  101.90    3.42
   1  -3  -3   33.66    1.55
   1  -3  -3   33.66    1.55
   1  -3  -3   35.48    1.61
   1  -3  -3   35.39    1.71
   1  -3  -3   35.39    1.71
   1  -3  -3   36.24    1.74
   1  -3  -3   36.17    1.80
  -1   3   3   33.46    1.63
  -1   3   3   32.47    1.67
  -1   3   3   34.75    1.71
  -1   3   3   38.25    1.76
  -1   3   3   36.53    1.72
  -1   3   3   33.93    1.56
  -1   3   3   33.49    1.75
  -1   3   3   38.25    1.76
  -1   3   3   32.47    1.67
  -1   3   3   33.93    1.56
  -1   3   3   34.75    1.71
  -1   3   3   33.38    1.57
   0  -3  -3   63.56    1.86
   0  -3  -3   63.56    1.86
   0  -3  -3   58.68    2.18
   0  -3  -3   61.13    1.71
   0  -3  -3   58.18    2.18
   0  -3  -3   58.19    2.18
   0  -3  -3   61.13    1.71
   0  -3  -3   64.96    1.77
   0   3   3   60.07    1.87
   0   3   3   59.85    2.10
   0   3   3   57.43    1.79
   0   3   3   59.85    2.10
   0   3   3   57.43    1.79
   0   3   3   61.01    2.09
  -1  -3  -3  600.26   12.28
  -1  -3  -3  600.25   12.28
  -1  -3  -3  564.20   11.35
  -1  -3  -3  564.20   11.35
  -1  -3  -3  559.97   11.39
  -1  -3  -3  553.22   11.35
  -1  -3  -3  591.12   12.24
   1   3   3  565.40   11.37
   1   3   3  558.86   11.39
   1   3   3  584.65   11.85
   1   3   3  584.70   11.85
   1   3   3  573.11   11.38
   1   3   3  581.75   12.21
   1   3   3  549.23   11.33
   1   3   3  578.07   12.17
   1   3   3  565.40   11.37
   1   3   3  581.72   12.22
   1   3   3  549.23   11.33
  -2  -3  -3  115.17    2.84
  -2  -3  -3  114.80    3.18
  -2  -3  -3  114.80    3.18
  -2  -3  -3  120.86    2.83
  -2  -3  -3  125.53    3.60
  -2  -3  -3  120.86    2.83
  -2  -3  -3  120.81    2.72
  -2  -3  -3  117.19    3.53
  -2  -3  -3  125.53    3.60
   2   3   3  118.31    2.86
   2   3   3  116.76    2.80
   2   3   3  122.49    3.33
   2   3   3  121.84    2.71
   2   3   3  121.84    2.71
   2   3   3  122.49    3.33
   2   3   3  119.45    2.76
   2   3   3  116.76    2.80
  -3  -3  -3   43.50    1.75
  -3  -3  -3   39.57    1.56
  -3  -3  -3   42.76    2.07
  -3  -3  -3   42.76    2.07
  -3  -3  -3   42.12    2.13
  -3  -3  -3   43.19    2.16
  -3  -3  -3   40.48    1.60
  -3  -3  -3   43.19    2.17
  -3  -3  -3   42.97    1.74
  -3  -3  -3   40.48    1.60
  -3  -3  -3   43.32    1.69
  -3  -3  -3   42.97    1.74
   3   3   3   41.10    1.50
   3   3   3   40.38    1.91
   3   3   3   41.10    1.50
   3   3   3   40.38    1.91
   3   3   3   41.88    2.26
   3   3   3   42.33    1.73
   3   3   3   44.90    1.82
   3   3   3   42.33    1.73
   3   3   3   41.88    2.26
   3   3   3   42.29    1.65
  -4  -3  -3    5.54    1.08
  -4  -3  -3    4.60    1.11
  -4  -3  -3    5.70    1.47
  -4  -3  -3    7.34    1.25
  -4  -3  -3    9.68    1.60
  -4  -3  -3    5.54    1.08
  -4  -3  -3    9.68    1.60
  -4  -3  -3    4.30    1.07
  -4  -3  -3    6.36    1.41
  -4  -3  -3    4.60    1.11
  -4  -3  -3    7.30    1.20
  -4  -3  -3    6.36    1.41
   4   3   3    7.67    1.73
   4   3   3    9.27    1.37
   4   3   3    5.53    1.17
   4   3   3    7.76    1.30
   4   3   3    7.67    1.73
   4   3   3    9.27    1.37
   4   3   3    5.53    1.17
   4   3   3    7.58    1.19
  -5  -3  -3   95.29    3.57
  -5  -3  -3   94.39    3.57
  -5  -3  -3   94.63    3.46
  -5  -3  -3   90.22    3.51
  -5  -3  -3   91.45    3.57
  -5  -3  -3   95.28    3.57
  -5  -3  -3   85.29    4.13
  -5  -3  -3   94.39    3.57
  -5  -3  -3   89.70    3.60
  -5  -3  -3   88.05    3.55
  -5  -3  -3   88.04    3.56
  -5  -3  -3   94.63    3.46
   5   3   3   97.17    3.44
   5   3   3   90.70    3.55
   5   3   3   94.32    3.72
   5   3   3   98.72    4.13
   5   3   3   90.70    3.55
   5   3   3   96.52    4.15
   5   3   3   97.17    3.44
   5   3   3   98.72    4.13
  -6  -3  -3   10.40    2.33
  -6  -3  -3    9.39    1.96
  -6  -3  -3   13.77    2.16
  -6  -3  -3   13.77    2.16
  -6  -3  -3    9.39    1.96
  -6  -3  -3   13.78    2.41
  -6  -3  -3   11.24    1.93
  -6  -3  -3    9.05    2.70
  -6  -3  -3    9.05    2.70
  -6  -3  -3   13.78    2.41
   6   3   3    9.98    2.32
   6   3   3    8.55    2.00
   6   3   3    5.72    2.08
   6   3   3    8.55    2.00
   6   3   3    5.72    2.08
   6   3   3    8.63    1.97
  -7  -3  -3   17.74    2.37
  -7  -3  -3   19.05    3.21
  -7  -3  -3   23.34    3.10
  -7  -3  -3   16.32    3.17
  -7  -3  -3   19.12    3.35
  -7  -3  -3   22.53    3.09
  -7  -3  -3   22.21    2.50
  -7  -3  -3   22.21    2.50
  -7  -3  -3   23.34    3.10
  -7  -3  -3   15.20    3.50
  -7  -3  -3   15.20    3.50
  -7  -3  -3   16.33    3.17
   7   3   3   19.59    3.45
   7   3   3   19.79    4.48
   7   3   3   17.94    2.91
   7   3   3   22.22    3.44
   7   3   3   18.08    3.05
   7   3   3   18.08    3.05
   7   3   3   22.22    3.44
   7   3   3   19.79    4.48
   5  -4  -3    6.82    2.28
   5  -4  -3    6.06    3.13
   5  -4  -3    9.84    3.26
   5  -4  -3    7.07    2.99
   5  -4  -3    9.84    3.26
   5  -4  -3    7.35    3.11
   5  -4  -3   11.66    3.17
   5  -4  -3    6.82    2.28
   5  -4  -3   11.66    3.17
  -5   4   3   10.17    3.22
  -5   4   3   11.29    2.89
  -5   4   3    3.34    2.97
  -5   4   3   11.70    3.25
  -5   4   3   11.70    3.25
  -5   4   3   10.05    2.49
  -5   4   3   10.05    2.49
  -5   4   3   11.29    2.89
  -5   4   3    3.33    2.84
   4  -4  -3   94.49    3.97
   4  -4  -3   81.23    4.48
   4  -4  -3   84.41    4.01
   4  -4  -3   84.41    4.01
   4  -4  -3   80.97    4.62
   4  -4  -3   91.29    4.18
   4  -4  -3   91.29    4.18
   4  -4  -3   94.49    3.97
   4  -4  -3   96.16    4.58
  -4   4   3   93.71    4.41
  -4   4   3   93.71    4.41
  -4   4   3   95.25    4.46
  -4   4   3   84.27    4.45
  -4   4   3   88.43    4.20
  -4   4   3   95.43    4.63
  -4   4   3   93.20    3.19
  -4   4   3   84.27    4.45
  -4   4   3   93.20    3.19
  -4   4   3   88.43    4.20
  -4   4   3   90.88    3.14
   3  -4  -3   16.09    2.47
   3  -4  -3   18.58    2.06
   3  -4  -3   12.38    1.78
   3  -4  -3   17.81    2.30
   3  -4  -3    8.59    2.04
   3  -4  -3   17.81    2.30
   3  -4  -3   18.58    2.06
   3  -4  -3   12.38    1.78
   3  -4  -3    8.69    1.95
  -3   4   3   14.76    2.17
  -3   4   3   13.77    1.74
  -3   4   3   20.11    2.12
  -3   4   3   14.11    2.19
  -3   4   3   13.93    1.53
  -3   4   3   14.76    2.17
  -3   4   3   14.07    2.05
  -3   4   3   20.26    2.22
  -3   4   3   14.07    2.05
  -3   4   3   15.12    1.57
  -3   4   3   15.12    1.57
  -3   4   3   13.77    1.74
   2  -4  -3  136.16    4.38
   2  -4  -3  146.59    4.25
   2  -4  -3  138.71    4.06
   2  -4  -3  135.37    4.46
   2  -4  -3  146.59    4.25
   2  -4  -3  138.71    4.06
   2  -4  -3  146.66    4.41
   2  -4  -3  136.16    4.38
   2  -4  -3  136.19    4.37
  -2   4   3  140.72    4.05
  -2   4   3  141.66    4.35
  -2   4   3  138.75    4.22
  -2   4   3  138.95    4.06
  -2   4   3  138.95    4.06
  -2   4   3  143.61    4.27
  -2   4   3  137.04    4.11
  -2   4   3  142.88    4.52
  -2   4   3  138.75    4.22
  -2   4   3  137.04    4.11
  -2   4   3  141.27    4.24
  -2   4   3  143.61    4.27
   1  -4  -3  131.10    3.89
   1  -4  -3  134.89    3.78
   1  -4  -3  137.34    3.72
   1  -4  -3  131.43    3.81
   1  -4  -3  135.27    3.84
   1  -4  -3  137.34    3.72
   1  -4  -3  135.27    3.84
  -1   4   3  141.26    3.95
  -1   4   3  135.38    3.74
  -1   4   3  141.26    3.95
  -1   4   3  131.73    3.90
  -1   4   3  139.58    3.92
  -1   4   3  141.61    3.82
  -1   4   3  133.03    3.68
  -1   4   3  141.61    3.82
  -1   4   3  134.96    3.81
  -1   4   3  133.03    3.68
  -1   4   3  135.32    3.84
  -1   4   3  135.32    3.84
   0  -4  -3    1.60    0.53
   0  -4  -3    1.75    0.69
   0  -4  -3    1.47    0.60
   0  -4  -3   -0.18    0.92
   0  -4  -3   -0.18    0.92
   0  -4  -3    0.29    0.94
   0  -4  -3    1.60    0.53
   0  -4  -3    1.52    0.52
   0  -4  -3    1.48    0.62
   0  -4  -3    1.75    0.69
   0   4   3    0.59    0.89
   0   4   3    1.61    0.51
   0   4   3    0.56    0.65
   0   4   3    1.91    0.93
   0   4   3    1.44    0.62
   0   4   3    1.44    0.62
   0   4   3    1.61    0.51
   0   4   3    0.59    0.89
   0   4   3    1.88    0.59
   0   4   3    1.87    0.56
  -1  -4  -3    0.20    0.34
  -1  -4  -3    0.19    0.37
  -1  -4  -3   -0.38    0.84
  -1  -4  -3    1.24    0.75
  -1  -4  -3    0.32    0.30
  -1  -4  -3    0.19    0.35
  -1  -4  -3    0.25    0.26
  -1  -4  -3    1.24    0.75
  -1  -4  -3    0.32    0.30
  -1  -4  -3    0.20    0.34
   1   4   3    0.24    0.68
   1   4   3    0.62    0.40
   1   4   3    1.36    0.93
   1   4   3    0.24    0.68
   1   4   3    0.31    0.39
   1   4   3    0.62    0.40
   1   4   3    0.71    0.89
   1   4   3    0.49    0.30
   1   4   3    1.36    0.93
  -2  -4  -3  464.50    9.91
  -2  -4  -3  477.56   10.41
  -2  -4  -3  448.34    9.17
  -2  -4  -3  467.53    9.21
  -2  -4  -3  467.53    9.21
  -2  -4  -3  474.20   10.41
  -2  -4  -3  448.69    9.09
  -2  -4  -3  474.15   10.41
  -2  -4  -3  464.54    9.91
  -2  -4  -3  434.46    9.11
  -2  -4  -3  434.46    9.11
   2   4   3  474.84   10.08
   2   4   3  444.38    9.14
   2   4   3  449.01    9.22
   2   4   3  474.84   10.08
   2   4   3  454.76    9.10
   2   4   3  477.77   10.00
   2   4   3  470.59   10.36
   2   4   3  463.05   10.30
   2   4   3  452.37    9.17
   2   4   3  452.37    9.17
   2   4   3  470.60   10.36
   2   4   3  454.76    9.10
   2   4   3  477.76   10.01
  -3  -4  -3   53.46    2.56
  -3  -4  -3   50.28    2.22
  -3  -4  -3   54.60    1.72
  -3  -4  -3   54.67    1.76
  -3  -4  -3   55.67    1.80
  -3  -4  -3   51.67    2.52
  -3  -4  -3   50.28    2.22
  -3  -4  -3   53.46    2.56
  -3  -4  -3   54.31    1.60
  -3  -4  -3   55.67    1.80
   3   4   3   55.52    2.39
   3   4   3   54.04    2.38
   3   4   3   56.30    1.80
   3   4   3   55.52    2.39
   3   4   3   56.30    1.80
   3   4   3   54.03    2.38
   3   4   3   54.77    1.60
   3   4   3   51.03    1.82
   3   4   3   53.68    1.67
   3   4   3   54.77    1.60
  -4  -4  -3  101.57    3.14
  -4  -4  -3  102.04    3.08
  -4  -4  -3   97.19    2.95
  -4  -4  -3  107.51    3.69
  -4  -4  -3  103.83    3.13
  -4  -4  -3  107.51    3.68
  -4  -4  -3   97.19    2.95
  -4  -4  -3  101.01    3.46
  -4  -4  -3  102.29    2.97
  -4  -4  -3  103.83    3.13
  -4  -4  -3  101.24    3.61
  -4  -4  -3  101.01    3.47
   4   4   3  107.55    3.75
   4   4   3  100.28    4.07
   4   4   3  100.54    2.94
   4   4   3  100.28    4.07
   4   4   3   97.96    3.20
   4   4   3  100.54    2.94
   4   4   3  103.37    3.11
   4   4   3  103.37    3.11
   4   4   3   99.96    3.02
   4   4   3  107.54    3.75
  -5  -4  -3    8.76    1.68
  -5  -4  -3    6.07    1.42
  -5  -4  -3    5.52    1.47
  -5  -4  -3    8.76    1.68
  -5  -4  -3    5.52    1.47
  -5  -4  -3    8.20    1.40
  -5  -4  -3    8.75    1.72
  -5  -4  -3    8.20    1.46
  -5  -4  -3    5.55    1.62
  -5  -4  -3    5.55    1.62
  -5  -4  -3    7.56    1.42
  -5  -4  -3    6.07    1.42
   5   4   3    8.30    1.71
   5   4   3    4.41    1.71
   5   4   3    6.31    1.38
   5   4   3    6.31    1.38
   5   4   3    4.41    1.71
   5   4   3    6.78    1.41
   5   4   3    6.78    1.41
  -6  -4  -3   18.10    2.15
  -6  -4  -3   15.04    2.10
  -6  -4  -3   16.27    2.47
  -6  -4  -3   16.20    2.29
  -6  -4  -3   16.20    2.29
  -6  -4  -3   15.70    2.13
  -6  -4  -3   16.27    2.46
  -6  -4  -3   15.95    2.06
  -6  -4  -3   15.95    2.06
  -6  -4  -3   15.03    2.10
   6   4   3   16.90    2.33
   6   4   3   17.44    2.41
   6   4   3   15.04    2.15
   6   4   3   18.30    2.24
   6   4   3   16.90    2.33
   6   4   3   15.04    2.15
  -7  -4  -3   17.56    2.26
  -7  -4  -3   23.29    3.46
  -7  -4  -3   16.52    2.98
  -7  -4  -3   17.56    2.31
  -7  -4  -3   23.29    3.46
  -7  -4  -3   17.55    2.30
  -7  -4  -3   16.57    3.11
  -7  -4  -3   12.08    2.98
  -7  -4  -3   12.08    2.98
  -7  -4  -3   17.31    2.76
  -7  -4  -3   17.31    2.76
   7   4   3   20.23    3.19
   7   4   3   13.24    4.05
   7   4   3   20.23    3.19
   7   4   3   20.97    3.31
   7   4   3   20.92    2.78
   7   4   3   19.20    2.66
   7   4   3   13.24    4.05
   7   4   3   19.20    2.66
   5  -5  -3   18.05    4.12
   5  -5  -3   17.40    3.63
   5  -5  -3   17.00    3.04
   5  -5  -3   12.11    3.36
   5  -5  -3   17.40    3.63
   5  -5  -3   15.15    3.75
   5  -5  -3   17.00    3.04
   5  -5  -3   15.15    3.75
  -5   5   3   23.41    3.91
  -5   5   3   23.41    3.91
  -5   5   3   15.93    1.99
  -5   5   3   19.84    3.58
  -5   5   3   16.54    3.08
  -5   5   3   16.54    3.08
  -5   5   3   11.19    3.70
  -5   5   3   16.10    3.17
  -5   5   3   16.89    2.11
  -5   5   3   16.10    3.17
  -5   5   3   16.89    2.11
  -5   5   3   19.94    3.75
   4  -5  -3    5.18    2.66
   4  -5  -3    4.26    2.84
   4  -5  -3    6.32    2.29
   4  -5  -3    6.32    2.29
   4  -5  -3    4.06    2.74
  -4   5   3    2.19    1.83
  -4   5   3    4.25    2.10
  -4   5   3    2.19    1.83
  -4   5   3    4.11    2.27
  -4   5   3    3.46    1.79
  -4   5   3    3.47    1.79
  -4   5   3    4.15    2.39
  -4   5   3    5.24    2.49
  -4   5   3    4.25    2.10
  -4   5   3    5.24    2.49
  -4   5   3    4.59    2.59
  -4   5   3    5.20    1.79
   3  -5  -3    7.30    1.75
   3  -5  -3    7.30    1.75
   3  -5  -3    8.58    2.03
   3  -5  -3    6.20    2.16
   3  -5  -3    8.58    2.03
   3  -5  -3    6.04    2.26
   3  -5  -3    7.74    1.97
  -3   5   3    7.35    2.01
  -3   5   3   12.20    2.18
  -3   5   3    8.78    1.73
  -3   5   3    7.35    2.01
  -3   5   3    7.97    2.02
  -3   5   3    8.79    1.73
  -3   5   3    9.05    1.84
  -3   5   3    8.01    2.11
  -3   5   3   12.20    2.18
  -3   5   3    9.05    1.84
  -3   5   3    8.53    1.69
   2  -5  -3  286.05    7.34
   2  -5  -3  275.03    7.30
   2  -5  -3  286.05    7.34
   2  -5  -3  273.82    7.41
  -2   5   3  290.54    7.21
  -2   5   3  277.55    7.04
  -2   5   3  281.76    6.92
  -2   5   3  281.06    7.04
  -2   5   3  290.54    7.21
  -2   5   3  281.57    7.32
  -2   5   3  286.24    7.24
  -2   5   3  285.39    7.36
  -2   5   3  281.76    6.92
  -2   5   3  289.18    7.50
  -2   5   3  281.57    7.32
  -2   5   3  277.55    7.04
   1  -5  -3   63.24    2.46
   1  -5  -3   63.24    2.46
   1  -5  -3   63.79    3.09
   1  -5  -3   59.16    2.60
   1  -5  -3   63.81    3.20
   1  -5  -3   65.93    2.61
   1  -5  -3   59.16    2.60
  -1   5   3   61.56    2.64
  -1   5   3   68.23    2.66
  -1   5   3   64.89    2.41
  -1   5   3   69.42    2.89
  -1   5   3   69.42    2.89
  -1   5   3   67.55    2.85
  -1   5   3   68.23    2.66
  -1   5   3   61.01    2.57
  -1   5   3   66.61    2.69
  -1   5   3   64.89    2.41
  -1   5   3   66.42    2.60
  -1   5   3   61.01    2.57
   0  -5  -3   21.70    1.37
   0  -5  -3   19.66    1.21
   0  -5  -3   18.89    1.15
   0  -5  -3   17.79    1.40
   0  -5  -3   21.45    1.42
   0  -5  -3   17.79    1.40
   0  -5  -3   18.89    1.15
   0   5   3   17.54    1.33
   0   5   3   19.54    1.41
   0   5   3   17.56    1.28
   0   5   3   19.22    1.81
   0   5   3   17.69    1.09
   0   5   3   19.54    1.41
   0   5   3   17.17    1.45
   0   5   3   15.79    1.72
   0   5   3   17.69    1.09
   0   5   3   15.79    1.73
  -1  -5  -3    4.07    0.53
  -1  -5  -3    4.07    0.53
  -1  -5  -3    4.18    0.48
  -1  -5  -3    4.34    0.41
  -1  -5  -3    3.98    0.52
  -1  -5  -3    4.18    0.48
   1   5   3    3.82    0.82
   1   5   3    4.48    0.57
   1   5   3    3.40    0.46
   1   5   3    4.09    1.29
   1   5   3    4.09    1.30
   1   5   3    4.84    0.63
   1   5   3    4.28    0.43
   1   5   3    4.48    0.57
   1   5   3    4.28    0.43
   1   5   3    3.30    1.26
   1   5   3    3.83    0.82
  -2  -5  -3  168.98    5.04
  -2  -5  -3  169.59    5.02
  -2  -5  -3  168.99    5.04
   2   5   3  187.17    4.62
   2   5   3  181.53    5.12
   2   5   3  187.17    4.62
   2   5   3  174.28    4.61
   2   5   3  174.28    4.61
   2   5   3  173.22    5.09
   2   5   3  173.22    5.09
  -3  -5  -3   34.49    0.88
  -3  -5  -3   35.55    0.94
  -3  -5  -3   33.64    1.14
  -3  -5  -3   35.69    2.01
  -3  -5  -3   35.64    2.00
  -3  -5  -3   31.33    2.03
  -3  -5  -3   33.21    2.06
  -3  -5  -3   34.65    0.98
  -3  -5  -3   35.37    0.92
  -3  -5  -3   31.33    2.03
  -3  -5  -3   33.64    1.14
  -3  -5  -3   34.65    0.98
   3   5   3   34.16    0.99
   3   5   3   37.47    2.06
   3   5   3   36.83    2.37
   3   5   3   34.10    1.03
   3   5   3   34.14    1.21
   3   5   3   31.25    2.32
   3   5   3   37.48    2.06
   3   5   3   34.57    0.92
   3   5   3   30.82    2.15
   3   5   3   31.25    2.32
   3   5   3   34.57    0.92
   3   5   3   30.82    2.15
   3   5   3   34.16    0.99
  -4  -5  -3   30.04    1.60
  -4  -5  -3   29.82    1.35
  -4  -5  -3   27.16    2.40
  -4  -5  -3   30.04    1.60
  -4  -5  -3   27.16    2.40
  -4  -5  -3   26.03    1.51
  -4  -5  -3   29.44    2.06
  -4  -5  -3   29.40    2.06
  -4  -5  -3   26.14    1.46
  -4  -5  -3   27.34    2.40
   4   5   3   29.89    2.36
   4   5   3   27.53    1.42
   4   5   3   29.67    1.34
   4   5   3   27.20    2.25
   4   5   3   29.89    2.37
   4   5   3   28.09    1.66
   4   5   3   27.20    2.25
   4   5   3   29.67    1.34
  -5  -5  -3   36.70    2.18
  -5  -5  -3   41.79    2.74
  -5  -5  -3   38.49    2.02
  -5  -5  -3   29.75    2.51
  -5  -5  -3   34.95    2.06
  -5  -5  -3   41.78    2.74
  -5  -5  -3   34.95    2.06
  -5  -5  -3   38.44    2.68
  -5  -5  -3   34.64    2.59
  -5  -5  -3   36.66    2.26
  -5  -5  -3   29.75    2.52
  -5  -5  -3   38.44    2.68
   5   5   3   37.39    1.92
   5   5   3   27.04    2.10
   5   5   3   36.82    3.28
   5   5   3   36.82    3.28
   5   5   3   31.89    2.35
   5   5   3   35.76    2.25
   5   5   3   35.76    2.25
   5   5   3   37.39    1.92
  -6  -5  -3   12.60    2.18
  -6  -5  -3    8.98    2.17
  -6  -5  -3   14.59    2.16
  -6  -5  -3   14.59    2.16
  -6  -5  -3    8.98    2.18
  -6  -5  -3   10.92    1.81
  -6  -5  -3   11.47    1.86
  -6  -5  -3   10.76    2.12
  -6  -5  -3   11.47    1.86
  -6  -5  -3   10.76    2.12
   6   5   3   12.95    1.66
   6   5   3    9.76    1.90
   6   5   3   12.95    1.66
   6   5   3   12.82    3.28
   6   5   3   13.40    2.17
   6   5   3   12.82    3.28
   6   5   3    9.37    1.87
   6   5   3    9.76    1.90
  -7  -5  -3   39.18    3.26
  -7  -5  -3   46.94    3.77
  -7  -5  -3   42.32    3.64
  -7  -5  -3   46.94    3.77
  -7  -5  -3   42.33    3.63
  -7  -5  -3   45.18    4.14
  -7  -5  -3   45.34    4.00
  -7  -5  -3   39.18    3.26
  -7  -5  -3   40.21    3.50
   7   5   3   48.69    5.11
   7   5   3   47.97    4.06
   7   5   3   47.97    4.06
   7   5   3   38.36    3.48
   7   5   3   42.51    3.87
   7   5   3   48.69    5.11
   7   5   3   38.93    3.21
   7   5   3   38.93    3.21
   4  -6  -3   32.22    3.61
   4  -6  -3   34.96    3.95
   4  -6  -3   32.22    3.61
   4  -6  -3   38.21    3.79
   4  -6  -3   31.94    2.96
   4  -6  -3   38.21    3.79
   4  -6  -3   31.94    2.96
   4  -6  -3   38.16    4.06
  -4   6   3   41.52    3.87
  -4   6   3   39.80    3.36
  -4   6   3   41.99    4.06
  -4   6   3   40.43    3.83
  -4   6   3   35.49    3.00
  -4   6   3   25.65    3.47
  -4   6   3   37.24    3.82
  -4   6   3   33.70    2.97
  -4   6   3   37.24    3.82
  -4   6   3   33.70    2.98
  -4   6   3   35.49    3.00
  -4   6   3   25.65    3.47
   3  -6  -3   39.46    3.39
   3  -6  -3   38.95    3.52
   3  -6  -3   40.27    3.53
   3  -6  -3   39.46    3.39
  -3   6   3   41.18    3.25
  -3   6   3   44.84    3.30
  -3   6   3   40.03    3.65
  -3   6   3   44.85    3.30
  -3   6   3   36.51    2.80
  -3   6   3   41.14    3.46
  -3   6   3   40.18    3.53
  -3   6   3   36.51    2.80
  -3   6   3   41.14    3.46
  -3   6   3   40.14    3.00
  -3   6   3   34.84    3.28
  -3   6   3   40.14    3.00
   2  -6  -3    1.03    1.51
   2  -6  -3    1.45    1.81
   2  -6  -3    0.60    1.64
   2  -6  -3    2.99    1.52
   2  -6  -3    0.60    1.64
   2  -6  -3    2.99    1.52
  -2   6   3   -0.84    1.52
  -2   6   3    2.06    1.63
  -2   6   3   -0.55    1.47
  -2   6   3   -0.55    1.54
  -2   6   3    2.00    1.28
  -2   6   3   -0.84    1.52
  -2   6   3    0.16    1.48
  -2   6   3    0.16    1.48
  -2   6   3   -1.64    1.83
  -2   6   3    2.08    1.67
  -2   6   3    2.00    1.28
  -2   6   3   -1.64    1.83
   1  -6  -3  139.21    4.22
   1  -6  -3  141.98    4.19
   1  -6  -3  139.21    4.22
   1  -6  -3  138.22    4.27
   1  -6  -3  141.98    4.19
  -1   6   3  135.58    4.24
  -1   6   3  137.20    4.62
  -1   6   3  124.47    3.71
  -1   6   3  138.65    4.61
  -1   6   3  137.75    4.39
  -1   6   3  133.64    4.10
  -1   6   3  133.36    4.19
  -1   6   3  135.58    4.24
  -1   6   3  124.47    3.71
  -1   6   3  137.45    4.06
  -1   6   3  137.22    4.62
  -1   6   3  137.45    4.06
   0  -6  -3   14.01    1.22
   0  -6  -3   12.46    1.34
   0  -6  -3   13.17    1.29
   0  -6  -3   12.51    1.18
   0  -6  -3   12.46    1.34
   0  -6  -3   14.01    1.22
   0   6   3   12.07    1.84
   0   6   3   13.32    1.33
   0   6   3   12.10    1.21
   0   6   3   12.10    1.21
   0   6   3   12.53    1.27
   0   6   3   12.48    1.21
   0   6   3   12.08    1.85
   0   6   3   12.70    1.86
   0   6   3   12.17    1.28
   0   6   3   11.29    1.12
   0   6   3   11.29    1.12
   0   6   3   12.17    1.28
  -1  -6  -3  138.72    3.33
  -1  -6  -3  145.51    3.27
  -1  -6  -3  143.42    3.27
  -1  -6  -3  150.11    3.19
  -1  -6  -3  138.72    3.33
  -1  -6  -3  145.51    3.27
   1   6   3  141.59    3.28
   1   6   3  145.63    4.59
   1   6   3  151.49    4.61
   1   6   3  143.82    3.44
   1   6   3  141.59    3.28
   1   6   3  145.62    4.59
   2   6   3  111.36    4.13
   2   6   3  105.81    3.42
   2   6   3  108.15    3.41
   2   6   3  111.36    4.13
   2   6   3  108.16    3.41
   2   6   3  105.81    3.42
   2   6   3  102.92    4.03
   3   6   3   15.91    2.05
   3   6   3   15.31    1.62
   3   6   3   15.31    1.62
   3   6   3   17.59    1.87
   3   6   3   17.37    2.11
   3   6   3   17.37    2.10
   3   6   3   17.59    1.87
  -4  -6  -3    2.56    0.50
  -4  -6  -3    2.56    0.50
  -4  -6  -3    4.57    1.39
  -4  -6  -3    3.16    0.34
  -4  -6  -3    3.83    0.67
  -4  -6  -3    3.83    0.67
  -4  -6  -3    4.57    1.39
   4   6   3    0.59    1.59
   4   6   3    2.96    0.55
   4   6   3    0.59    1.59
   4   6   3    4.08    1.56
   4   6   3    2.70    0.45
   4   6   3    2.95    0.69
   4   6   3    4.08    1.56
   4   6   3    2.75    0.40
   4   6   3    2.75    0.40
   4   6   3    2.70    0.45
  -5  -6  -3   47.64    2.84
  -5  -6  -3   39.03    2.05
  -5  -6  -3   37.55    1.83
  -5  -6  -3   37.46    1.76
  -5  -6  -3   39.03    2.05
  -5  -6  -3   37.65    1.89
  -5  -6  -3   47.64    2.85
   5   6   3   38.71    2.23
   5   6   3   40.65    1.79
   5   6   3   40.63    3.48
   5   6   3   40.65    1.79
   5   6   3   45.37    3.45
   5   6   3   40.63    3.48
   5   6   3   38.97    1.98
   5   6   3   45.37    3.44
  -6  -6  -3   33.49    2.57
  -6  -6  -3   28.87    2.38
  -6  -6  -3   33.49    2.57
  -6  -6  -3   28.87    2.38
  -6  -6  -3   34.20    2.37
  -6  -6  -3   35.80    3.06
  -6  -6  -3   35.81    3.06
   6   6   3   32.17    2.24
   6   6   3   32.17    2.24
   6   6   3   30.97    2.47
   6   6   3   32.43    2.48
   6   6   3   32.43    2.48
   6   6   3   33.68    3.92
   6   6   3   33.17    2.59
   6   6   3   33.68    3.92
   3  -7  -3   54.40    3.98
   3  -7  -3   54.40    3.98
   3  -7  -3   55.29    4.35
   3  -7  -3   47.61    3.94
   3  -7  -3   50.12    4.06
   3  -7  -3   47.61    3.94
  -3   7   3   55.40    3.90
  -3   7   3   54.17    3.96
  -3   7   3   54.99    4.03
  -3   7   3   53.20    3.89
  -3   7   3   44.14    3.03
  -3   7   3   49.03    3.99
  -3   7   3   54.99    4.03
  -3   7   3   44.14    3.03
  -3   7   3   53.20    3.89
  -3   7   3   56.63    4.33
  -3   7   3   54.17    3.96
  -3   7   3   56.52    4.49
   2  -7  -3    4.60    1.99
   2  -7  -3    9.61    2.06
   2  -7  -3    9.61    2.06
   2  -7  -3    3.86    2.16
   2  -7  -3    4.60    1.99
  -2   7   3    4.77    1.91
  -2   7   3    9.54    2.47
  -2   7   3    6.23    1.41
  -2   7   3    4.77    1.91
  -2   7   3    7.71    2.07
  -2   7   3    8.89    2.46
  -2   7   3    8.89    2.46
  -2   7   3    6.30    2.08
  -2   7   3    6.23    1.41
  -2   7   3    6.30    2.08
  -2   7   3    6.88    2.04
  -2   7   3    7.72    2.16
   1  -7  -3    0.41    1.43
   1  -7  -3    0.80    1.58
   1  -7  -3    4.32    1.55
   1  -7  -3    0.80    1.58
   1  -7  -3    4.32    1.55
   1  -7  -3    2.94    1.55
  -1   7   3    3.61    1.62
  -1   7   3    5.13    1.67
  -1   7   3    3.21    1.39
  -1   7   3    3.21    1.39
  -1   7   3    5.13    1.67
  -1   7   3    3.90    1.64
  -1   7   3    3.98    2.01
  -1   7   3    3.44    1.93
  -1   7   3    3.98    2.00
  -1   7   3    4.00    1.08
  -1   7   3    4.00    1.08
  -1   7   3    3.91    1.71
   0  -7  -3   29.66    2.02
   0  -7  -3   31.00    1.99
   0  -7  -3   28.12    1.86
   0  -7  -3   31.00    1.99
   0  -7  -3   26.90    1.87
   0  -7  -3   26.90    1.87
   0   7   3   32.87    2.90
   0   7   3   33.35    2.10
   0   7   3   29.02    1.81
   0   7   3   32.64    1.81
   0   7   3   33.75    2.90
   0   7   3   27.19    1.68
   0   7   3   29.02    1.81
   0   7   3   29.32    1.95
   0   7   3   32.64    1.81
   0   7   3   27.19    1.68
   0   7   3   29.29    2.02
   0   7   3   32.88    2.91
  -1  -7  -3  102.86    2.60
  -1  -7  -3  102.86    2.60
  -1  -7  -3  100.03    2.61
  -1  -7  -3  100.03    2.61
  -1  -7  -3  102.90    2.47
  -1  -7  -3   98.55    2.50
   1   7   3  101.49    3.03
   1   7   3  105.59    2.55
   1   7   3  101.43    3.95
   1   7   3   97.04    2.66
   1   7   3  101.49    3.03
   1   7   3  102.82    3.98
   1   7   3   96.77    2.61
   1   7   3  102.82    3.99
   1   7   3   94.17    2.67
   1   7   3  105.59    2.55
   2   7   3   75.54    2.88
   2   7   3   77.33    3.48
   2   7   3   73.37    2.98
   2   7   3   73.36    2.97
   2   7   3   77.32    3.48
   2   7   3   74.01    3.42
   2   7   3   75.54    2.88
   3   7   3    1.95    1.42
   3   7   3   -0.07    1.80
   3   7   3   -2.67    1.78
   3   7   3    2.53    1.32
   3   7   3    2.53    1.32
   3   7   3   -2.67    1.78
   3   7   3    1.95    1.42
   4   7   3   43.99    4.30
   4   7   3   45.67    3.45
   4   7   3   45.67    3.45
   4   7   3   44.78    3.39
   4   7   3   44.01    4.30
  -5  -7  -3   49.24    1.64
  -5  -7  -3   49.24    1.64
  -5  -7  -3   54.62    3.00
  -5  -7  -3   54.64    3.00
   5   7   3   59.26    4.26
   5   7   3   52.14    1.77
   5   7   3   50.47    1.33
   5   7   3   55.17    3.47
   5   7   3   49.69    1.33
   5   7   3   53.35    1.80
   5   7   3   59.26    4.26
   5   7   3   50.47    1.33
   5   7   3   55.15    3.47
   5   7   3   49.69    1.33
  -6  -7  -3   26.25    2.59
  -6  -7  -3   24.04    1.88
  -6  -7  -3   22.84    1.90
  -6  -7  -3   24.04    1.88
  -6  -7  -3   26.25    2.60
  -6  -7  -3   22.84    1.90
  -6  -7  -3   21.67    1.75
   6   7   3   20.71    1.84
   6   7   3   25.32    1.84
   6   7   3   19.52    1.75
   6   7   3   25.45    4.01
   6   7   3   18.79    1.68
   6   7   3   25.32    1.84
   6   7   3   19.52    1.75
   6   7   3   25.45    4.01
   2  -8  -3   11.24    2.82
   2  -8  -3    5.38    2.33
   2  -8  -3    5.38    2.33
   2  -8  -3   11.24    2.82
   2  -8  -3    9.33    2.60
  -2   8   3    9.73    1.31
  -2   8   3   10.77    2.55
  -2   8   3   10.97    2.33
  -2   8   3   11.99    3.12
  -2   8   3    9.73    1.31
  -2   8   3   10.97    2.33
  -2   8   3   10.73    2.44
  -2   8   3   12.27    3.13
  -2   8   3   11.99    3.12
  -2   8   3    9.04    2.31
  -2   8   3    9.04    2.31
  -2   8   3   11.27    2.44
   1  -8  -3   54.19    3.05
   1  -8  -3   54.19    3.05
   1  -8  -3   50.83    3.30
   1  -8  -3   50.83    3.30
   1  -8  -3   62.82    3.33
  -1   8   3   55.96    1.93
  -1   8   3   63.18    4.42
  -1   8   3   57.41    3.24
  -1   8   3   56.97    3.18
  -1   8   3   57.56    3.33
  -1   8   3   53.60    3.12
  -1   8   3   60.93    4.42
  -1   8   3   53.53    3.23
  -1   8   3   55.96    1.93
  -1   8   3   60.96    4.42
  -1   8   3   57.41    3.24
  -1   8   3   56.97    3.18
   0  -8  -3   24.10    2.09
   0  -8  -3   24.10    2.09
   0  -8  -3   25.10    2.08
   0  -8  -3   22.85    1.86
   0  -8  -3   20.21    1.88
   0  -8  -3   20.21    1.88
   0   8   3   22.92    1.94
   0   8   3   23.19    3.05
   0   8   3   24.60    1.56
   0   8   3   23.00    1.36
   0   8   3   23.13    1.93
   0   8   3   24.24    2.03
   0   8   3   29.50    2.31
   0   8   3   22.92    1.94
   0   8   3   26.37    3.18
   0   8   3   23.00    1.36
   0   8   3   24.24    2.03
   0   8   3   24.60    1.56
   0   8   3   23.30    2.02
   0   8   3   26.37    3.18
  -1  -8  -3   12.29    1.07
  -1  -8  -3   11.26    1.02
  -1  -8  -3   11.53    1.08
  -1  -8  -3   11.53    1.08
  -1  -8  -3   11.17    0.92
  -1  -8  -3   11.26    1.02
   1   8   3   13.22    1.12
   1   8   3   13.04    1.34
   1   8   3   12.22    0.94
   1   8   3   13.29    1.17
   1   8   3   14.59    2.63
   1   8   3   12.22    0.94
   1   8   3   13.04    1.34
   1   8   3   13.99    2.61
   1   8   3   12.99    1.11
   1   8   3   13.99    2.60
   2   8   3   15.84    1.95
   2   8   3   20.50    2.81
   2   8   3   15.83    1.95
   2   8   3   24.00    2.97
   2   8   3   24.00    2.98
   2   8   3   15.93    1.71
   2   8   3   15.93    1.71
   3   8   3   36.54    2.66
   3   8   3   36.54    2.66
   3   8   3   37.98    3.48
   3   8   3   35.32    2.85
   3   8   3   37.82    3.44
   3   8   3   35.32    2.85
   3   8   3   37.99    3.48
   4   8   3    0.73    2.21
   4   8   3   -0.66    1.68
   4   8   3    0.73    2.21
   4   8   3   -1.53    2.39
   4   8   3   -7.42    2.25
   4   8   3   -1.53    2.39
   4   8   3   -0.66    1.68
   5   8   3   77.75    4.81
   5   8   3   77.78    4.82
   5   8   3   75.06    4.76
   5   8   3   67.99    3.98
   5   8   3   67.99    3.97
   5   8   3   75.06    4.76
   5   8   3   70.28    4.70
  -6  -8  -3    7.85    0.90
  -6  -8  -3   10.02    2.36
  -6  -8  -3    7.85    0.90
  -6  -8  -3   10.02    2.36
   6   8   3   11.83    3.75
   6   8   3    9.95    1.03
   6   8   3    9.52    1.07
   6   8   3   11.83    3.75
   1  -9  -3   43.01    3.32
   1  -9  -3   40.99    3.38
   1  -9  -3   40.99    3.38
   1  -9  -3   41.33    3.46
  -1   9   3   42.11    3.38
  -1   9   3   38.30    3.34
  -1   9   3   41.03    3.55
  -1   9   3   36.21    3.19
  -1   9   3   38.30    3.34
  -1   9   3   36.21    3.19
  -1   9   3   40.92    3.41
   0  -9  -3    4.65    1.81
   0  -9  -3   12.81    1.80
   0  -9  -3    4.65    1.81
   0  -9  -3   12.81    1.80
   0  -9  -3    7.22    1.61
   0   9   3   10.36    1.60
   0   9   3   10.62    1.60
   0   9   3    6.80    1.73
   0   9   3   10.36    1.60
   0   9   3    6.83    1.81
   0   9   3    8.97    1.69
   0   9   3   10.62    1.60
  -1  -9  -3   17.38    1.41
  -1  -9  -3   17.28    1.38
  -1  -9  -3   19.28    1.23
  -1  -9  -3   17.38    1.41
  -1  -9  -3   17.28    1.38
  -1  -9  -3   20.80    1.38
   1   9   3   17.83    1.39
   1   9   3   17.95    1.65
   1   9   3   17.95    1.65
   1   9   3   17.92    1.45
   1   9   3   17.61    1.56
   1   9   3   17.84    1.25
   1   9   3   17.84    1.25
   2   9   3   17.47    2.20
   2   9   3   17.46    2.20
   2   9   3   19.12    1.90
   2   9   3   19.12    1.90
   3   9   3   28.82    2.57
   3   9   3   27.93    3.23
   3   9   3   28.82    2.57
   3   9   3   36.66    2.96
   3   9   3   36.65    2.96
   3   9   3   31.57    3.31
   3   9   3   27.94    3.23
   4   9   3    8.43    3.26
   4   9   3    6.42    2.16
   4   9   3    3.91    2.44
   4   9   3    6.42    2.16
   4   9   3    9.29    3.28
   4   9   3    8.43    3.25
   4   9   3    3.91    2.44
   5   9   3    5.40    3.54
   5   9   3    8.62    2.77
   5   9   3    8.93    3.09
   5   9   3    8.62    2.77
   5   9   3    8.93    3.09
   5   9   3    4.87    3.58
   5   9   3    4.87    3.58
   0 -10  -3   25.43    2.31
   0 -10  -3   25.54    2.29
   0 -10  -3   29.35    2.22
   0 -10  -3   25.54    2.29
   0  10   3   31.52    2.59
   0  10   3   37.94    4.80
   0  10   3   26.85    2.53
   0  10   3   26.79    2.43
   0  10   3   24.54    2.17
   0  10   3   26.02    2.33
   0  10   3   24.54    2.17
   0  10   3   32.61    4.68
   0  10   3   31.52    2.59
   0  10   3   32.62    4.69
  -1 -10  -3    0.86    1.30
  -1 -10  -3   -0.26    1.01
  -1 -10  -3   -0.26    1.01
  -1 -10  -3    0.86    1.30
   1  10   3   -0.60    0.86
   1  10   3   -0.60    0.86
   1  10   3    0.68    1.29
   1  10   3    0.14    2.64
   1  10   3    0.68    1.36
   1  10   3    0.92    1.06
   1  10   3    3.13    2.69
   1  10   3    0.14    2.63
   2  10   3   34.83    3.08
   2  10   3   34.84    3.08
   2  10   3   37.38    2.68
   2  10   3   37.38    2.68
   3  10   3   28.67    2.83
   3  10   3   27.95    2.70
   3  10   3   28.67    2.83
   3  10   3   23.21    4.24
   3  10   3   27.95    2.70
   3  10   3   25.50    4.31
   3  10   3   23.21    4.25
   4  10   3    5.09    2.78
   4  10   3    0.20    2.64
   4  10   3    5.17    3.62
   4  10   3    0.20    2.65
   4  10   3    9.57    3.82
   4  10   3    5.09    2.78
   4  10   3    9.57    3.83
   3   9  -4   13.87    2.11
  -3  -9   4   16.86    2.18
   2   9  -4   22.85    2.27
   2   9  -4   22.85    2.27
   2   9  -4   23.16    1.80
   2   9  -4   25.34    2.33
   2   9  -4   23.16    1.80
   2   9  -4   21.97    2.77
   2   9  -4   23.32    2.70
   2   9  -4   21.97    2.77
  -2  -9   4   26.41    2.23
  -2  -9   4   24.97    2.86
  -2  -9   4   26.09    2.85
  -2  -9   4   26.09    2.85
  -2  -9   4   25.18    2.32
  -2  -9   4   26.41    2.23
   1   9  -4    0.66    1.82
   1   9  -4    4.42    2.64
   1   9  -4    4.42    2.64
   1   9  -4    0.66    1.82
   1   9  -4    5.38    2.57
   1   9  -4   -0.14    1.76
  -1  -9   4   -0.72    2.51
  -1  -9   4   -0.70    1.84
  -1  -9   4    1.16    1.84
  -1  -9   4   -0.70    1.84
  -1  -9   4    0.79    2.72
  -1  -9   4    0.79    2.72
   4   8  -4   14.33    2.24
   4   8  -4   11.36    2.99
   4   8  -4   13.38    1.99
   4   8  -4   11.66    2.13
   4   8  -4   11.66    2.13
   4   8  -4   10.08    1.90
   4   8  -4   11.36    2.99
   4   8  -4   14.19    2.13
   4   8  -4   13.38    1.99
  -4  -8   4   14.38    2.89
  -4  -8   4   13.69    2.19
  -4  -8   4   14.38    2.89
  -4  -8   4   13.69    2.19
  -4  -8   4   13.21    2.03
  -4  -8   4   11.25    2.15
   3   8  -4    7.41    1.81
   3   8  -4    8.05    2.19
   3   8  -4    9.53    1.88
   3   8  -4   10.79    1.83
   3   8  -4    8.05    2.19
   3   8  -4    7.41    1.81
  -3  -8   4    6.11    1.94
  -3  -8   4    8.40    1.92
  -3  -8   4   10.54    1.76
  -3  -8   4    8.44    1.99
  -3  -8   4    8.44    1.99
  -3  -8   4    6.11    1.94
  -3  -8   4    9.37    1.78
  -3  -8   4   10.54    1.76
   2   8  -4   40.69    1.93
   2   8  -4   40.67    1.93
   2   8  -4   43.16    3.05
   2   8  -4   41.48    2.61
   2   8  -4   45.19    2.63
   2   8  -4   43.16    3.05
   2   8  -4   43.85    3.09
   2   8  -4   41.48    2.61
  -2  -8   4   48.66    2.65
  -2  -8   4   39.07    2.62
  -2  -8   4   48.66    2.65
  -2  -8   4   42.14    2.68
  -2  -8   4   41.49    3.10
  -2  -8   4   41.08    3.19
  -2  -8   4   41.49    3.10
  -2  -8   4   39.07    2.62
   1   8  -4    5.09    1.45
   1   8  -4    5.09    1.45
   1   8  -4    6.22    2.12
   1   8  -4    7.47    2.23
   1   8  -4    6.22    2.12
   1   8  -4    5.49    1.62
  -1  -8   4    4.36    1.62
  -1  -8   4    6.80    1.84
  -1  -8   4    5.99    2.74
  -1  -8   4    6.80    1.84
   0   8  -4    1.70    1.53
   0   8  -4    1.98    2.13
   0   8  -4    2.36    1.60
   0   8  -4    1.70    1.53
   0   8  -4    3.81    2.33
   0   8  -4    1.98    2.13
   0  -8   4    2.08    1.63
   0  -8   4    0.66    2.24
   0  -8   4    2.08    1.63
   0  -8   4    0.66    2.24
  -1   8  -4   20.20    2.54
  -1   8  -4   21.71    3.28
  -1   8  -4   20.20    2.54
  -1   8  -4   23.83    3.42
  -1   8  -4   21.71    3.28
  -1   8  -4   25.45    2.59
   1  -8   4   22.77    2.56
   1  -8   4   16.37    3.24
   1  -8   4   16.37    3.24
   1  -8   4   12.95    3.40
   1  -8   4   22.77    2.56
   1  -8   4   21.42    2.63
   5   7  -4   21.34    3.65
   5   7  -4   25.37    3.37
   5   7  -4   20.28    2.76
   5   7  -4   20.12    2.63
   5   7  -4   21.86    2.64
   5   7  -4   23.81    2.15
   5   7  -4   21.34    3.65
   5   7  -4   23.81    2.15
   5   7  -4   27.16    3.47
   5   7  -4   21.86    2.64
   5   7  -4   27.16    3.47
   5   7  -4   23.22    2.30
  -5  -7   4   28.69    2.92
  -5  -7   4   24.00    2.21
  -5  -7   4   23.74    2.83
  -5  -7   4   22.61    3.30
  -5  -7   4   22.61    3.30
  -5  -7   4   23.74    2.83
  -5  -7   4   24.45    2.79
  -5  -7   4   28.69    2.92
   4   7  -4    5.78    1.83
   4   7  -4    5.78    1.83
   4   7  -4   10.98    2.69
   4   7  -4   10.98    2.69
   4   7  -4    6.67    1.59
   4   7  -4    4.90    1.81
   4   7  -4    7.31    1.68
   4   7  -4    4.86    1.72
   4   7  -4    6.67    1.59
  -4  -7   4    7.42    1.99
  -4  -7   4    6.47    1.71
  -4  -7   4    5.71    1.88
  -4  -7   4    7.57    1.68
  -4  -7   4   12.03    2.46
  -4  -7   4    7.42    1.99
  -4  -7   4    7.57    1.68
  -4  -7   4   12.03    2.46
   3   7  -4   23.94    2.01
   3   7  -4   31.43    2.09
   3   7  -4   31.43    2.09
   3   7  -4   26.95    2.34
   3   7  -4   28.31    2.70
   3   7  -4   28.31    2.70
  -3  -7   4   28.81    2.38
  -3  -7   4   31.49    2.39
  -3  -7   4   34.52    2.90
  -3  -7   4   31.49    2.39
  -3  -7   4   27.14    2.15
  -3  -7   4   27.14    2.15
  -3  -7   4   34.52    2.90
   2   7  -4   41.26    2.40
   2   7  -4   38.08    2.66
   2   7  -4   35.51    2.30
   2   7  -4   39.27    1.56
   2   7  -4   42.85    2.25
   2   7  -4   35.51    2.30
   2   7  -4   39.26    1.56
   2   7  -4   41.26    2.40
  -2  -7   4   38.05    2.63
  -2  -7   4   41.12    2.42
  -2  -7   4   47.26    2.74
  -2  -7   4   47.26    2.74
  -2  -7   4   41.72    2.19
  -2  -7   4   41.03    2.61
  -2  -7   4   41.72    2.19
  -2  -7   4   38.05    2.63
   1   7  -4   11.87    1.59
   1   7  -4   13.45    1.63
   1   7  -4   13.45    1.63
   1   7  -4   11.35    1.95
   1   7  -4    8.41    1.86
   1   7  -4   11.35    1.95
  -1  -7   4   11.61    1.53
  -1  -7   4   11.18    1.31
  -1  -7   4   11.38    1.83
  -1  -7   4   11.26    1.61
  -1  -7   4   11.61    1.53
  -1  -7   4   11.18    1.31
  -1  -7   4   11.38    1.83
   0   7  -4   69.25    3.89
   0   7  -4   72.44    2.93
   0   7  -4   65.86    3.53
   0   7  -4   65.86    3.53
   0   7  -4   72.44    2.93
   0   7  -4   65.85    2.97
   0  -7   4   73.26    3.65
   0  -7   4   73.23    3.01
   0  -7   4   73.26    3.65
   0  -7   4   66.27    3.04
   0  -7   4   73.23    3.01
  -1   7  -4    7.10    2.44
  -1   7  -4    9.66    1.77
  -1   7  -4    7.91    1.85
  -1   7  -4    6.65    2.38
  -1   7  -4    9.66    1.77
  -1   7  -4    6.65    2.38
   1  -7   4    9.09    1.89
   1  -7   4   10.33    1.85
   1  -7   4   10.33    1.85
   1  -7   4    7.43    2.54
  -2   7  -4   -0.60    2.77
  -2   7  -4    2.35    2.02
  -2   7  -4   -0.41    2.61
  -2   7  -4    2.35    2.02
  -2   7  -4   -1.50    1.83
  -2   7  -4   -0.24    2.72
  -2   7  -4   -0.60    2.77
   2  -7   4    1.14    1.97
   2  -7   4    1.14    1.97
   2  -7   4   -0.33    2.66
   2  -7   4   -0.33    2.66
   2  -7   4   -1.19    2.03
   2  -7   4   -2.75    2.75
   6   6  -4    2.65    2.08
   6   6  -4    0.75    2.39
   6   6  -4    3.96    2.89
   6   6  -4   -0.35    2.59
   6   6  -4    3.18    2.45
   6   6  -4   -0.35    2.70
   6   6  -4    0.74    2.39
   6   6  -4    2.65    2.08
   6   6  -4    1.18    4.06
   6   6  -4    1.18    4.06
   6   6  -4    3.96    2.89
  -6  -6   4    6.29    2.07
  -6  -6   4    6.29    2.07
  -6  -6   4    6.52    3.59
  -6  -6   4    2.62    2.11
  -6  -6   4    2.94    2.63
  -6  -6   4    6.52    3.59
  -6  -6   4    2.94    2.63
  -6  -6   4    4.46    2.78
   5   6  -4   67.97    6.41
   5   6  -4   82.53    4.14
   5   6  -4   76.98    3.13
   5   6  -4   76.98    3.13
   5   6  -4   79.92    4.00
   5   6  -4   79.92    4.00
   5   6  -4   73.91    5.18
   5   6  -4   82.74    4.00
   5   6  -4   67.95    6.40
   5   6  -4   73.91    5.18
   5   6  -4   76.65    3.49
  -5  -6   4   66.43    4.07
  -5  -6   4   79.96    4.17
  -5  -6   4   79.96    4.17
  -5  -6   4   80.43    4.76
  -5  -6   4   80.43    4.76
  -5  -6   4   77.92    3.68
   4   6  -4    7.36    1.41
   4   6  -4    6.53    1.50
   4   6  -4    5.14    1.62
   4   6  -4    5.14    1.62
   4   6  -4    5.15    1.69
   4   6  -4    6.29    2.32
   4   6  -4    6.53    1.50
   4   6  -4    6.29    2.32
   4   6  -4    5.19    1.77
  -4  -6   4    7.87    2.17
  -4  -6   4    7.91    1.41
  -4  -6   4    7.87    2.17
  -4  -6   4    6.03    1.78
  -4  -6   4    4.24    1.86
  -4  -6   4    7.91    1.41
  -4  -6   4    4.24    1.86
   3   6  -4    0.84    1.19
   3   6  -4    0.84    1.19
   3   6  -4    0.39    1.09
   3   6  -4    1.83    1.21
   3   6  -4    0.38    1.62
   3   6  -4    0.38    1.62
   3   6  -4    1.99    1.21
   3   6  -4    1.99    1.21
  -3  -6   4    3.96    1.16
  -3  -6   4    4.06    1.68
  -3  -6   4    3.96    1.16
  -3  -6   4    1.70    1.23
  -3  -6   4    4.06    1.68
  -3  -6   4    0.23    1.30
  -3  -6   4    2.00    1.19
  -3  -6   4    0.23    1.30
   2   6  -4   43.47    1.29
   2   6  -4   45.25    2.20
   2   6  -4   45.25    2.20
   2   6  -4   43.53    2.33
   2   6  -4   47.01    2.14
   2   6  -4   47.01    2.14
   2   6  -4   43.47    1.28
  -2  -6   4   42.80    2.10
  -2  -6   4   48.26    2.72
  -2  -6   4   45.20    2.25
  -2  -6   4   47.24    2.40
  -2  -6   4   48.69    2.32
  -2  -6   4   47.24    2.40
  -2  -6   4   48.69    2.32
  -2  -6   4   48.26    2.72
   1   6  -4   85.80    3.00
   1   6  -4   85.80    3.00
   1   6  -4   87.86    3.36
   1   6  -4   89.16    3.34
   1   6  -4   89.16    3.34
  -1  -6   4   86.49    3.15
  -1  -6   4   83.31    2.89
  -1  -6   4   77.93    3.24
  -1  -6   4   82.54    2.90
  -1  -6   4   83.31    2.89
  -1  -6   4   86.49    3.15
  -1  -6   4   82.54    2.90
   0   6  -4   38.60    2.89
   0   6  -4   39.83    2.25
   0   6  -4   40.28    2.62
   0   6  -4   40.28    2.62
   0  -6   4   41.75    2.75
   0  -6   4   37.74    1.65
   0  -6   4   36.55    2.32
   0  -6   4   39.62    2.41
   0  -6   4   37.74    1.65
   0  -6   4   36.55    2.32
   0  -6   4   34.86    2.57
   0  -6   4   34.86    2.57
  -1   6  -4   35.55    2.34
  -1   6  -4   34.78    2.45
  -1   6  -4   35.55    2.34
  -1   6  -4   31.22    2.88
  -1   6  -4   36.76    3.02
  -1   6  -4   36.76    3.02
   1  -6   4   33.16    2.34
   1  -6   4   34.62    2.90
   1  -6   4   29.70    1.55
   1  -6   4   32.58    1.05
   1  -6   4   29.70    1.55
   1  -6   4   34.62    2.90
   1  -6   4   33.16    2.34
   1  -6   4   32.58    1.05
   1  -6   4   36.62    3.00
   1  -6   4   35.39    2.53
  -2   6  -4   26.55    2.38
  -2   6  -4   31.15    3.20
  -2   6  -4   32.40    2.72
  -2   6  -4   31.15    3.20
  -2   6  -4   28.94    3.21
  -2   6  -4   26.55    2.38
   2  -6   4   24.71    1.38
   2  -6   4   25.65    3.12
   2  -6   4   25.70    2.41
   2  -6   4   24.71    1.38
   2  -6   4   25.65    2.55
   2  -6   4   26.73    1.37
   2  -6   4   25.70    2.41
   2  -6   4   26.73    1.37
  -3   6  -4   -0.99    2.51
  -3   6  -4    1.11    1.54
  -3   6  -4    0.92    2.82
  -3   6  -4   -0.87    2.62
  -3   6  -4    3.22    2.05
  -3   6  -4    1.11    1.54
  -3   6  -4    0.92    2.82
   3  -6   4   -0.48    1.42
   3  -6   4   -0.49    2.06
   3  -6   4   -0.48    1.42
   3  -6   4   -3.67    2.82
   3  -6   4   -1.51    2.24
   3  -6   4   -0.49    2.06
   3  -6   4   -2.74    2.89
   3  -6   4   -3.67    2.82
   6   5  -4   43.81    3.36
   6   5  -4   46.37    3.83
   6   5  -4   43.81    3.36
   6   5  -4   46.04    3.66
   6   5  -4   41.93    3.06
   6   5  -4   40.16    3.10
   6   5  -4   41.92    3.06
   6   5  -4   42.02    3.41
   6   5  -4   45.69    4.94
   6   5  -4   45.69    4.94
   6   5  -4   47.53    3.90
   6   5  -4   47.53    3.90
  -6  -5   4   42.64    3.26
  -6  -5   4   49.23    2.46
  -6  -5   4   45.72    3.24
  -6  -5   4   49.23    2.46
  -6  -5   4   39.13    3.82
  -6  -5   4   46.65    4.64
  -6  -5   4   46.65    4.64
  -6  -5   4   42.64    3.26
  -6  -5   4   39.13    3.82
   5   5  -4   28.23    2.48
   5   5  -4   26.02    2.71
   5   5  -4   26.73    2.70
   5   5  -4   26.51    2.36
   5   5  -4   26.52    2.58
   5   5  -4   28.22    2.48
   5   5  -4   21.13    3.60
   5   5  -4   27.37    2.44
   5   5  -4   26.02    2.71
   5   5  -4   21.13    3.60
   5   5  -4   32.10    2.33
   5   5  -4   32.10    2.33
  -5  -5   4   24.51    2.63
  -5  -5   4   25.49    3.33
  -5  -5   4   29.57    2.56
  -5  -5   4   24.51    2.63
  -5  -5   4   26.36    1.41
  -5  -5   4   25.49    3.33
  -5  -5   4   26.37    1.41
  -5  -5   4   29.57    2.56
   4   5  -4    3.16    1.35
   4   5  -4   -1.49    1.89
   4   5  -4    2.55    1.18
   4   5  -4   -1.49    1.89
   4   5  -4    0.11    1.19
   4   5  -4    3.19    1.42
   4   5  -4    2.55    1.18
  -4  -5   4    2.52    1.51
  -4  -5   4    6.06    2.07
  -4  -5   4    3.81    1.25
  -4  -5   4    6.06    2.07
  -4  -5   4    2.52    1.51
  -4  -5   4    0.76    1.66
  -4  -5   4    3.81    1.25
   3   5  -4   71.12    2.78
   3   5  -4   74.18    2.81
   3   5  -4   75.56    3.50
   3   5  -4   81.49    2.69
   3   5  -4   75.56    3.50
   3   5  -4   81.49    2.69
   3   5  -4   74.18    2.81
  -3  -5   4   73.49    2.71
  -3  -5   4   78.47    2.75
  -3  -5   4   78.47    2.75
  -3  -5   4   75.75    2.82
  -3  -5   4   75.75    2.82
  -3  -5   4   72.41    3.43
  -3  -5   4   72.41    3.43
   2   5  -4  112.31    3.32
   2   5  -4  118.89    3.90
   2   5  -4  112.31    3.32
   2   5  -4  114.26    3.36
   2   5  -4  113.04    3.44
   2   5  -4  107.86    3.39
   2   5  -4  118.89    3.90
   2   5  -4  114.26    3.36
  -2  -5   4  119.83    3.45
  -2  -5   4  114.59    3.37
  -2  -5   4  115.73    3.99
  -2  -5   4  115.73    3.99
  -2  -5   4  119.83    3.45
  -2  -5   4  114.59    3.37
  -2  -5   4  112.30    3.52
   1   5  -4    0.38    1.03
   1   5  -4    1.03    0.84
   1   5  -4    1.03    0.84
   1   5  -4    0.71    0.97
   1   5  -4    0.71    0.97
   1   5  -4   -0.12    0.85
  -1  -5   4    1.17    0.90
  -1  -5   4    1.17    0.90
  -1  -5   4   -1.63    1.53
  -1  -5   4   -0.60    0.95
  -1  -5   4   -0.60    0.95
  -1  -5   4    0.30    1.09
  -1  -5   4    1.09    1.07
  -1  -5   4    1.09    1.07
   0   5  -4   36.85    1.92
   0   5  -4   37.43    2.27
   0   5  -4   36.85    1.92
   0   5  -4   37.43    2.27
   0   5  -4   39.98    2.05
   0   5  -4   35.93    2.32
   0  -5   4   37.63    1.82
   0  -5   4   32.89    1.98
   0  -5   4   36.18    1.95
   0  -5   4   37.63    1.82
   0  -5   4   36.18    1.95
   0  -5   4   27.88    3.25
  -1   5  -4   51.47    2.60
  -1   5  -4   53.35    2.48
  -1   5  -4   53.35    2.48
  -1   5  -4   51.55    2.92
  -1   5  -4   51.55    2.92
  -1   5  -4   54.88    3.10
   1  -5   4   53.14    1.85
   1  -5   4   49.23    2.48
   1  -5   4   52.28    2.57
   1  -5   4   49.27    2.84
   1  -5   4   52.92    3.08
   1  -5   4   49.27    2.84
   1  -5   4   51.09    1.98
   1  -5   4   49.23    2.48
   1  -5   4   51.09    1.98
   1  -5   4   53.14    1.85
  -2   5  -4   48.33    2.77
  -2   5  -4   49.79    3.45
  -2   5  -4   49.79    3.45
  -2   5  -4   56.10    3.67
  -2   5  -4   48.33    2.77
  -2   5  -4   50.22    2.98
   2  -5   4   52.47    2.99
   2  -5   4   48.10    2.81
   2  -5   4   48.10    2.81
   2  -5   4   56.10    2.22
   2  -5   4   52.41    3.61
   2  -5   4   56.10    2.22
  -3   5  -4   67.48    4.45
  -3   5  -4   58.45    4.36
  -3   5  -4   61.69    3.44
  -3   5  -4   55.12    3.51
  -3   5  -4   61.69    3.44
  -3   5  -4   67.48    4.45
  -3   5  -4   58.88    4.50
   3  -5   4   56.42    2.88
   3  -5   4   55.83    4.41
   3  -5   4   62.22    4.14
   3  -5   4   56.42    2.88
   3  -5   4   62.22    4.14
   3  -5   4   46.83    3.59
  -4   5  -4    8.31    2.71
  -4   5  -4   12.79    2.76
  -4   5  -4   13.36    3.39
  -4   5  -4   12.79    2.77
  -4   5  -4    8.31    2.71
  -4   5  -4   13.48    3.56
  -4   5  -4   12.79    2.76
   4  -5   4   11.66    3.59
   4  -5   4   10.39    2.36
   4  -5   4   14.97    3.77
   4  -5   4   11.66    3.59
   4  -5   4   11.14    2.25
   4  -5   4   10.39    2.36
   4  -5   4   12.45    2.17
   4  -5   4   12.45    2.17
   6   4  -4    5.43    2.57
   6   4  -4    6.01    3.66
   6   4  -4    6.78    1.99
   6   4  -4    6.78    1.99
   6   4  -4    9.80    2.32
   6   4  -4    6.01    3.66
   6   4  -4    5.43    2.57
   6   4  -4    5.31    2.56
   6   4  -4    5.32    2.67
  -6  -4   4    7.09    2.20
  -6  -4   4   10.35    1.77
  -6  -4   4    4.12    3.26
  -6  -4   4   10.34    1.77
  -6  -4   4    7.09    2.20
  -6  -4   4    6.94    2.33
  -6  -4   4    4.12    3.26
  -6  -4   4    3.69    2.68
  -6  -4   4    3.51    2.21
  -6  -4   4    3.51    2.21
   5   4  -4   13.01    1.72
   5   4  -4   14.03    2.56
   5   4  -4   12.59    1.69
   5   4  -4   15.54    1.79
   5   4  -4   14.03    2.56
   5   4  -4   13.02    1.87
   5   4  -4   14.58    2.19
   5   4  -4   15.54    1.79
   5   4  -4   14.63    2.28
   5   4  -4   12.60    1.69
   5   4  -4   13.14    2.46
   5   4  -4   13.14    2.46
  -5  -4   4   16.54    1.87
  -5  -4   4   11.95    1.37
  -5  -4   4   14.51    2.37
  -5  -4   4   16.54    1.87
  -5  -4   4   11.95    1.37
  -5  -4   4   14.51    2.37
  -5  -4   4   12.49    2.41
  -5  -4   4   12.49    2.41
  -5  -4   4   15.74    2.50
   4   4  -4   14.54    1.53
   4   4  -4   10.63    1.84
   4   4  -4   12.16    2.36
   4   4  -4   14.58    1.65
   4   4  -4   10.63    1.84
   4   4  -4   14.54    1.53
   4   4  -4   12.16    2.36
  -4  -4   4   13.96    1.80
  -4  -4   4   13.18    0.92
  -4  -4   4    9.85    1.39
  -4  -4   4   14.62    2.38
  -4  -4   4   13.96    1.80
  -4  -4   4   10.93    1.42
  -4  -4   4   12.07    1.85
  -4  -4   4    9.85    1.39
  -4  -4   4   14.62    2.38
  -4  -4   4   13.18    0.92
   3   4  -4  104.93    4.05
   3   4  -4  104.93    4.05
   3   4  -4  106.57    3.20
   3   4  -4   96.01    3.27
   3   4  -4  101.06    3.19
   3   4  -4  106.57    3.20
   3   4  -4   96.01    3.27
  -3  -4   4  103.76    4.88
  -3  -4   4  102.16    3.07
  -3  -4   4   96.73    3.92
  -3  -4   4   96.73    3.92
  -3  -4   4  101.42    3.30
  -3  -4   4  102.16    3.07
  -3  -4   4  101.42    3.30
   2   4  -4  194.33    4.83
   2   4  -4  194.30    5.37
   2   4  -4  191.82    4.89
   2   4  -4  196.32    4.79
   2   4  -4  194.76    4.85
   2   4  -4  196.32    4.79
   2   4  -4  194.30    5.37
   2   4  -4  194.33    4.83
  -2  -4   4  193.50    4.84
  -2  -4   4  204.97    4.90
  -2  -4   4  193.50    4.84
  -2  -4   4  203.46    4.85
  -2  -4   4  188.99    5.40
  -2  -4   4  203.46    4.85
  -2  -4   4  188.99    5.40
  -2  -4   4  181.64    4.97
   1   4  -4  116.84    3.29
   1   4  -4  109.59    3.16
   1   4  -4  109.59    3.16
   1   4  -4  115.38    3.30
   1   4  -4  113.13    3.34
   1   4  -4  116.84    3.29
  -1  -4   4  112.09    3.20
  -1  -4   4  115.95    3.28
  -1  -4   4  109.86    3.52
  -1  -4   4  106.91    3.22
  -1  -4   4  109.86    3.52
  -1  -4   4  113.83    3.33
  -1  -4   4  112.09    3.20
  -1  -4   4  115.95    3.28
   0   4  -4   78.38    2.81
   0   4  -4   72.95    2.51
   0   4  -4   84.77    2.95
   0   4  -4   73.69    2.60
   0   4  -4   78.38    2.81
   0   4  -4   72.95    2.51
   0  -4   4   79.15    2.61
   0  -4   4   78.85    2.66
   0  -4   4   79.15    2.61
   0  -4   4   76.21    2.63
   0  -4   4   78.91    2.87
   0  -4   4   77.59    2.62
   0  -4   4   78.85    2.66
   0  -4   4   77.59    2.62
  -1   4  -4  177.54    4.85
  -1   4  -4  185.31    5.32
  -1   4  -4  178.22    4.96
  -1   4  -4  189.52    5.29
  -1   4  -4  177.54    4.85
  -1   4  -4  189.52    5.29
   1  -4   4  193.63    5.24
   1  -4   4  192.39    4.95
   1  -4   4  176.66    4.95
   1  -4   4  190.23    5.35
   1  -4   4  192.39    4.95
   1  -4   4  193.63    5.24
  -2   4  -4   58.01    2.88
  -2   4  -4   58.25    3.24
  -2   4  -4   58.25    3.24
  -2   4  -4   59.07    2.80
  -2   4  -4   56.49    3.34
  -2   4  -4   59.07    2.80
   2  -4   4   55.56    2.32
   2  -4   4   55.36    3.72
   2  -4   4   57.30    2.52
   2  -4   4   55.56    2.32
   2  -4   4   53.13    3.04
   2  -4   4   57.30    2.52
   2  -4   4   53.13    3.04
   2  -4   4   56.12    2.59
  -3   4  -4   51.83    3.20
  -3   4  -4   47.66    2.98
  -3   4  -4   47.66    2.98
  -3   4  -4   51.83    3.20
  -3   4  -4   53.00    3.17
  -3   4  -4   48.64    3.73
  -3   4  -4   48.55    3.65
   3  -4   4   50.95    3.88
   3  -4   4   49.97    3.08
   3  -4   4   44.24    3.56
   3  -4   4   48.87    3.19
   3  -4   4   49.97    3.08
   3  -4   4   49.29    2.71
   3  -4   4   44.24    3.56
   3  -4   4   49.29    2.71
  -4   4  -4    7.01    2.20
  -4   4  -4    3.07    2.14
  -4   4  -4    5.41    2.28
  -4   4  -4    5.41    2.28
  -4   4  -4    7.03    2.85
  -4   4  -4    3.07    2.14
  -4   4  -4    7.25    2.72
   4  -4   4    9.20    2.89
   4  -4   4    5.02    2.24
   4  -4   4    6.70    3.07
   4  -4   4    5.71    1.77
   4  -4   4    9.20    2.89
   4  -4   4    5.71    1.77
   4  -4   4    5.02    2.24
  -5   4  -4   38.34    3.65
   5  -4   4   31.36    4.52
   6   3  -4   23.53    2.59
   6   3  -4   22.87    4.10
   6   3  -4   21.34    3.12
   6   3  -4   22.87    4.10
   6   3  -4   23.53    2.59
   6   3  -4   21.64    3.05
   6   3  -4   21.70    3.18
   6   3  -4   17.06    2.65
   6   3  -4   21.34    3.12
  -6  -3   4   26.44    3.04
  -6  -3   4   21.38    2.10
  -6  -3   4   18.42    3.51
  -6  -3   4   26.44    3.04
  -6  -3   4   22.50    3.39
  -6  -3   4   18.03    2.60
  -6  -3   4   18.42    3.51
  -6  -3   4   21.39    2.11
   5   3  -4   30.38    2.78
   5   3  -4   30.38    2.78
   5   3  -4   33.84    2.51
   5   3  -4   32.56    1.78
   5   3  -4   38.40    3.06
   5   3  -4   26.16    3.33
   5   3  -4   31.89    2.62
   5   3  -4   26.16    3.33
   5   3  -4   33.84    2.51
   5   3  -4   38.19    3.17
   5   3  -4   32.59    1.78
   5   3  -4   32.59    1.78
  -5  -3   4   35.08    2.99
  -5  -3   4   33.73    2.19
  -5  -3   4   32.74    2.51
  -5  -3   4   36.21    3.24
  -5  -3   4   33.69    2.20
  -5  -3   4   36.21    3.24
  -5  -3   4   34.00    2.58
  -5  -3   4   31.96    3.03
  -5  -3   4   32.74    2.51
  -5  -3   4   35.08    2.99
   4   3  -4    2.67    1.96
   4   3  -4    1.22    1.12
   4   3  -4    1.83    1.47
   4   3  -4    2.67    1.96
   4   3  -4    0.32    1.38
   4   3  -4    0.33    1.44
   4   3  -4    2.41    1.21
   4   3  -4    1.22    1.12
   4   3  -4    1.83    1.47
  -4  -3   4    1.30    1.44
  -4  -3   4    0.56    1.10
  -4  -3   4    2.62    1.58
  -4  -3   4    3.53    0.88
  -4  -3   4    2.52    1.18
  -4  -3   4    1.30    1.44
  -4  -3   4    3.52    0.88
  -4  -3   4    2.83    2.01
  -4  -3   4    2.83    2.01
  -4  -3   4    0.56    1.10
   3   3  -4   90.08    3.13
   3   3  -4   87.61    3.07
   3   3  -4   87.61    3.07
   3   3  -4   95.07    2.90
   3   3  -4   90.71    3.24
   3   3  -4   95.07    2.90
   3   3  -4   92.53    2.95
   3   3  -4   91.01    3.73
   3   3  -4   91.01    3.73
  -3  -3   4   87.78    3.53
  -3  -3   4   93.56    3.18
  -3  -3   4   90.96    1.99
  -3  -3   4   90.96    1.99
  -3  -3   4   91.57    2.85
  -3  -3   4   87.78    3.53
  -3  -3   4   89.61    3.24
  -3  -3   4   91.57    2.85
  -3  -3   4   93.56    3.18
  -3  -3   4   90.57    2.91
   2   3  -4  149.31    4.04
   2   3  -4  164.17    4.03
   2   3  -4  160.27    4.63
   2   3  -4  156.92    4.15
   2   3  -4  160.27    4.63
   2   3  -4  159.29    4.09
   2   3  -4  164.17    4.03
   2   3  -4  149.31    4.04
  -2  -3   4  152.75    4.07
  -2  -3   4  156.21    4.66
  -2  -3   4  158.88    3.98
  -2  -3   4  152.75    4.07
  -2  -3   4  152.04    4.14
  -2  -3   4  156.21    4.66
  -2  -3   4  154.15    4.02
  -2  -3   4  158.88    3.98
   1   3  -4   17.65    1.24
   1   3  -4   17.77    1.27
   1   3  -4   17.74    0.61
   1   3  -4   18.76    1.28
   1   3  -4   18.76    1.28
   1   3  -4   17.65    1.24
   1   3  -4   17.74    0.61
   1   3  -4   18.72    1.34
  -1  -3   4   17.38    1.26
  -1  -3   4   17.38    1.26
  -1  -3   4   17.74    1.59
  -1  -3   4   16.78    1.33
  -1  -3   4   18.21    1.24
  -1  -3   4   17.74    1.59
  -1  -3   4   18.21    1.24
  -1  -3   4   17.15    1.28
   0   3  -4  149.31    4.05
   0   3  -4  153.67    3.94
   0   3  -4  146.73    3.78
   0   3  -4  150.26    3.92
   0   3  -4  146.73    3.78
   0   3  -4  153.67    3.94
   0  -3   4  150.25    3.98
   0  -3   4  149.24    4.04
   0  -3   4  150.13    3.86
   0  -3   4  150.25    3.98
   0  -3   4  150.13    3.86
   0  -3   4  142.49    3.94
   0  -3   4  146.91    3.90
   0  -3   4  142.49    3.94
  -1   3  -4  151.71    4.40
  -1   3  -4  147.84    4.03
  -1   3  -4  147.84    4.03
  -1   3  -4  154.36    4.32
  -1   3  -4  145.71    4.13
  -1   3  -4  154.36    4.32
   1  -3   4  154.35    4.40
   1  -3   4  147.94    4.05
   1  -3   4  143.62    4.22
   1  -3   4  147.37    4.11
   1  -3   4  147.94    4.05
   1  -3   4  143.62    4.22
  -2   3  -4   35.69    2.27
  -2   3  -4   34.44    2.06
  -2   3  -4   31.28    1.93
  -2   3  -4   37.08    2.50
  -2   3  -4   37.08    2.50
  -2   3  -4   34.44    2.06
   2  -3   4   35.93    2.62
   2  -3   4   33.54    1.86
   2  -3   4   32.59    2.40
   2  -3   4   31.64    2.14
   2  -3   4   33.54    1.86
   2  -3   4   34.43    2.28
   2  -3   4   31.64    2.14
   2  -3   4   32.59    2.40
  -3   3  -4   19.77    2.39
  -3   3  -4   16.29    1.92
  -3   3  -4   15.36    1.73
  -3   3  -4   19.77    2.39
  -3   3  -4   15.36    1.73
  -3   3  -4   19.19    2.32
   3  -3   4   17.94    2.09
   3  -3   4   19.12    1.97
   3  -3   4   17.53    2.30
   3  -3   4   19.12    1.97
   3  -3   4   20.00    2.49
   3  -3   4   17.53    2.30
   3  -3   4   12.97    1.88
   3  -3   4   12.97    1.88
  -4   3  -4   42.66    3.36
  -4   3  -4   40.75    3.15
  -4   3  -4   39.69    3.63
  -4   3  -4   45.83    3.27
  -4   3  -4   45.83    3.27
  -4   3  -4   40.04    3.50
  -4   3  -4   40.75    3.15
   4  -3   4   38.00    2.99
   4  -3   4   38.86    3.06
   4  -3   4   38.00    2.99
   4  -3   4   40.00    3.15
   4  -3   4   38.86    3.06
   4  -3   4   45.46    3.63
   4  -3   4   43.99    3.71
   4  -3   4   45.46    3.63
  -5   3  -4   16.77    2.92
  -5   3  -4   10.62    2.68
  -5   3  -4   12.77    2.39
  -5   3  -4   12.96    3.63
  -5   3  -4   12.96    3.63
  -5   3  -4   10.62    2.68
  -5   3  -4   16.74    3.04
   5  -3   4   12.57    3.59
   5  -3   4    7.25    2.12
   5  -3   4   13.11    2.66
   5  -3   4   13.11    2.66
   5  -3   4    8.02    3.04
   5  -3   4   12.57    3.59
   5  -3   4   11.73    3.07
   5  -3   4   11.73    3.07
   6   2  -4   23.71    2.77
   6   2  -4   25.12    2.94
   6   2  -4   23.56    3.19
   6   2  -4   22.24    3.24
   6   2  -4   23.56    3.19
   6   2  -4   23.71    2.77
   6   2  -4   22.48    3.40
  -6  -2   4   21.90    3.64
  -6  -2   4   21.90    3.64
  -6  -2   4   17.01    3.46
  -6  -2   4   15.14    3.16
  -6  -2   4   15.14    3.16
   5   2  -4   51.20    2.98
   5   2  -4   50.70    3.12
   5   2  -4   51.43    3.42
   5   2  -4   51.20    2.98
   5   2  -4   55.28    3.44
   5   2  -4   51.43    3.42
   5   2  -4   55.00    3.55
  -5  -2   4   50.36    4.01
  -5  -2   4   53.12    3.78
  -5  -2   4   48.53    2.89
  -5  -2   4   50.36    4.01
  -5  -2   4   51.59    3.07
  -5  -2   4   48.53    2.89
   4   2  -4  244.14    6.70
   4   2  -4  254.62    7.43
   4   2  -4  256.99    6.45
   4   2  -4  256.93    6.34
   4   2  -4  243.38    6.82
   4   2  -4  254.62    7.43
   4   2  -4  244.14    6.70
   4   2  -4  244.26    6.70
   4   2  -4  256.93    6.34
  -4  -2   4  251.45    6.61
  -4  -2   4  251.45    6.61
  -4  -2   4  252.04    7.41
  -4  -2   4  257.70    6.92
  -4  -2   4  252.04    7.41
   3   2  -4   12.34    1.15
   3   2  -4   13.90    1.34
   3   2  -4   12.34    1.15
   3   2  -4   11.39    1.49
   3   2  -4   13.90    1.34
   3   2  -4   14.15    1.96
   3   2  -4   12.20    1.36
   3   2  -4   11.51    1.56
   3   2  -4   14.15    1.96
  -3  -2   4   13.50    1.37
  -3  -2   4   10.85    1.82
  -3  -2   4   12.21    1.50
  -3  -2   4   10.85    1.82
  -3  -2   4   12.21    1.50
  -3  -2   4   11.90    1.22
  -3  -2   4   11.90    1.22
  -3  -2   4   13.21    1.57
   2   2  -4  123.03    3.88
   2   2  -4  118.37    3.42
   2   2  -4  124.52    3.24
   2   2  -4  124.52    3.24
   2   2  -4  118.67    3.27
   2   2  -4  123.03    3.88
  -2  -2   4  120.01    3.21
  -2  -2   4  115.78    3.42
  -2  -2   4  116.19    3.27
  -2  -2   4  116.19    3.27
  -2  -2   4  112.68    3.86
  -2  -2   4  119.34    3.27
  -2  -2   4  120.01    3.21
  -2  -2   4  112.68    3.86
   1   2  -4   47.03    1.73
   1   2  -4   44.49    1.77
   1   2  -4   47.03    1.73
   1   2  -4   44.78    1.70
   1   2  -4   45.78    1.74
   1   2  -4   45.78    1.74
  -1  -2   4   41.47    2.10
  -1  -2   4   47.04    1.80
  -1  -2   4   44.82    1.75
  -1  -2   4   47.91    1.71
  -1  -2   4   41.47    2.10
  -1  -2   4   44.82    1.75
  -1  -2   4   48.80    1.79
  -1  -2   4   47.91    1.71
   0   2  -4  100.67    2.59
   0   2  -4  101.82    2.84
   0   2  -4  100.67    2.59
   0   2  -4  109.31    2.95
   0   2  -4  106.88    3.00
   0   2  -4   97.72    2.88
   0   2  -4  109.31    2.95
   0   2  -4  101.82    2.84
   0  -2   4  102.72    2.85
   0  -2   4  106.72    2.93
   0  -2   4  102.66    2.91
   0  -2   4   97.79    2.94
   0  -2   4  102.66    2.91
   0  -2   4  102.72    2.85
  -1   2  -4  201.33    4.98
  -1   2  -4  195.86    4.86
  -1   2  -4  184.81    4.68
  -1   2  -4  193.47    4.93
  -1   2  -4  193.47    4.93
  -1   2  -4  184.81    4.68
   1  -2   4  188.58    4.98
   1  -2   4  195.62    4.93
   1  -2   4  195.39    4.73
   1  -2   4  195.62    4.93
   1  -2   4  195.39    4.73
   1  -2   4  195.34    4.85
  -2   2  -4  114.54    3.63
  -2   2  -4  112.98    3.54
  -2   2  -4  107.91    3.81
  -2   2  -4  114.54    3.63
  -2   2  -4  122.15    3.67
  -2   2  -4  112.98    3.54
   2  -2   4  110.80    3.51
   2  -2   4  117.43    3.53
   2  -2   4  115.37    3.89
   2  -2   4  110.80    3.51
   2  -2   4  114.76    3.62
   2  -2   4  114.76    3.62
  -3   2  -4    4.58    1.37
  -3   2  -4    3.61    1.33
  -3   2  -4    0.68    1.40
  -3   2  -4    0.68    1.40
  -3   2  -4    4.41    1.50
  -3   2  -4    3.61    1.33
   3  -2   4    3.20    1.33
   3  -2   4    2.42    1.35
   3  -2   4    2.42    1.35
   3  -2   4    3.57    1.48
   3  -2   4    3.97    1.65
   3  -2   4    3.97    1.65
   3  -2   4    3.74    1.07
   3  -2   4    3.74    1.07
  -4   2  -4   68.15    4.04
  -4   2  -4   59.65    3.35
  -4   2  -4   69.10    3.45
  -4   2  -4   59.65    3.35
  -4   2  -4   66.57    3.17
  -4   2  -4   69.10    3.45
  -4   2  -4   68.96    3.92
   4  -2   4   64.89    3.42
   4  -2   4   59.72    3.34
   4  -2   4   74.02    4.12
   4  -2   4   67.88    3.58
   4  -2   4   64.89    3.42
   4  -2   4   67.88    3.58
  -5   2  -4   65.47    4.04
  -5   2  -4   70.42    4.03
  -5   2  -4   68.72    4.98
  -5   2  -4   67.41    4.17
  -5   2  -4   69.58    4.82
  -5   2  -4   70.42    4.03
  -5   2  -4   65.47    4.04
   5  -2   4   67.32    4.04
   5  -2   4   67.32    4.04
   5  -2   4   71.19    4.37
   5  -2   4   71.29    3.75
   5  -2   4   71.19    4.37
   5  -2   4   67.08    3.94
   5  -2   4   67.08    3.94
   6   1  -4   13.70    2.25
   6   1  -4   12.07    2.69
   6   1  -4   13.40    3.79
   6   1  -4   10.25    2.81
   6   1  -4   10.94    2.59
   6   1  -4   13.40    3.79
   6   1  -4   10.25    2.81
   6   1  -4   11.00    2.71
   6   1  -4   13.70    2.25
  -6  -1   4   12.31    3.40
  -6  -1   4    8.26    2.91
  -6  -1   4    7.96    3.00
  -6  -1   4    8.26    2.91
  -6  -1   4   12.31    3.40
   5   1  -4   50.30    4.32
   5   1  -4   53.15    3.48
   5   1  -4   49.95    3.30
   5   1  -4   47.11    3.13
   5   1  -4   50.54    4.18
   5   1  -4   53.15    3.48
   5   1  -4   47.11    3.13
  -5  -1   4   48.93    3.76
  -5  -1   4   56.53    3.51
  -5  -1   4   56.53    3.51
  -5  -1   4   45.28    3.38
  -5  -1   4   45.28    3.38
   4   1  -4   31.86    2.66
   4   1  -4   31.63    2.41
   4   1  -4   41.18    2.71
   4   1  -4   31.90    2.58
   4   1  -4   31.90    2.58
   4   1  -4   36.90    2.03
   4   1  -4   31.97    2.57
   4   1  -4   36.90    2.03
   4   1  -4   41.18    2.71
  -4  -1   4   36.37    3.17
  -4  -1   4   34.37    2.26
  -4  -1   4   32.98    2.67
  -4  -1   4   32.98    2.67
  -4  -1   4   34.37    2.26
  -4  -1   4   36.37    3.17
  -4  -1   4   36.41    2.86
   3   1  -4  141.43    4.44
   3   1  -4  150.20    4.88
   3   1  -4  150.20    4.88
   3   1  -4  155.29    4.14
   3   1  -4  155.29    4.14
   3   1  -4  142.13    4.35
   3   1  -4  150.47    4.22
   3   1  -4  152.47    4.39
   3   1  -4  152.47    4.39
  -3  -1   4  146.59    4.17
  -3  -1   4  141.07    4.46
  -3  -1   4  149.96    4.43
  -3  -1   4  149.96    4.43
  -3  -1   4  151.29    4.95
  -3  -1   4  151.29    4.95
   2   1  -4  144.50    3.90
   2   1  -4  151.26    3.77
   2   1  -4  151.62    3.84
   2   1  -4  145.66    3.92
   2   1  -4  149.60    4.44
   2   1  -4  147.60    4.02
   2   1  -4  144.50    3.90
   2   1  -4  151.26    3.77
   2   1  -4  149.60    4.44
  -2  -1   4  147.81    3.80
  -2  -1   4  151.31    3.89
  -2  -1   4  152.24    4.56
  -2  -1   4  146.58    3.97
  -2  -1   4  152.24    4.56
  -2  -1   4  144.70    4.05
  -2  -1   4  147.81    3.80
  -2  -1   4  146.58    3.97
   1   1  -4   10.50    0.86
   1   1  -4   11.24    1.03
   1   1  -4   13.92    1.02
   1   1  -4   10.50    0.86
   1   1  -4   13.92    1.02
   1   1  -4   12.98    0.96
  -1  -1   4   12.43    0.98
  -1  -1   4   12.27    1.33
  -1  -1   4   12.25    1.05
  -1  -1   4   12.27    1.33
  -1  -1   4   12.25    1.05
  -1  -1   4   11.38    0.82
  -1  -1   4   11.51    0.59
  -1  -1   4   11.38    0.82
  -1  -1   4   11.51    0.59
  -1  -1   4    9.70    1.03
   0   1  -4   78.23    2.02
   0   1  -4   79.53    2.27
   0   1  -4   75.90    2.22
   0   1  -4   75.88    2.33
   0   1  -4   78.23    2.02
   0   1  -4   79.53    2.27
   0   1  -4   75.88    2.32
   0   1  -4   75.90    2.22
   0  -1   4   73.36    2.29
   0  -1   4   78.52    2.36
   0  -1   4   81.07    2.25
   0  -1   4   76.49    2.21
   0  -1   4   81.07    2.25
   0  -1   4   76.49    2.21
  -1   1  -4  155.76    3.97
  -1   1  -4  154.65    4.02
  -1   1  -4  148.14    3.81
  -1   1  -4  147.86    3.82
  -1   1  -4  148.15    3.81
  -1   1  -4  155.76    3.97
  -1   1  -4  153.93    3.92
  -1   1  -4  147.86    3.82
   1  -1   4  151.72    3.89
   1  -1   4  150.98    3.83
   1  -1   4  157.62    3.97
   1  -1   4  160.47    4.06
   1  -1   4  157.62    3.97
   1  -1   4  150.98    3.83
  -2   1  -4   61.18    2.33
  -2   1  -4   59.54    2.48
  -2   1  -4   61.18    2.33
  -2   1  -4   58.01    2.29
  -2   1  -4   58.01    2.29
  -2   1  -4   60.29    2.56
  -2   1  -4   59.54    2.48
  -2   1  -4   62.70    2.42
   2  -1   4   58.30    2.28
   2  -1   4   57.32    2.32
   2  -1   4   63.51    2.49
   2  -1   4   63.51    2.49
   2  -1   4   58.30    2.28
   2  -1   4   61.14    2.60
  -3   1  -4   29.97    2.21
  -3   1  -4   28.48    2.41
  -3   1  -4   32.89    2.13
  -3   1  -4   27.24    2.30
  -3   1  -4   27.24    2.30
  -3   1  -4   32.89    2.13
   3  -1   4   33.31    2.11
   3  -1   4   29.32    2.10
   3  -1   4   33.09    2.34
   3  -1   4   29.10    2.16
   3  -1   4   27.34    1.68
   3  -1   4   33.09    2.34
   3  -1   4   27.34    1.68
   3  -1   4   33.31    2.11
  -4   1  -4  104.00    3.95
  -4   1  -4  110.00    4.18
  -4   1  -4  103.70    4.45
  -4   1  -4  103.76    4.32
  -4   1  -4  111.76    4.47
  -4   1  -4  104.00    3.95
  -4   1  -4  111.76    4.47
   4  -1   4  111.11    3.81
   4  -1   4  113.92    4.45
   4  -1   4  113.92    4.45
   4  -1   4  106.87    4.04
   4  -1   4  113.63    4.54
   4  -1   4  109.66    4.23
   4  -1   4  109.66    4.23
   4  -1   4  111.11    3.81
  -5   1  -4   26.03    3.09
  -5   1  -4   23.70    2.80
  -5   1  -4   21.80    2.90
  -5   1  -4   27.80    2.91
  -5   1  -4   23.70    2.80
  -5   1  -4   24.86    3.17
  -5   1  -4   26.03    3.09
  -5   1  -4   24.80    3.04
  -5   1  -4   21.81    2.90
   5  -1   4   23.26    2.97
   5  -1   4   24.50    3.00
   5  -1   4   20.40    3.15
   5  -1   4   23.26    2.97
   5  -1   4   20.03    2.21
   5  -1   4   24.96    3.05
   5  -1   4   20.03    2.21
   5  -1   4   24.50    3.00
  -6   1  -4   22.41    3.25
  -6   1  -4   22.96    3.51
  -6   1  -4   21.75    3.15
  -6   1  -4   21.75    3.15
  -6   1  -4   22.41    3.25
  -6   1  -4   22.96    3.51
  -6   1  -4   20.42    3.62
  -6   1  -4   23.78    3.26
  -6   1  -4   20.52    3.79
   6  -1   4   20.85    3.63
   6  -1   4   20.85    3.63
   6  -1   4   17.45    2.55
   6  -1   4   17.45    2.55
   6  -1   4   19.69    4.53
   6  -1   4   24.49    3.19
   6   0  -4    0.91    2.75
   6   0  -4   -0.95    2.49
   6   0  -4   -0.95    2.49
   6   0  -4    0.91    2.63
   6   0  -4   -5.12    2.64
   6   0  -4   -5.12    2.64
   6   0  -4   -4.13    2.45
   6   0  -4    1.96    2.42
   6   0  -4   -4.13    2.45
  -6   0   4   -2.27    2.39
  -6   0   4    3.59    2.81
  -6   0   4   -2.27    2.39
  -6   0   4   -1.74    2.97
  -6   0   4   -1.74    2.97
  -6   0   4   -0.41    2.40
  -6   0   4   -0.42    2.54
  -6   0   4   -0.88    2.67
  -6   0   4    3.59    2.81
   5   0  -4   21.56    2.82
   5   0  -4   20.32    2.52
   5   0  -4   21.56    2.82
   5   0  -4   20.32    2.52
   5   0  -4   19.35    2.86
   5   0  -4   23.31    2.66
   5   0  -4   14.36    2.16
   5   0  -4   19.18    2.73
   5   0  -4   14.36    2.16
  -5   0   4   18.15    2.08
  -5   0   4   19.63    2.54
  -5   0   4   17.34    2.54
  -5   0   4   18.15    2.08
  -5   0   4   19.31    2.40
  -5   0   4   17.65    2.77
  -5   0   4   17.34    2.54
  -5   0   4   17.65    2.77
  -5   0   4   15.49    2.82
   4   0  -4   27.37    2.17
   4   0  -4   28.80    2.00
   4   0  -4   27.37    2.17
   4   0  -4   27.23    2.75
   4   0  -4   28.80    2.00
   4   0  -4   27.23    2.75
   4   0  -4   29.00    2.44
   4   0  -4   28.09    2.24
   4   0  -4   27.86    2.31
  -4   0   4   20.88    2.50
  -4   0   4   28.25    2.25
  -4   0   4   23.56    2.08
  -4   0   4   25.89    2.36
  -4   0   4   25.89    2.36
  -4   0   4   27.42    2.50
  -4   0   4   28.25    2.25
  -4   0   4   24.02    2.20
  -4   0   4   27.42    2.50
   3   0  -4   62.51    2.80
   3   0  -4   65.80    2.61
   3   0  -4   62.51    2.80
   3   0  -4   62.89    3.17
   3   0  -4   65.80    2.61
   3   0  -4   65.23    2.94
   3   0  -4   62.89    3.17
   3   0  -4   65.43    2.86
   3   0  -4   73.43    2.79
  -3   0   4   65.81    2.45
  -3   0   4   71.60    2.93
  -3   0   4   71.60    2.93
  -3   0   4   65.81    2.45
  -3   0   4   67.46    3.04
  -3   0   4   64.76    2.99
  -3   0   4   64.76    2.99
   2   0  -4  283.33    6.38
   2   0  -4  279.19    6.45
   2   0  -4  288.05    6.92
   2   0  -4  279.35    6.55
   2   0  -4  279.35    6.55
   2   0  -4  269.99    6.57
   2   0  -4  288.05    6.92
   2   0  -4  283.33    6.38
   2   0  -4  270.43    6.49
  -2   0   4  279.07    6.35
  -2   0   4  270.57    7.00
  -2   0   4  270.57    7.00
  -2   0   4  272.40    6.55
  -2   0   4  279.07    6.35
  -2   0   4  271.95    6.38
  -2   0   4  272.40    6.55
  -2   0   4  276.45    6.64
   1   0  -4  227.81    5.17
   1   0  -4  227.85    5.35
   1   0  -4  230.86    5.25
   1   0  -4  227.81    5.17
  -1   0   4  232.21    5.27
  -1   0   4  229.54    5.20
  -1   0   4  228.90    5.29
  -1   0   4  229.54    5.20
  -1   0   4  228.90    5.29
  -1   0   4  229.82    5.68
  -1   0   4  229.82    5.68
  -1   0   4  231.05    5.35
   0   0  -4   51.65    1.54
   0   0  -4   54.44    1.79
   0   0  -4   55.20    1.70
   0   0  -4   51.86    1.66
   0   0  -4   51.65    1.54
   0   0  -4   51.86    1.66
   0   0  -4   54.75    1.80
   0   0  -4   55.20    1.70
   0   0   4   57.09    1.82
   0   0   4   54.97    1.76
   0   0   4   57.44    1.82
   0   0   4   54.97    1.76
   0   0   4   56.42    1.70
   0   0   4   57.48    1.66
   0   0   4   57.49    1.66
   0   0   4   56.42    1.70
  -1   0  -4  283.91    6.27
  -1   0  -4  283.98    6.30
  -1   0  -4  295.03    6.38
  -1   0  -4  295.03    6.38
  -1   0  -4  283.99    6.30
  -1   0  -4  283.91    6.27
  -1   0  -4  289.60    6.41
  -1   0  -4  281.03    6.32
   1   0   4  279.37    6.38
   1   0   4  293.56    6.43
   1   0   4  284.86    6.36
   1   0   4  284.86    6.36
   1   0   4  283.16    6.27
   1   0   4  283.16    6.27
   1   0   4  279.38    6.38
   1   0   4  283.22    6.30
  -2   0  -4  488.07   10.58
  -2   0  -4  472.77   10.38
  -2   0  -4  475.23   10.47
  -2   0  -4  480.48   10.52
  -2   0  -4  480.47   10.52
  -2   0  -4  482.41   10.35
  -2   0  -4  475.23   10.47
  -2   0  -4  482.41   10.35
   2   0   4  486.23   10.41
   2   0   4  483.97   10.33
   2   0   4  488.01   10.59
   2   0   4  493.17   10.51
   2   0   4  483.97   10.33
   2   0   4  493.17   10.51
  -3   0  -4    1.24    1.13
  -3   0  -4    1.82    1.01
  -3   0  -4    4.69    1.28
  -3   0  -4    2.36    1.08
  -3   0  -4    2.36    1.08
  -3   0  -4    1.83    1.01
  -3   0  -4    1.24    1.13
  -3   0  -4    2.58    1.08
   3   0   4    2.56    1.19
   3   0   4    4.65    0.96
   3   0   4    3.08    0.94
   3   0   4    3.08    0.94
   3   0   4    4.65    0.96
   3   0   4    1.78    0.96
   3   0   4    1.65    0.99
   3   0   4    2.56    1.19
  -4   0  -4    4.16    1.45
  -4   0  -4    4.95    1.74
  -4   0  -4    4.16    1.45
  -4   0  -4    4.95    1.74
  -4   0  -4    5.47    1.39
  -4   0  -4    5.47    1.39
  -4   0  -4    3.84    1.49
  -4   0  -4    6.33    1.61
  -4   0  -4    3.80    1.56
   4   0   4    7.28    1.79
   4   0   4    3.27    1.38
   4   0   4    6.28    1.80
   4   0   4    3.78    1.65
   4   0   4    7.28    1.79
   4   0   4    3.27    1.38
   4   0   4    3.78    1.65
   4   0   4    8.72    1.56
  -5   0  -4   56.54    3.31
  -5   0  -4   56.54    3.31
  -5   0  -4   55.87    4.68
  -5   0  -4   59.53    3.56
  -5   0  -4   55.87    4.68
  -5   0  -4   56.05    3.76
  -5   0  -4   57.69    3.82
  -5   0  -4   56.96    3.94
  -5   0  -4   56.01    3.76
   5   0   4   66.32    3.84
   5   0   4   56.81    3.91
   5   0   4   60.03    3.97
   5   0   4   57.01    3.25
   5   0   4   60.03    3.97
   5   0   4   57.01    3.25
   5   0   4   66.32    3.84
  -6   0  -4   33.93    3.31
  -6   0  -4   39.90    3.68
  -6   0  -4   39.90    3.67
  -6   0  -4   41.04    3.94
  -6   0  -4   33.22    3.22
  -6   0  -4   40.73    3.76
  -6   0  -4   36.86    3.53
  -6   0  -4   33.22    3.22
  -6   0  -4   33.93    3.31
   6   0   4   27.44    3.06
   6   0   4   27.44    3.06
   6   0   4   36.56    3.87
   6   0   4   36.80    3.92
   6   0   4   30.03    3.24
   6   0   4   36.56    3.87
   6  -1  -4   29.96    3.86
   6  -1  -4   23.69    3.32
   6  -1  -4   28.75    3.22
   6  -1  -4   30.12    4.02
   6  -1  -4   23.23    3.53
   6  -1  -4   19.97    3.49
   6  -1  -4   28.75    3.22
   6  -1  -4   23.23    3.53
   6  -1  -4   19.97    3.49
  -6   1   4   22.04    3.97
  -6   1   4   25.62    3.91
  -6   1   4   22.00    3.49
  -6   1   4   21.70    3.25
  -6   1   4   28.44    3.28
  -6   1   4   22.00    3.49
  -6   1   4   28.44    3.28
  -6   1   4   21.92    3.41
  -6   1   4   25.62    3.91
   5  -1  -4   32.47    2.86
   5  -1  -4   39.74    3.42
   5  -1  -4   32.47    2.86
   5  -1  -4   32.02    3.25
   5  -1  -4   32.02    3.25
   5  -1  -4   39.74    3.42
   5  -1  -4   37.33    3.39
   5  -1  -4   38.03    3.19
   5  -1  -4   37.52    3.55
  -5   1   4   31.84    3.32
  -5   1   4   34.04    3.48
  -5   1   4   34.04    3.48
  -5   1   4   35.05    3.06
  -5   1   4   35.05    3.06
  -5   1   4   32.88    2.72
  -5   1   4   30.12    3.37
  -5   1   4   31.84    3.32
  -5   1   4   32.90    2.83
   4  -1  -4   29.46    2.15
   4  -1  -4   32.62    2.72
   4  -1  -4   29.46    2.15
   4  -1  -4   33.41    2.92
   4  -1  -4   33.76    3.00
   4  -1  -4   33.72    2.84
   4  -1  -4   33.72    2.84
   4  -1  -4   33.76    3.00
   4  -1  -4   33.23    3.02
  -4   1   4   28.99    2.63
  -4   1   4   36.46    2.50
  -4   1   4   28.99    2.63
  -4   1   4   35.89    2.80
  -4   1   4   35.78    2.69
  -4   1   4   33.71    2.54
  -4   1   4   36.46    2.50
  -4   1   4   33.71    2.54
  -4   1   4   32.94    2.92
   3  -1  -4  118.14    3.81
   3  -1  -4  120.08    4.07
   3  -1  -4  129.99    4.38
   3  -1  -4  119.38    4.18
   3  -1  -4  129.99    4.38
   3  -1  -4  118.14    3.81
   3  -1  -4  118.37    3.92
   3  -1  -4  119.83    4.08
   3  -1  -4  120.08    4.07
  -3   1   4  126.67    3.89
  -3   1   4  115.62    4.06
  -3   1   4  117.95    3.79
  -3   1   4  117.95    3.79
  -3   1   4  124.35    4.23
  -3   1   4  127.08    4.27
  -3   1   4  127.83    4.02
  -3   1   4  124.35    4.23
  -3   1   4  115.62    4.06
   2  -1  -4   62.39    2.62
   2  -1  -4   62.98    2.30
   2  -1  -4   63.54    2.56
   2  -1  -4   63.54    2.56
   2  -1  -4   62.98    2.30
   2  -1  -4   62.62    2.47
   2  -1  -4   62.60    2.54
   2  -1  -4   64.10    2.27
   2  -1  -4   62.62    2.47
  -2   1   4   62.89    2.34
  -2   1   4   62.89    2.34
  -2   1   4   65.81    2.35
  -2   1   4   62.35    2.82
  -2   1   4   62.35    2.82
  -2   1   4   64.47    2.62
  -2   1   4   65.81    2.35
   1  -1  -4   38.71    1.67
   1  -1  -4   42.04    1.68
   1  -1  -4   35.04    1.47
   1  -1  -4   35.04    1.47
   1  -1  -4   40.08    1.59
   1  -1  -4   42.04    1.68
   1  -1  -4   39.19    1.74
  -1   1   4   37.80    1.42
  -1   1   4   37.50    1.62
  -1   1   4   38.82    1.49
  -1   1   4   38.71    1.68
  -1   1   4   37.50    1.62
  -1   1   4   37.89    1.98
  -1   1   4   37.80    1.42
  -1   1   4   37.89    1.98
   0  -1  -4   54.43    1.78
   0  -1  -4   56.71    1.73
   0  -1  -4   55.60    1.73
   0  -1  -4   54.36    1.68
   0  -1  -4   54.36    1.68
   0  -1  -4   55.60    1.73
   0   1   4   53.42    1.62
   0   1   4   52.75    1.65
   0   1   4   54.35    1.71
   0   1   4   53.42    1.62
   0   1   4   57.19    1.68
   0   1   4   57.18    1.67
   0   1   4   52.83    1.69
   0   1   4   52.75    1.65
  -1  -1  -4  456.80    9.46
  -1  -1  -4  459.10    9.43
  -1  -1  -4  456.80    9.46
  -1  -1  -4  451.70    9.46
  -1  -1  -4  455.46    9.56
  -1  -1  -4  459.10    9.43
  -1  -1  -4  468.16    9.53
  -1  -1  -4  455.46    9.56
   1   1   4  447.58    9.59
   1   1   4  456.94    9.48
   1   1   4  449.57    9.46
   1   1   4  447.59    9.59
   1   1   4  449.57    9.46
   1   1   4  453.40    9.42
   1   1   4  453.40    9.42
   1   1   4  452.92    9.51
  -2  -1  -4  205.36    4.88
  -2  -1  -4  199.92    4.71
  -2  -1  -4  205.36    4.88
  -2  -1  -4  199.92    4.71
  -2  -1  -4  204.96    5.01
  -2  -1  -4  211.03    4.96
  -2  -1  -4  204.97    5.01
  -2  -1  -4  198.32    4.78
   2   1   4  202.00    4.88
   2   1   4  202.00    4.88
   2   1   4  198.80    5.09
   2   1   4  200.61    4.79
   2   1   4  202.08    4.74
   2   1   4  198.81    5.09
   2   1   4  199.64    4.91
   2   1   4  202.08    4.74
  -3  -1  -4   25.74    1.65
  -3  -1  -4   29.43    1.82
  -3  -1  -4   29.43    1.82
  -3  -1  -4   23.86    1.69
  -3  -1  -4   23.86    1.69
  -3  -1  -4   27.18    1.88
  -3  -1  -4   25.74    1.65
  -3  -1  -4   29.28    1.76
   3   1   4   25.02    1.91
   3   1   4   27.01    1.81
   3   1   4   26.69    1.44
   3   1   4   25.41    1.98
   3   1   4   25.41    1.98
   3   1   4   28.00    1.75
   3   1   4   26.69    1.44
   3   1   4   27.01    1.81
  -4  -1  -4   71.27    3.29
  -4  -1  -4   82.67    3.08
  -4  -1  -4   71.27    3.30
  -4  -1  -4   72.27    3.22
  -4  -1  -4   72.46    3.31
  -4  -1  -4   82.52    3.27
  -4  -1  -4   82.67    3.08
  -4  -1  -4   76.40    3.10
  -4  -1  -4   82.52    3.27
   4   1   4   68.43    2.68
   4   1   4   67.68    3.10
   4   1   4   67.68    3.10
   4   1   4   75.47    3.39
   4   1   4   73.11    3.23
   4   1   4   68.43    2.68
   4   1   4   73.11    3.23
   4   1   4   74.61    3.04
  -5  -1  -4    2.32    1.23
  -5  -1  -4    0.95    1.79
  -5  -1  -4    2.24    2.22
  -5  -1  -4    2.24    2.22
  -5  -1  -4    2.32    1.23
  -5  -1  -4    0.73    1.71
  -5  -1  -4    3.42    1.46
  -5  -1  -4    3.42    1.46
  -5  -1  -4    0.94    1.67
   5   1   4    2.04    1.56
   5   1   4    1.27    2.21
   5   1   4    2.26    1.85
   5   1   4    1.27    2.21
   5   1   4    2.70    1.77
   5   1   4    2.04    1.56
   5   1   4    2.26    1.85
  -6  -1  -4   44.48    3.55
  -6  -1  -4   40.93    3.49
  -6  -1  -4   42.10    3.82
  -6  -1  -4   39.02    3.65
  -6  -1  -4   42.07    3.82
  -6  -1  -4   38.61    3.48
  -6  -1  -4   44.48    3.55
   6   1   4   43.15    3.89
   6   1   4   38.94    3.33
   6   1   4   47.59    3.31
   6   1   4   38.94    3.33
   6   1   4   44.84    3.51
   6   1   4   47.59    3.31
   6  -2  -4    3.61    3.39
   6  -2  -4    1.29    3.27
   6  -2  -4    3.61    3.39
   6  -2  -4    1.72    2.44
   6  -2  -4    0.10    3.87
   6  -2  -4    1.29    3.27
   6  -2  -4    0.10    3.87
   6  -2  -4   -3.53    2.97
   6  -2  -4   -3.29    3.11
  -6   2   4    4.22    3.48
  -6   2   4   -1.43    3.35
  -6   2   4    0.24    3.39
  -6   2   4    6.33    3.31
  -6   2   4   -1.43    3.35
  -6   2   4    6.65    2.86
  -6   2   4    6.33    3.31
  -6   2   4    6.70    2.99
  -6   2   4    4.22    3.48
   5  -2  -4   32.92    2.92
   5  -2  -4   31.55    3.64
   5  -2  -4   41.98    3.65
   5  -2  -4   41.39    3.93
   5  -2  -4   31.42    3.49
   5  -2  -4   34.01    3.39
   5  -2  -4   41.98    3.65
   5  -2  -4   41.39    3.93
   5  -2  -4   32.92    2.92
  -5   2   4   28.53    3.39
  -5   2   4   34.18    2.91
  -5   2   4   44.37    3.91
  -5   2   4   28.53    3.39
  -5   2   4   34.18    2.91
  -5   2   4   34.62    3.69
  -5   2   4   44.37    3.91
   4  -2  -4  217.58    6.79
   4  -2  -4  220.08    6.57
   4  -2  -4  216.61    6.61
   4  -2  -4  217.04    6.19
   4  -2  -4  217.04    6.19
   4  -2  -4  225.68    6.75
   4  -2  -4  220.08    6.57
   4  -2  -4  233.04    6.60
   4  -2  -4  225.68    6.75
  -4   2   4  214.70    6.68
  -4   2   4  227.07    6.94
  -4   2   4  221.73    6.20
  -4   2   4  214.70    6.68
  -4   2   4  221.73    6.20
  -4   2   4  223.88    6.57
  -4   2   4  223.74    6.42
  -4   2   4  227.07    6.94
  -4   2   4  220.67    6.61
   3  -2  -4   16.78    1.64
   3  -2  -4   17.65    2.02
   3  -2  -4   19.23    1.94
   3  -2  -4   20.11    2.06
   3  -2  -4   19.32    2.20
   3  -2  -4   19.22    2.10
   3  -2  -4   17.65    2.02
   3  -2  -4   16.78    1.64
   3  -2  -4   20.11    2.06
  -3   2   4   18.59    1.68
  -3   2   4   16.13    2.11
  -3   2   4   18.47    1.83
  -3   2   4   18.47    1.83
  -3   2   4   16.13    2.11
  -3   2   4   21.83    2.23
  -3   2   4   18.59    1.68
  -3   2   4   17.92    1.91
  -3   2   4   17.80    1.83
   2  -2  -4   15.09    1.54
   2  -2  -4   12.88    1.60
   2  -2  -4   12.88    1.60
   2  -2  -4   12.98    1.35
   2  -2  -4   12.44    1.57
   2  -2  -4   15.09    1.54
   2  -2  -4   13.48    1.13
   2  -2  -4   12.37    1.51
   2  -2  -4   14.51    1.33
   2  -2  -4   12.98    1.35
   2  -2  -4   13.15    1.14
   2  -2  -4   13.15    1.14
  -2   2   4   15.03    1.63
  -2   2   4   13.27    1.39
  -2   2   4   13.36    1.35
  -2   2   4   11.84    1.34
  -2   2   4   13.36    1.35
  -2   2   4   13.55    1.66
  -2   2   4   13.27    1.39
  -2   2   4   13.55    1.66
  -2   2   4   12.04    1.42
   1  -2  -4  191.36    4.81
   1  -2  -4  191.60    4.59
   1  -2  -4  193.60    4.65
   1  -2  -4  193.60    4.70
   1  -2  -4  193.60    4.70
   1  -2  -4  192.09    4.65
   1  -2  -4  191.60    4.59
   1  -2  -4  196.73    4.69
   1  -2  -4  196.72    4.69
   1  -2  -4  191.32    4.74
  -1   2   4  193.35    5.07
  -1   2   4  189.83    4.74
  -1   2   4  189.83    4.74
  -1   2   4  193.35    5.07
  -1   2   4  198.24    4.68
  -1   2   4  195.56    4.82
   0  -2  -4  108.69    2.69
   0  -2  -4  111.16    2.76
   0  -2  -4  108.69    2.69
   0  -2  -4  110.83    2.87
   0   2   4  109.75    2.80
   0   2   4  109.19    2.84
   0   2   4  108.18    2.84
   0   2   4  109.75    2.80
   0   2   4  111.16    2.78
   0   2   4  107.71    2.70
   0   2   4  108.17    2.84
   0   2   4  107.71    2.70
  -1  -2  -4  142.00    3.27
  -1  -2  -4  135.19    3.50
  -1  -2  -4  137.76    3.26
  -1  -2  -4  137.76    3.26
  -1  -2  -4  135.18    3.50
  -1  -2  -4  142.00    3.27
  -1  -2  -4  139.17    3.30
   1   2   4  144.60    3.58
   1   2   4  138.78    3.25
   1   2   4  144.60    3.58
   1   2   4  139.12    3.29
   1   2   4  137.79    3.25
   1   2   4  137.74    3.30
   1   2   4  137.79    3.25
   1   2   4  138.78    3.25
  -2  -2  -4   66.97    2.13
  -2  -2  -4   62.46    2.30
  -2  -2  -4   64.32    1.94
  -2  -2  -4   62.46    2.30
  -2  -2  -4   64.32    1.94
  -2  -2  -4   69.29    2.11
  -2  -2  -4   69.29    2.11
   2   2   4   65.30    1.93
   2   2   4   66.35    2.05
   2   2   4   65.30    1.93
   2   2   4   66.35    2.05
   2   2   4   66.15    2.43
   2   2   4   66.13    2.43
   2   2   4   67.30    2.10
   2   2   4   65.75    1.99
  -3  -2  -4   12.59    1.24
  -3  -2  -4   11.15    1.13
  -3  -2  -4   12.59    1.24
  -3  -2  -4   13.26    1.50
  -3  -2  -4   12.74    1.18
  -3  -2  -4   13.33    1.34
  -3  -2  -4   13.26    1.50
  -3  -2  -4   11.15    1.13
   3   2   4    9.92    1.06
   3   2   4   13.11    1.27
   3   2   4   13.11    1.27
   3   2   4   15.14    1.27
   3   2   4   12.18    1.39
   3   2   4    9.92    1.06
   3   2   4   11.91    1.27
   3   2   4   12.17    1.39
   3   2   4   15.54    1.65
   3   2   4   15.54    1.65
  -4  -2  -4   34.94    2.06
  -4  -2  -4   41.70    2.41
  -4  -2  -4   36.54    2.16
  -4  -2  -4   38.46    2.32
  -4  -2  -4   36.54    2.16
  -4  -2  -4   39.19    2.19
  -4  -2  -4   34.94    2.06
  -4  -2  -4   38.46    2.32
  -4  -2  -4   41.07    2.35
   4   2   4   33.95    2.64
   4   2   4   40.41    2.39
   4   2   4   38.97    2.02
   4   2   4   40.41    2.39
   4   2   4   38.97    2.02
   4   2   4   37.50    2.40
   4   2   4   33.95    2.64
   4   2   4   39.59    2.23
  -5  -2  -4  285.61    8.82
  -5  -2  -4  314.87    7.78
  -5  -2  -4  318.10    7.88
  -5  -2  -4  317.61    8.18
  -5  -2  -4  314.75    8.06
  -5  -2  -4  285.52    8.81
  -5  -2  -4  318.43    8.04
  -5  -2  -4  314.87    7.78
  -5  -2  -4  314.75    8.06
   5   2   4  298.70    8.55
   5   2   4  323.36    8.72
   5   2   4  310.16    8.23
   5   2   4  327.45    8.13
   5   2   4  274.59    8.13
   5   2   4  327.45    8.13
   5   2   4  274.59    8.13
   5   2   4  323.36    8.72
  -6  -2  -4    2.30    2.02
  -6  -2  -4    5.03    1.73
  -6  -2  -4    2.76    2.36
  -6  -2  -4    5.03    1.73
  -6  -2  -4    1.60    1.63
  -6  -2  -4    5.67    2.43
  -6  -2  -4    5.67    2.43
  -6  -2  -4    2.97    1.91
  -6  -2  -4    2.97    1.91
  -6  -2  -4    2.73    2.25
   6   2   4    3.93    2.46
   6   2   4    1.32    1.96
   6   2   4    5.68    2.33
   6   2   4    3.04    1.93
   6   2   4    5.68    2.33
   6   2   4    3.04    1.93
  -7  -2  -4    1.37    3.29
  -7  -2  -4    1.38    3.44
  -7  -2  -4    4.53    2.53
  -7  -2  -4    4.52    2.54
  -7  -2  -4    4.52    2.88
   7   2   4    7.04    3.57
   7   2   4    2.63    2.72
   7   2   4    5.15    4.15
   7   2   4    5.15    4.15
   5  -3  -4   26.49    3.43
   5  -3  -4   28.74    2.96
   5  -3  -4   28.74    2.96
   5  -3  -4   31.48    3.83
   5  -3  -4   29.43    3.69
   5  -3  -4   30.29    3.87
   5  -3  -4   28.45    3.45
   5  -3  -4   31.48    3.83
   5  -3  -4   26.49    3.43
  -5   3   4   21.47    2.92
  -5   3   4   27.93    3.35
  -5   3   4   32.23    3.37
  -5   3   4   32.23    3.37
  -5   3   4   23.53    3.58
  -5   3   4   27.62    3.19
  -5   3   4   25.49    3.40
  -5   3   4   25.49    3.40
  -5   3   4   21.47    2.92
   4  -3  -4   69.79    3.54
   4  -3  -4   73.80    3.98
   4  -3  -4   73.12    4.13
   4  -3  -4   69.81    3.75
   4  -3  -4   69.81    3.75
   4  -3  -4   69.79    3.54
   4  -3  -4   73.80    3.98
   4  -3  -4   68.05    4.02
   4  -3  -4   72.96    4.27
  -4   3   4   70.26    3.99
  -4   3   4   72.45    4.27
  -4   3   4   70.26    3.99
  -4   3   4   71.46    4.03
  -4   3   4   74.84    4.01
  -4   3   4   74.59    3.86
  -4   3   4   72.43    3.37
  -4   3   4   72.43    3.37
  -4   3   4   71.46    4.03
   3  -3  -4   21.65    3.41
   3  -3  -4   19.07    2.26
   3  -3  -4   20.61    2.22
   3  -3  -4   21.33    2.25
   3  -3  -4   21.57    2.37
   3  -3  -4   19.88    2.03
   3  -3  -4   21.65    3.41
   3  -3  -4   20.61    2.22
   3  -3  -4   19.07    2.26
  -3   3   4   21.71    2.29
  -3   3   4   18.82    2.01
  -3   3   4   18.82    2.01
  -3   3   4   20.04    2.22
  -3   3   4   18.98    1.99
  -3   3   4   19.20    2.09
  -3   3   4   21.71    2.29
  -3   3   4   23.87    2.11
  -3   3   4   23.87    2.11
   2  -3  -4    4.70    1.39
   2  -3  -4    7.51    1.42
   2  -3  -4    4.40    1.17
   2  -3  -4    4.40    1.17
   2  -3  -4    7.27    1.26
   2  -3  -4    4.68    1.33
   2  -3  -4    4.68    1.27
   2  -3  -4    7.51    1.42
   2  -3  -4    4.68    1.27
  -2   3   4    4.90    1.32
  -2   3   4    4.99    1.23
  -2   3   4    4.99    1.23
  -2   3   4    4.90    1.32
  -2   3   4    5.41    1.17
  -2   3   4    5.26    1.37
  -2   3   4    5.45    1.23
  -2   3   4    4.02    1.35
  -2   3   4    4.02    1.35
   1  -3  -4  226.32    5.32
   1  -3  -4  221.95    5.52
   1  -3  -4  220.79    5.25
   1  -3  -4  218.54    5.41
   1  -3  -4  221.75    5.43
   1  -3  -4  214.19    5.41
   1  -3  -4  220.79    5.25
   1  -3  -4  214.19    5.41
   1  -3  -4  218.68    5.42
   1  -3  -4  218.74    5.42
  -1   3   4  223.24    5.64
  -1   3   4  231.01    5.32
  -1   3   4  229.40    5.29
  -1   3   4  223.24    5.64
  -1   3   4  215.87    5.41
  -1   3   4  229.40    5.29
  -1   3   4  215.87    5.41
  -1   3   4  221.16    5.51
  -1   3   4  234.03    5.43
   0  -3  -4  268.96    5.77
   0  -3  -4  262.93    5.72
   0  -3  -4  261.57    5.84
   0  -3  -4  269.51    6.35
   0  -3  -4  261.57    5.84
   0  -3  -4  262.93    5.72
   0  -3  -4  266.86    6.32
   0  -3  -4  269.51    6.35
   0   3   4  256.53    5.84
   0   3   4  256.53    5.84
   0   3   4  263.66    5.72
   0   3   4  264.01    5.79
   0   3   4  258.03    5.88
   0   3   4  263.66    5.72
  -1  -3  -4  332.78    6.95
  -1  -3  -4  334.91    6.92
  -1  -3  -4  332.78    6.95
  -1  -3  -4  325.08    6.94
  -1  -3  -4  334.23    7.71
  -1  -3  -4  340.57    7.81
  -1  -3  -4  340.58    7.81
  -1  -3  -4  334.47    6.99
  -1  -3  -4  334.91    6.92
   1   3   4  320.98    6.97
   1   3   4  332.00    6.92
   1   3   4  324.41    6.95
   1   3   4  332.56    6.96
   1   3   4  332.00    6.92
   1   3   4  332.56    6.96
   1   3   4  341.11    7.40
   1   3   4  341.11    7.40
  -2  -3  -4   32.65    1.72
  -2  -3  -4   31.28    2.04
  -2  -3  -4   32.95    1.33
  -2  -3  -4   31.32    2.03
  -2  -3  -4   31.82    1.15
  -2  -3  -4   33.46    2.04
  -2  -3  -4   33.39    1.29
  -2  -3  -4   33.39    1.29
  -2  -3  -4   31.82    1.15
  -2  -3  -4   31.96    1.20
  -2  -3  -4   32.65    1.72
   2   3   4   31.17    1.20
   2   3   4   32.65    1.24
   2   3   4   33.00    1.18
   2   3   4   32.65    1.24
   2   3   4   31.86    1.34
   2   3   4   32.08    1.74
   2   3   4   32.08    1.74
   2   3   4   33.00    1.18
  -3  -3  -4   27.84    1.30
  -3  -3  -4   29.18    1.81
  -3  -3  -4   27.56    1.42
  -3  -3  -4   28.07    1.59
  -3  -3  -4   30.38    1.51
  -3  -3  -4   25.42    1.88
  -3  -3  -4   27.56    1.42
  -3  -3  -4   28.56    2.05
  -3  -3  -4   28.56    2.05
  -3  -3  -4   30.38    1.51
  -3  -3  -4   25.42    1.88
   3   3   4   31.40    1.62
   3   3   4   27.79    2.07
   3   3   4   30.56    1.34
   3   3   4   27.79    2.07
   3   3   4   30.56    1.34
   3   3   4   23.40    1.59
   3   3   4   28.36    2.01
   3   3   4   28.84    1.46
   3   3   4   31.40    1.62
   3   3   4   28.36    2.01
  -4  -3  -4   72.51    2.61
  -4  -3  -4   72.51    2.61
  -4  -3  -4   77.04    3.18
  -4  -3  -4   75.47    2.94
  -4  -3  -4   78.69    3.24
  -4  -3  -4   78.54    3.02
  -4  -3  -4   76.82    2.86
  -4  -3  -4   76.82    2.86
  -4  -3  -4   75.47    2.94
  -4  -3  -4   78.69    3.24
  -4  -3  -4   78.54    2.92
   4   3   4   76.44    3.09
   4   3   4   77.01    2.76
   4   3   4   78.37    3.00
   4   3   4   79.55    2.70
   4   3   4   78.37    3.00
   4   3   4   68.97    3.16
   4   3   4   68.97    3.16
   4   3   4   79.55    2.70
  -5  -3  -4   75.25    5.70
  -5  -3  -4   75.29    5.69
  -5  -3  -4   81.08    3.44
  -5  -3  -4   89.53    3.32
  -5  -3  -4   91.52    3.61
  -5  -3  -4   86.16    4.95
  -5  -3  -4   89.38    3.63
  -5  -3  -4   89.38    3.63
  -5  -3  -4   91.52    3.61
  -5  -3  -4   89.53    3.32
  -5  -3  -4   80.87    3.54
  -5  -3  -4   79.60    3.48
   5   3   4   83.64    4.37
   5   3   4   88.63    3.27
   5   3   4   83.96    3.48
   5   3   4   88.63    3.27
   5   3   4   87.35    3.54
   5   3   4   83.64    4.37
   5   3   4   87.35    3.54
   5   3   4   88.31    3.70
  -6  -3  -4   18.76    2.22
  -6  -3  -4   18.76    2.22
  -6  -3  -4   12.69    2.23
  -6  -3  -4   12.69    2.22
  -6  -3  -4   20.68    2.76
  -6  -3  -4   15.48    2.31
  -6  -3  -4   15.71    2.29
  -6  -3  -4   20.69    2.77
   6   3   4   17.69    2.33
   6   3   4   14.95    2.44
   6   3   4   20.16    2.66
   6   3   4   20.25    2.27
   6   3   4   14.95    2.44
   6   3   4   20.25    2.27
  -7  -3  -4   14.87    3.10
  -7  -3  -4    5.75    3.13
  -7  -3  -4    5.75    3.13
  -7  -3  -4   15.11    3.22
  -7  -3  -4   15.11    3.23
  -7  -3  -4   18.10    2.86
  -7  -3  -4   10.84    2.40
  -7  -3  -4   14.87    3.23
  -7  -3  -4   12.53    2.78
  -7  -3  -4   18.10    2.86
  -7  -3  -4   13.05    2.39
  -7  -3  -4   10.84    2.40
   7   3   4   10.67    3.07
   7   3   4   12.30    2.59
   7   3   4   12.30    2.59
   7   3   4   15.65    4.43
   7   3   4   11.56    3.43
   7   3   4   10.67    3.07
   7   3   4   15.65    4.43
   7   3   4   11.40    2.66
   5  -4  -4   19.53    3.83
   5  -4  -4   21.56    3.86
   5  -4  -4   22.16    2.98
   5  -4  -4   21.48    3.71
   5  -4  -4   22.16    2.98
   5  -4  -4   21.79    3.55
   5  -4  -4   19.53    3.83
   5  -4  -4   20.45    3.44
   5  -4  -4   21.79    3.55
  -5   4   4   13.95    2.81
  -5   4   4   18.82    3.42
  -5   4   4   14.22    3.15
  -5   4   4   18.82    3.42
  -5   4   4   17.46    3.38
  -5   4   4   17.46    3.38
  -5   4   4   14.12    3.01
  -5   4   4   13.95    2.81
  -5   4   4   20.41    3.71
   4  -4  -4   68.94    4.32
   4  -4  -4   60.12    3.94
   4  -4  -4   56.80    4.13
   4  -4  -4   54.97    4.22
   4  -4  -4   60.51    3.35
   4  -4  -4   68.94    4.32
   4  -4  -4   55.31    4.37
   4  -4  -4   56.80    4.13
   4  -4  -4   60.51    3.35
  -4   4   4   63.74    3.85
  -4   4   4   67.09    4.16
  -4   4   4   53.75    3.78
  -4   4   4   63.74    3.85
  -4   4   4   53.75    3.78
  -4   4   4   67.09    4.16
  -4   4   4   64.36    4.30
  -4   4   4   65.07    4.14
  -4   4   4   65.19    4.00
   3  -4  -4    7.68    1.84
   3  -4  -4    8.00    1.55
   3  -4  -4    9.72    2.12
   3  -4  -4    8.16    1.82
   3  -4  -4    7.55    1.88
   3  -4  -4    7.68    1.84
   3  -4  -4    9.77    2.22
   3  -4  -4    8.00    1.55
   3  -4  -4    7.55    1.88
  -3   4   4    7.19    1.77
  -3   4   4    6.00    2.07
  -3   4   4    9.52    1.40
  -3   4   4    6.73    1.99
  -3   4   4    7.19    1.77
  -3   4   4   11.88    1.49
  -3   4   4    9.36    1.83
  -3   4   4    6.77    1.76
  -3   4   4   11.88    1.49
  -3   4   4    6.81    1.84
  -3   4   4    6.73    1.99
  -3   4   4    9.36    1.83
   2  -4  -4   48.45    2.64
   2  -4  -4   47.18    2.51
   2  -4  -4   48.64    2.74
   2  -4  -4   47.23    2.21
   2  -4  -4   47.23    2.21
   2  -4  -4   49.07    2.70
   2  -4  -4   49.07    2.70
  -2   4   4   49.61    2.68
  -2   4   4   48.96    2.52
  -2   4   4   53.22    2.51
  -2   4   4   43.77    2.55
  -2   4   4   53.22    2.51
  -2   4   4   46.44    2.60
  -2   4   4   46.44    2.60
  -2   4   4   48.50    2.39
  -2   4   4   43.77    2.55
  -2   4   4   48.50    2.39
  -2   4   4   48.93    2.24
  -2   4   4   49.13    2.61
   1  -4  -4   92.41    2.90
   1  -4  -4   93.13    2.85
   1  -4  -4   87.25    3.04
   1  -4  -4   89.43    3.04
   1  -4  -4   87.07    3.12
   1  -4  -4   93.13    2.85
   1  -4  -4   89.43    3.04
  -1   4   4   89.68    3.17
  -1   4   4   95.81    2.87
  -1   4   4   87.74    3.03
  -1   4   4   84.58    3.05
  -1   4   4   87.74    3.03
  -1   4   4   86.20    3.12
  -1   4   4   96.15    2.98
  -1   4   4   84.58    3.05
  -1   4   4   95.94    2.90
  -1   4   4   91.83    3.08
  -1   4   4   86.20    3.12
  -1   4   4   95.81    2.87
   0  -4  -4  125.47    3.29
   0  -4  -4  128.46    3.16
   0  -4  -4  126.33    3.73
   0  -4  -4  127.97    3.37
   0  -4  -4  128.46    3.16
   0  -4  -4  125.44    3.35
   0  -4  -4  119.86    3.71
   0  -4  -4  125.82    3.18
   0  -4  -4  119.87    3.70
   0  -4  -4  127.97    3.37
   0   4   4  133.52    3.90
   0   4   4  121.61    3.39
   0   4   4  126.10    3.33
   0   4   4  133.51    3.91
   0   4   4  126.83    3.82
   0   4   4  126.10    3.33
  -1  -4  -4   -1.32    0.92
  -1  -4  -4   -0.16    0.41
  -1  -4  -4    0.02    0.38
  -1  -4  -4   -1.32    0.92
  -1  -4  -4    0.02    0.38
  -1  -4  -4    1.66    1.03
  -1  -4  -4   -0.16    0.43
  -1  -4  -4    0.76    0.41
   1   4   4    0.45    0.42
   1   4   4   -0.27    0.45
   1   4   4    0.73    0.42
   1   4   4    0.55    0.56
   1   4   4    0.55    0.56
   1   4   4   -0.27    0.45
   1   4   4    0.62    0.50
   1   4   4    0.73    0.42
  -2  -4  -4  633.77   13.54
  -2  -4  -4  625.49   12.33
  -2  -4  -4  600.63   12.33
  -2  -4  -4  627.35   13.55
  -2  -4  -4  627.37   13.55
  -2  -4  -4  625.49   12.33
  -2  -4  -4  607.80   13.01
  -2  -4  -4  595.91   12.26
  -2  -4  -4  607.88   13.01
   2   4   4  607.98   12.29
   2   4   4  604.12   12.31
   2   4   4  610.89   12.25
   2   4   4  620.61   13.05
   2   4   4  604.12   12.31
   2   4   4  610.89   12.25
   2   4   4  611.91   12.36
   2   4   4  620.62   13.05
  -3  -4  -4    5.69    1.47
  -3  -4  -4    4.63    0.83
  -3  -4  -4    4.42    0.79
  -3  -4  -4    7.37    1.26
  -3  -4  -4    4.63    0.83
  -3  -4  -4    4.77    0.64
  -3  -4  -4    5.69    1.47
  -3  -4  -4    5.33    0.70
  -3  -4  -4    4.51    0.82
  -3  -4  -4    7.37    1.27
  -3  -4  -4    6.47    1.51
  -3  -4  -4    5.33    0.70
   3   4   4    5.85    1.39
   3   4   4    5.01    0.86
   3   4   4    6.88    0.87
   3   4   4    5.61    0.67
   3   4   4    3.74    1.26
   3   4   4    4.59    0.68
   3   4   4    3.74    1.26
   3   4   4    5.85    1.39
   3   4   4    6.88    0.87
   3   4   4    5.61    0.67
  -4  -4  -4   28.12    2.43
  -4  -4  -4   30.82    1.64
  -4  -4  -4   30.43    1.94
  -4  -4  -4   30.36    1.67
  -4  -4  -4   30.43    1.94
  -4  -4  -4   30.87    1.96
  -4  -4  -4   25.17    2.15
  -4  -4  -4   30.36    1.67
  -4  -4  -4   28.11    2.43
  -4  -4  -4   30.92    1.89
  -4  -4  -4   25.17    2.15
  -4  -4  -4   30.24    2.45
   4   4   4   30.11    1.90
   4   4   4   27.16    2.00
   4   4   4   30.47    2.16
   4   4   4   31.77    2.68
   4   4   4   32.20    1.62
   4   4   4   32.20    1.62
   4   4   4   31.77    2.68
   4   4   4   31.18    1.70
   4   4   4   30.47    2.16
   4   4   4   30.11    1.90
  -5  -4  -4   30.23    2.19
  -5  -4  -4   32.64    2.40
  -5  -4  -4   30.23    2.19
  -5  -4  -4   33.69    2.35
  -5  -4  -4   33.69    2.35
  -5  -4  -4   30.15    2.67
  -5  -4  -4   29.84    2.70
  -5  -4  -4   32.55    2.49
  -5  -4  -4   28.78    2.52
  -5  -4  -4   28.78    2.52
  -5  -4  -4   34.44    2.19
  -5  -4  -4   30.15    2.67
   5   4   4   28.01    2.45
   5   4   4   29.15    2.20
   5   4   4   31.48    3.16
   5   4   4   30.36    2.11
   5   4   4   25.49    2.27
   5   4   4   31.48    3.16
   5   4   4   28.01    2.45
   5   4   4   30.36    2.11
  -6  -4  -4   11.89    1.94
  -6  -4  -4   13.11    1.99
  -6  -4  -4   13.53    2.58
  -6  -4  -4   14.68    2.28
  -6  -4  -4   13.53    2.59
  -6  -4  -4   12.75    2.26
  -6  -4  -4   15.14    2.56
  -6  -4  -4   12.75    2.27
  -6  -4  -4   13.11    1.99
  -6  -4  -4   15.14    2.56
   6   4   4   15.02    2.04
   6   4   4   14.37    2.22
   6   4   4   14.12    2.07
   6   4   4   14.12    2.07
   6   4   4   11.68    2.44
   6   4   4   14.37    2.22
  -7  -4  -4    7.94    2.99
  -7  -4  -4    7.91    2.86
  -7  -4  -4    8.17    2.41
  -7  -4  -4    7.85    2.45
  -7  -4  -4    8.44    2.32
  -7  -4  -4    4.99    2.36
  -7  -4  -4    7.85    2.45
  -7  -4  -4    7.04    3.22
  -7  -4  -4    8.17    2.41
  -7  -4  -4    4.99    2.36
  -7  -4  -4    7.04    3.22
   7   4   4    8.01    2.37
   7   4   4    3.63    2.25
   7   4   4    6.00    2.62
   7   4   4    5.19    2.66
   7   4   4    6.00    2.62
   7   4   4    0.56    3.71
   7   4   4    3.63    2.25
   7   4   4    0.56    3.71
   4  -5  -4   45.75    4.01
   4  -5  -4   39.10    3.87
   4  -5  -4   47.17    4.05
   4  -5  -4   47.17    4.05
   4  -5  -4   38.53    3.66
   4  -5  -4   39.49    3.72
   4  -5  -4   45.75    4.01
  -4   5   4   41.32    3.83
  -4   5   4   45.13    3.95
  -4   5   4   38.19    3.11
  -4   5   4   38.87    3.53
  -4   5   4   41.32    3.83
  -4   5   4   44.30    3.88
  -4   5   4   44.07    4.01
  -4   5   4   38.87    3.53
  -4   5   4   38.19    3.11
   3  -5  -4   30.14    2.83
   3  -5  -4   33.42    2.99
   3  -5  -4   35.58    3.16
   3  -5  -4   34.03    3.13
   3  -5  -4   30.14    2.83
  -3   5   4   32.86    2.97
  -3   5   4   36.25    3.23
  -3   5   4   32.86    2.97
  -3   5   4   33.24    2.57
  -3   5   4   39.32    3.15
  -3   5   4   37.06    2.81
  -3   5   4   34.87    2.79
  -3   5   4   36.17    2.66
  -3   5   4   37.06    2.81
  -3   5   4   36.17    2.66
  -3   5   4   39.11    3.26
  -3   5   4   34.87    2.79
   2  -5  -4  119.69    3.83
   2  -5  -4  120.75    4.10
   2  -5  -4  119.69    3.83
   2  -5  -4  123.42    4.32
   2  -5  -4  118.88    4.26
   2  -5  -4  118.88    4.26
   2  -5  -4  123.17    4.43
  -2   5   4  121.32    4.03
  -2   5   4  119.56    3.99
  -2   5   4  119.82    4.27
  -2   5   4  121.32    4.03
  -2   5   4  114.83    3.97
  -2   5   4  116.82    4.41
  -2   5   4  119.82    4.27
  -2   5   4  120.60    4.08
  -2   5   4  121.69    3.98
  -2   5   4  114.83    3.97
  -2   5   4  119.56    3.99
  -2   5   4  120.28    4.19
   1  -5  -4   34.54    2.10
   1  -5  -4   27.90    1.93
   1  -5  -4   30.62    1.99
   1  -5  -4   34.54    2.10
   1  -5  -4   30.62    1.99
  -1   5   4   28.55    1.95
  -1   5   4   31.77    2.27
  -1   5   4   28.55    1.95
  -1   5   4   29.00    1.82
  -1   5   4   28.16    2.21
  -1   5   4   28.50    2.14
  -1   5   4   31.77    2.28
  -1   5   4   29.51    2.14
  -1   5   4   29.07    1.89
  -1   5   4   28.51    1.79
  -1   5   4   28.51    1.79
  -1   5   4   29.51    2.14
   0  -5  -4   28.28    1.63
   0  -5  -4   31.02    1.47
   0  -5  -4   26.50    1.87
   0  -5  -4   28.29    1.88
   0  -5  -4   30.61    1.71
   0  -5  -4   28.26    1.69
   0  -5  -4   30.61    1.71
   0  -5  -4   26.50    1.86
   0  -5  -4   31.02    1.47
   0  -5  -4   29.20    1.44
   0   5   4   28.72    1.72
   0   5   4   33.74    2.27
   0   5   4   28.08    1.69
   0   5   4   33.73    2.27
   0   5   4   28.08    1.69
   0   5   4   31.69    2.26
  -1  -5  -4   13.09    1.69
  -1  -5  -4   14.76    0.99
  -1  -5  -4   14.00    0.78
  -1  -5  -4   14.16    0.82
  -1  -5  -4   14.67    1.02
  -1  -5  -4   13.09    1.69
  -1  -5  -4   16.68    1.82
  -1  -5  -4   14.16    0.82
   1   5   4   17.44    1.65
   1   5   4   14.11    1.07
   1   5   4   12.68    1.04
   1   5   4   14.52    0.79
   1   5   4   14.81    0.87
   1   5   4   14.52    0.79
   1   5   4   15.80    1.64
   1   5   4   13.37    1.36
   1   5   4   13.37    1.36
   1   5   4   12.68    1.04
   1   5   4   15.80    1.64
  -2  -5  -4   94.92    2.15
  -2  -5  -4   89.28    2.07
  -2  -5  -4   86.51    3.55
  -2  -5  -4   94.92    2.15
  -2  -5  -4   89.19    2.09
  -2  -5  -4   94.68    3.63
  -2  -5  -4   89.32    2.09
  -2  -5  -4   86.50    3.55
   2   5   4   92.16    2.11
   2   5   4   96.82    3.57
   2   5   4   94.22    2.97
   2   5   4   88.71    2.09
   2   5   4   94.22    2.97
   2   5   4   93.79    3.59
   2   5   4   91.55    2.17
   2   5   4   88.71    2.09
   2   5   4   91.67    2.16
   2   5   4   92.16    2.11
   2   5   4   93.78    3.60
  -3  -5  -4  116.36    4.16
  -3  -5  -4  113.32    4.14
  -3  -5  -4  117.33    2.69
  -3  -5  -4  117.72    2.90
  -3  -5  -4  115.59    3.69
  -3  -5  -4  113.33    4.14
  -3  -5  -4  120.08    2.81
  -3  -5  -4  116.29    2.66
  -3  -5  -4  119.84    2.85
  -3  -5  -4  117.72    2.90
  -3  -5  -4  115.56    3.68
  -3  -5  -4  117.33    2.69
   3   5   4  119.85    2.67
   3   5   4  119.85    2.67
   3   5   4  115.01    2.95
   3   5   4  124.08    4.04
   3   5   4  124.08    4.04
   3   5   4  115.41    3.80
   3   5   4  116.45    2.75
   3   5   4  120.63    2.86
   3   5   4  115.40    3.81
   3   5   4  120.63    2.86
  -4  -5  -4   61.02    3.13
  -4  -5  -4   53.03    2.15
  -4  -5  -4   53.11    2.07
  -4  -5  -4   53.03    2.15
  -4  -5  -4   54.66    2.72
  -4  -5  -4   54.66    2.71
  -4  -5  -4   57.78    3.08
  -4  -5  -4   52.80    2.13
  -4  -5  -4   52.19    1.83
  -4  -5  -4   61.03    3.13
   4   5   4   51.60    2.23
   4   5   4   52.18    2.98
   4   5   4   52.30    1.90
   4   5   4   55.87    1.82
   4   5   4   52.18    2.98
   4   5   4   55.87    1.82
   4   5   4   52.50    2.14
   4   5   4   52.50    2.14
  -5  -5  -4    6.42    1.47
  -5  -5  -4    8.26    1.58
  -5  -5  -4    6.30    2.14
  -5  -5  -4    8.26    1.58
  -5  -5  -4    8.42    1.94
  -5  -5  -4    6.42    1.41
  -5  -5  -4    4.77    1.90
  -5  -5  -4    5.76    1.24
  -5  -5  -4    7.36    1.20
  -5  -5  -4    4.77    1.90
  -5  -5  -4    6.30    2.14
  -5  -5  -4    5.76    1.24
   5   5   4    5.57    1.23
   5   5   4    3.35    2.33
   5   5   4    7.01    1.23
   5   5   4    3.35    2.33
   5   5   4    7.01    1.23
   5   5   4    7.41    1.62
   5   5   4    5.35    1.45
   5   5   4    5.35    1.45
  -6  -5  -4   25.66    2.65
  -6  -5  -4   20.35    2.48
  -6  -5  -4   24.96    2.74
  -6  -5  -4   25.65    2.65
  -6  -5  -4   21.20    2.04
  -6  -5  -4   24.72    2.22
  -6  -5  -4   25.11    2.58
  -6  -5  -4   24.72    2.22
  -6  -5  -4   25.11    2.58
  -6  -5  -4   24.98    2.75
   6   5   4   20.60    2.01
   6   5   4   20.72    2.30
   6   5   4   22.05    2.56
   6   5   4   20.72    2.30
   6   5   4   23.65    2.18
   6   5   4   20.60    2.01
  -7  -5  -4   16.59    3.12
  -7  -5  -4   21.45    3.03
  -7  -5  -4   17.66    3.08
  -7  -5  -4   13.64    2.75
  -7  -5  -4   21.46    3.04
  -7  -5  -4   14.15    2.80
  -7  -5  -4   13.70    2.43
  -7  -5  -4   14.15    2.80
  -7  -5  -4   14.45    2.51
  -7  -5  -4   16.58    3.12
  -7  -5  -4   14.45    2.51
  -7  -5  -4   17.57    2.95
   7   5   4   12.11    4.37
   7   5   4   15.29    3.07
   7   5   4   12.88    2.54
   7   5   4   15.29    3.07
   7   5   4   12.11    4.37
   7   5   4   12.88    2.54
   7   5   4   16.92    2.54
   7   5   4   16.97    3.00
   4  -6  -4    8.46    3.01
   4  -6  -4    8.15    2.94
   4  -6  -4   15.16    3.42
   4  -6  -4   11.17    3.45
   4  -6  -4   10.58    3.34
   4  -6  -4    8.15    2.94
   4  -6  -4    8.46    3.01
  -4   6   4    9.11    3.05
  -4   6   4   13.93    3.25
  -4   6   4    9.11    3.05
  -4   6   4   10.28    2.83
  -4   6   4   14.78    3.13
  -4   6   4    6.14    2.36
  -4   6   4   13.90    3.12
  -4   6   4   14.78    3.13
  -4   6   4   10.28    2.83
  -4   6   4    9.65    2.35
  -4   6   4   14.80    3.39
  -4   6   4    6.15    2.37
   3  -6  -4   49.62    4.39
   3  -6  -4   49.25    4.24
   3  -6  -4   56.07    3.77
   3  -6  -4   56.07    3.77
   3  -6  -4   60.15    3.90
  -3   6   4   48.58    3.83
  -3   6   4   53.89    3.44
  -3   6   4   58.81    3.67
  -3   6   4   47.20    3.77
  -3   6   4   54.59    3.46
  -3   6   4   53.89    3.44
  -3   6   4   47.83    3.46
  -3   6   4   47.20    3.77
  -3   6   4   47.83    3.46
  -3   6   4   58.81    3.67
  -3   6   4   55.57    3.94
  -3   6   4   55.84    3.81
   2  -6  -4   -2.08    1.46
   2  -6  -4   -0.66    1.72
   2  -6  -4   -0.48    1.61
   2  -6  -4   -0.77    1.79
   2  -6  -4    0.14    1.68
   2  -6  -4    0.14    1.68
   2  -6  -4   -2.08    1.46
  -2   6   4   -3.17    1.45
  -2   6   4    2.23    1.77
  -2   6   4   -0.95    1.70
  -2   6   4    1.46    1.53
  -2   6   4   -3.18    1.51
  -2   6   4    0.16    1.72
  -2   6   4    0.16    1.72
  -2   6   4   -0.95    1.70
  -2   6   4    0.15    1.48
  -2   6   4    1.46    1.53
  -2   6   4    0.15    1.48
  -2   6   4   -0.77    1.70
   1  -6  -4  204.12    5.99
   1  -6  -4  203.86    5.62
   1  -6  -4  203.86    5.62
   1  -6  -4  204.12    5.99
   1  -6  -4  211.48    5.51
  -1   6   4  203.40    5.61
  -1   6   4  217.42    5.44
  -1   6   4  211.44    5.53
  -1   6   4  197.54    5.72
  -1   6   4  211.99    5.65
  -1   6   4  217.42    5.44
  -1   6   4  207.04    5.45
  -1   6   4  209.83    6.03
  -1   6   4  209.92    6.06
  -1   6   4  207.04    5.45
  -1   6   4  203.40    5.61
  -1   6   4  209.92    6.06
   0  -6  -4   41.29    1.86
   0  -6  -4   41.52    2.08
   0  -6  -4   41.29    1.86
   0  -6  -4   41.52    2.08
   0  -6  -4   44.54    1.85
   0  -6  -4   37.83    1.98
   0  -6  -4   38.28    2.06
   0   6   4   42.30    2.14
   0   6   4   39.87    1.85
   0   6   4   44.06    2.86
   0   6   4   40.02    1.78
   0   6   4   38.85    2.11
   0   6   4   38.72    2.08
   0   6   4   40.02    1.78
   0   6   4   40.11    1.92
   0   6   4   38.72    2.08
   0   6   4   43.52    2.87
   0   6   4   44.06    2.86
   0   6   4   42.30    2.14
  -1  -6  -4   15.04    0.96
  -1  -6  -4   15.04    0.96
  -1  -6  -4   15.36    1.13
  -1  -6  -4   14.19    0.86
  -1  -6  -4   14.63    1.15
  -1  -6  -4   14.63    1.15
  -1  -6  -4   15.82    1.09
   1   6   4   15.24    0.99
   1   6   4   16.83    1.64
   1   6   4   13.03    0.87
   1   6   4   14.43    1.21
   1   6   4   16.83    1.64
   1   6   4   17.97    2.11
   1   6   4   14.06    1.19
   1   6   4   14.06    1.19
   1   6   4   13.03    0.87
   1   6   4   14.55    1.78
   1   6   4   17.96    2.11
  -2  -6  -4   48.85    2.85
  -2  -6  -4   46.41    1.12
  -2  -6  -4   45.20    2.84
  -2  -6  -4   48.18    1.09
  -2  -6  -4   45.20    2.83
  -2  -6  -4   46.41    1.12
  -2  -6  -4   48.18    1.09
   2   6   4   47.69    2.28
   2   6   4   47.69    2.28
   2   6   4   46.79    1.16
   2   6   4   50.05    2.69
   2   6   4   46.35    1.22
   2   6   4   51.40    2.47
   2   6   4   51.79    2.69
   2   6   4   51.41    2.47
   2   6   4   50.05    2.69
  -3  -6  -4   16.62    2.17
  -3  -6  -4   16.62    2.17
  -3  -6  -4   14.00    2.06
   3   6   4   15.52    0.51
   3   6   4   19.08    2.03
   3   6   4   16.99    1.81
   3   6   4   17.95    2.20
   3   6   4   17.95    2.19
   3   6   4   16.99    1.80
   3   6   4   15.30    0.58
   3   6   4   17.57    2.13
   3   6   4   19.08    2.03
  -4  -6  -4   13.93    0.93
  -4  -6  -4   13.08    0.90
  -4  -6  -4   14.88    1.20
  -4  -6  -4   13.08    0.90
  -4  -6  -4   14.15    0.78
  -4  -6  -4   15.69    2.16
  -4  -6  -4   14.88    1.20
  -4  -6  -4   12.50    1.85
  -4  -6  -4   15.69    2.16
  -4  -6  -4   15.34    2.18
  -4  -6  -4   13.97    0.90
  -4  -6  -4   12.50    1.85
   4   6   4   15.35    1.34
   4   6   4   12.11    2.20
   4   6   4   12.47    0.97
   4   6   4   12.11    2.20
   4   6   4   14.03    2.11
   4   6   4   14.03    2.11
   4   6   4   16.23    0.84
   4   6   4   16.23    0.84
   4   6   4   15.19    0.97
   4   6   4   12.47    0.97
  -5  -6  -4   72.73    3.89
  -5  -6  -4   79.64    2.40
  -5  -6  -4   72.00    2.66
  -5  -6  -4   76.17    4.15
  -5  -6  -4   78.10    3.96
  -5  -6  -4   76.17    4.15
  -5  -6  -4   76.42    2.79
  -5  -6  -4   76.42    2.79
  -5  -6  -4   78.10    3.96
  -5  -6  -4   72.09    2.59
   5   6   4   78.17    2.38
   5   6   4   73.22    4.53
   5   6   4   74.36    3.92
   5   6   4   69.88    2.94
   5   6   4   73.22    4.53
   5   6   4   74.37    3.91
   5   6   4   78.17    2.38
   5   6   4   72.63    2.53
  -6  -6  -4   20.24    2.85
  -6  -6  -4   19.05    2.18
  -6  -6  -4   16.80    3.12
  -6  -6  -4   18.01    1.85
  -6  -6  -4   20.80    2.65
  -6  -6  -4   16.33    1.68
  -6  -6  -4   19.05    2.18
  -6  -6  -4   18.01    1.85
  -6  -6  -4   20.80    2.65
  -6  -6  -4   20.24    2.84
   6   6   4   16.41    1.97
   6   6   4   17.13    3.61
   6   6   4   17.13    3.61
   6   6   4   16.41    1.97
   6   6   4   20.68    2.32
   6   6   4   19.33    1.90
   6   6   4   20.65    1.79
   6   6   4   20.65    1.79
   3  -7  -4    6.20    2.72
   3  -7  -4    8.09    2.84
   3  -7  -4    5.72    2.54
   3  -7  -4    8.09    2.84
   3  -7  -4    5.72    2.54
   3  -7  -4    8.15    3.19
  -3   7   4    7.76    2.58
  -3   7   4    6.95    2.59
  -3   7   4    9.93    2.64
  -3   7   4    9.84    2.60
  -3   7   4   11.76    2.78
  -3   7   4    6.96    2.70
  -3   7   4    7.76    2.57
  -3   7   4    7.78    2.13
  -3   7   4    9.93    2.64
  -3   7   4   11.76    2.78
  -3   7   4    7.78    2.13
  -3   7   4    9.73    2.87
   2  -7  -4   -1.30    1.89
   2  -7  -4   -1.27    2.25
   2  -7  -4   -0.95    1.75
   2  -7  -4   -0.95    1.75
   2  -7  -4   -1.30    1.89
  -2   7   4   -1.38    1.88
  -2   7   4   -2.14    2.01
  -2   7   4    2.34    2.14
  -2   7   4   -0.75    1.78
  -2   7   4   -0.76    1.88
  -2   7   4    2.34    2.15
  -2   7   4   -0.75    1.86
  -2   7   4   -1.84    1.57
  -2   7   4   -0.99    1.68
  -2   7   4   -1.84    1.57
  -2   7   4   -0.99    1.68
  -2   7   4   -1.38    1.88
   1  -7  -4   37.97    2.45
   1  -7  -4   43.15    2.89
   1  -7  -4   42.45    2.61
   1  -7  -4   36.21    2.67
   1  -7  -4   37.97    2.45
   1  -7  -4   36.21    2.67
  -1   7   4   39.65    2.57
  -1   7   4   40.34    2.70
  -1   7   4   41.81    2.62
  -1   7   4   45.76    2.90
  -1   7   4   36.72    2.44
  -1   7   4   36.72    2.44
  -1   7   4   38.78    3.28
  -1   7   4   38.78    3.28
  -1   7   4   39.65    2.57
  -1   7   4   37.75    3.23
  -1   7   4   41.86    2.53
  -1   7   4   45.76    2.90
   0  -7  -4  105.34    3.44
   0  -7  -4   99.59    3.09
   0  -7  -4  102.21    3.45
   0  -7  -4  102.21    3.45
   0  -7  -4  100.61    3.15
   0  -7  -4  100.61    3.15
   0   7   4   99.45    3.26
   0   7   4  111.16    4.48
   0   7   4  101.89    3.50
   0   7   4  105.36    3.09
   0   7   4  105.36    3.09
   0   7   4  102.25    3.37
   0   7   4  103.25    3.28
   0   7   4   98.46    4.37
   0   7   4   98.46    4.37
   0   7   4   99.45    3.26
   0   7   4  103.26    3.19
   0   7   4  102.25    3.37
  -1  -7  -4   74.59    2.21
  -1  -7  -4   72.66    2.09
  -1  -7  -4   77.35    1.99
  -1  -7  -4   71.37    2.26
  -1  -7  -4   72.66    2.09
  -1  -7  -4   71.37    2.26
   1   7   4   72.68    2.18
   1   7   4   73.11    3.85
   1   7   4   74.50    1.99
   1   7   4   73.11    3.84
   1   7   4   74.50    1.99
   1   7   4   72.68    2.18
   1   7   4   80.27    3.93
   1   7   4   75.77    2.38
   1   7   4   74.36    2.16
   2   7   4    4.56    1.97
   2   7   4    1.26    1.82
   2   7   4    0.03    1.34
   2   7   4    4.56    1.97
   2   7   4    1.86    1.26
   2   7   4    0.03    1.34
   2   7   4    1.86    1.26
   3   7   4   37.51    3.32
   3   7   4   37.97    3.14
   3   7   4   38.92    2.62
   3   7   4   38.92    2.62
   3   7   4   37.50    3.32
   4   7   4   32.21    2.88
   4   7   4   30.41    2.57
   4   7   4   30.42    2.57
   4   7   4   32.21    2.88
  -5  -7  -4   20.82    1.18
  -5  -7  -4   20.82    1.18
  -5  -7  -4   22.37    1.40
  -5  -7  -4   24.74    2.38
  -5  -7  -4   24.74    2.38
  -5  -7  -4   22.37    1.40
   5   7   4   21.49    1.29
   5   7   4   21.82    0.93
   5   7   4   24.36    2.85
   5   7   4   23.62    0.98
   5   7   4   24.36    2.85
   5   7   4   23.62    0.98
   5   7   4   21.23    1.54
   5   7   4   26.64    2.88
   5   7   4   26.64    2.88
   5   7   4   21.82    0.93
  -6  -7  -4    4.90    1.11
  -6  -7  -4    6.85    2.26
  -6  -7  -4    5.61    1.56
  -6  -7  -4    7.83    1.32
  -6  -7  -4    6.85    2.27
  -6  -7  -4    5.61    1.56
  -6  -7  -4    7.83    1.32
   6   7   4    7.56    1.35
   6   7   4    5.40    1.19
   6   7   4    5.40    1.19
   6   7   4    9.11    3.55
   6   7   4    7.56    1.35
   6   7   4    4.96    1.31
   6   7   4    6.31    1.66
   6   7   4    9.11    3.55
   2  -8  -4    4.11    2.33
   2  -8  -4    2.75    2.57
   2  -8  -4    4.11    2.33
   2  -8  -4    4.71    2.39
   2  -8  -4    4.71    2.39
  -2   8   4    4.54    1.75
  -2   8   4    3.76    2.07
  -2   8   4    9.73    2.48
  -2   8   4    3.91    3.18
  -2   8   4    9.71    2.37
  -2   8   4    4.79    2.21
  -2   8   4    6.92    2.53
  -2   8   4    3.91    3.18
  -2   8   4    4.86    3.19
  -2   8   4    4.54    1.75
  -2   8   4    4.79    2.21
  -2   8   4    3.76    2.07
   1  -8  -4   31.79    2.63
   1  -8  -4   37.14    2.71
   1  -8  -4   37.14    2.71
   1  -8  -4   31.79    2.63
   1  -8  -4   35.57    3.18
  -1   8   4   35.32    3.05
  -1   8   4   34.08    2.81
  -1   8   4   33.72    2.98
  -1   8   4   32.90    2.68
  -1   8   4   32.85    2.78
  -1   8   4   33.72    2.98
  -1   8   4   33.82    2.35
  -1   8   4   39.57    3.64
  -1   8   4   34.08    2.81
  -1   8   4   30.41    3.48
  -1   8   4   30.41    3.48
  -1   8   4   33.82    2.35
   0  -8  -4   23.44    2.03
   0  -8  -4   27.56    2.22
   0  -8  -4   25.84    2.03
   0  -8  -4   25.84    2.03
   0  -8  -4   23.44    2.03
   0  -8  -4   26.85    2.03
   0   8   4   26.87    2.00
   0   8   4   20.93    3.00
   0   8   4   22.10    1.81
   0   8   4   24.27    1.91
   0   8   4   16.22    1.67
   0   8   4   26.87    2.00
   0   8   4   27.11    2.42
   0   8   4   16.22    1.67
   0   8   4   22.44    3.08
   0   8   4   24.27    1.91
   0   8   4   22.24    1.89
   0   8   4   22.44    3.08
  -1  -8  -4    1.39    0.87
  -1  -8  -4   -0.21    0.72
  -1  -8  -4    0.30    0.78
  -1  -8  -4    1.35    0.69
  -1  -8  -4    0.30    0.78
  -1  -8  -4    1.39    0.87
   1   8   4    0.23    0.88
   1   8   4    1.70    1.16
   1   8   4    1.17    0.83
   1   8   4    1.65    0.70
   1   8   4   -2.00    2.21
   1   8   4    1.65    0.70
   1   8   4   -2.00    2.21
   1   8   4    4.02    2.36
   1   8   4    1.17    0.83
   1   8   4    1.70    1.16
   2   8   4   51.72    3.01
   2   8   4   51.73    3.02
   2   8   4   50.14    2.76
   2   8   4   50.14    2.76
   3   8   4   41.90    3.90
   3   8   4   49.59    3.02
   3   8   4   46.52    3.03
   3   8   4   49.59    3.02
   3   8   4   42.69    3.94
   3   8   4   46.52    3.04
   3   8   4   42.59    3.94
   4   8   4   13.89    2.52
   4   8   4   13.89    2.52
   4   8   4   17.93    2.59
   4   8   4   18.18    2.63
   4   8   4   17.93    2.59
   4   8   4   11.32    2.17
   4   8   4   11.32    2.17
   5   8   4   32.13    3.24
   5   8   4   24.51    3.53
   5   8   4   24.51    3.53
   5   8   4   32.13    3.24
  -6  -8  -4    9.57    0.89
  -6  -8  -4   12.92    2.62
  -6  -8  -4    9.57    0.89
  -6  -8  -4   12.92    2.62
   6   8   4   13.46    4.03
   6   8   4    8.78    1.10
   6   8   4   14.49    3.32
   6   8   4   14.50    3.32
   6   8   4    9.20    0.98
   6   8   4   13.46    4.03
   1  -9  -4   13.54    2.29
   1  -9  -4   16.31    2.60
   1  -9  -4   16.31    2.60
   1  -9  -4   12.38    2.46
  -1   9   4   13.13    2.45
  -1   9   4   16.83    2.50
  -1   9   4   13.91    2.47
  -1   9   4   13.91    2.47
  -1   9   4   12.00    1.34
  -1   9   4   16.98    2.19
  -1   9   4   16.98    2.19
  -1   9   4   16.69    2.38
  -1   9   4   12.00    1.34
   0  -9  -4   14.33    1.93
   0  -9  -4   13.76    2.00
   0  -9  -4   14.33    1.93
   0  -9  -4   15.22    1.84
   0  -9  -4   13.76    2.00
   0   9   4   13.27    1.90
   0   9   4   13.19    1.81
   0   9   4   12.14    1.57
   0   9   4   15.47    1.37
   0   9   4   13.97    1.54
   0   9   4   15.47    1.37
   0   9   4   12.14    1.57
   0   9   4   13.60    1.84
   0   9   4   13.97    1.54
   0   9   4   13.60    1.84
   0   9   4   16.04    2.01
  -1  -9  -4    0.67    0.96
  -1  -9  -4    1.28    1.02
  -1  -9  -4    2.24    0.78
  -1  -9  -4    2.50    0.81
  -1  -9  -4    0.67    0.96
  -1  -9  -4    1.28    1.02
   1   9   4    2.27    0.85
   1   9   4    2.27    0.85
   1   9   4    0.34    1.28
   1   9   4    2.31    1.05
   1   9   4    1.76    0.82
   1   9   4    0.34    1.28
   1   9   4    1.76    0.82
   2   9   4   14.84    2.32
   2   9   4   14.18    1.97
   2   9   4   14.84    2.32
   2   9   4   14.18    1.97
   3   9   4   50.92    3.44
   3   9   4   59.55    3.66
   3   9   4   50.92    3.44
   3   9   4   61.93    4.98
   3   9   4   54.10    4.88
   3   9   4   54.10    4.89
   3   9   4   59.55    3.66
   4   9   4    3.13    3.11
   4   9   4    0.72    2.23
   4   9   4    2.50    3.06
   4   9   4    6.45    2.40
   4   9   4    0.72    2.22
   4   9   4    6.45    2.40
   4   9   4    3.13    3.10
   5   9   4   10.27    3.17
   5   9   4   10.27    3.17
   5   9   4    8.52    2.79
   5   9   4    8.51    2.79
   0 -10  -4   13.62    2.14
   0 -10  -4   13.65    2.02
   0 -10  -4   14.09    3.66
   0 -10  -4   14.09    3.66
   0 -10  -4   11.36    1.87
   0 -10  -4   13.62    2.14
   0  10   4   13.31    2.11
   0  10   4   13.17    2.01
   0  10   4    8.21    1.73
   0  10   4    9.24    3.98
   0  10   4    8.21    1.73
   0  10   4   13.73    4.09
   0  10   4   11.94    1.91
   0  10   4   11.79    2.05
   0  10   4   11.94    1.91
   0  10   4    9.25    3.98
  -1 -10  -4    2.14    1.20
  -1 -10  -4    2.95    1.11
  -1 -10  -4    2.14    1.20
  -1 -10  -4    2.95    1.11
   1  10   4    4.83    0.90
   1  10   4    4.27    1.49
   1  10   4    3.79    0.90
   1  10   4    6.55    2.58
   1  10   4    4.83    0.90
   1  10   4    3.79    0.90
   1  10   4   -1.59    3.60
   1  10   4    8.56    3.89
   1  10   4    6.54    2.57
   1  10   4    4.73    1.43
   1  10   4    4.27    1.49
   1  10   4    4.73    1.43
   1  10   4   -1.59    3.60
   1  10   4    6.33    1.21
   2  10   4   27.82    2.99
   2  10   4   31.89    2.89
   2  10   4   32.22    6.92
   2  10   4   27.82    2.99
   2  10   4   35.37    6.01
   2  10   4   31.89    2.89
   2  10   4   32.22    6.93
   3  10   4   15.21    3.30
   3  10   4   18.55    3.45
   3  10   4   21.58    2.94
   3  10   4   18.55    3.45
   3  10   4   22.52    2.74
   3  10   4   22.52    2.74
   3  10   4   21.57    2.94
   4  10   4    9.24    2.77
   4  10   4   -0.97    2.81
   4  10   4    1.35    3.65
   4  10   4    9.24    2.77
   4  10   4    5.59    3.18
   4  10   4   -0.97    2.81
   4  10   4    5.60    3.19
   3   8  -5    1.58    1.85
   3   8  -5    1.42    2.08
   3   8  -5    1.40    1.89
   3   8  -5    1.42    2.08
  -3  -8   5    2.81    2.04
  -3  -8   5    2.22    1.83
  -3  -8   5    2.43    2.20
  -3  -8   5    2.43    2.20
  -3  -8   5    3.98    2.11
  -3  -8   5    2.81    2.04
  -3  -8   5    5.61    2.28
  -3  -8   5    5.61    2.28
   2   8  -5   55.22    2.93
   2   8  -5   60.89    3.46
   2   8  -5   57.02    1.83
   2   8  -5   57.01    1.83
   2   8  -5   60.89    3.46
   2   8  -5   65.08    3.85
   2   8  -5   63.34    3.39
   2   8  -5   55.22    2.93
  -2  -8   5   59.25    3.36
  -2  -8   5   59.89    3.90
  -2  -8   5   59.89    3.90
  -2  -8   5   65.71    3.27
  -2  -8   5   59.25    3.36
  -2  -8   5   64.05    3.39
  -2  -8   5   64.05    3.39
  -2  -8   5   60.68    3.88
   1   8  -5   -1.11    1.73
   1   8  -5    0.61    2.42
   1   8  -5    3.96    2.46
   1   8  -5    3.98    1.70
   1   8  -5   -1.11    1.73
   1   8  -5    3.96    2.46
  -1  -8   5    0.02    1.60
  -1  -8   5   -2.07    2.26
  -1  -8   5    0.02    1.60
  -1  -8   5    2.05    1.65
  -1  -8   5    3.50    2.43
  -1  -8   5    0.51    1.22
  -1  -8   5   -2.07    2.26
  -1  -8   5    0.51    1.22
   0   8  -5   21.74    3.29
   0   8  -5   24.16    3.36
   0   8  -5   22.75    2.36
   0   8  -5   24.62    2.50
   0   8  -5   22.75    2.36
   0   8  -5   21.74    3.29
   0  -8   5   20.73    3.24
   0  -8   5   22.76    2.35
   0  -8   5   28.68    3.56
   0  -8   5   24.04    2.53
   0  -8   5   28.68    3.56
   0  -8   5   22.76    2.35
   5   7  -5   34.19    4.27
   5   7  -5   37.37    3.40
   5   7  -5   37.52    3.26
   5   7  -5   37.22    3.26
   5   7  -5   34.19    4.27
  -5  -7   5   42.65    4.32
  -5  -7   5   42.65    4.32
   4   7  -5   20.09    2.48
   4   7  -5   17.65    2.47
   4   7  -5   20.09    2.48
   4   7  -5   17.48    2.20
   4   7  -5   22.52    3.35
   4   7  -5   22.52    3.35
   4   7  -5   17.48    2.20
   4   7  -5   17.40    2.35
   4   7  -5   15.08    2.04
  -4  -7   5   16.76    2.91
  -4  -7   5   17.93    2.24
  -4  -7   5   19.31    2.35
  -4  -7   5   16.76    2.91
  -4  -7   5   21.76    2.55
  -4  -7   5   19.31    2.35
   3   7  -5   16.36    2.51
   3   7  -5   15.59    1.92
   3   7  -5   11.16    1.98
   3   7  -5   11.16    1.98
   3   7  -5   16.36    2.51
   3   7  -5    9.93    1.94
  -3  -7   5   10.03    1.81
  -3  -7   5   10.03    1.81
  -3  -7   5   17.80    2.12
  -3  -7   5   18.03    2.51
  -3  -7   5   18.03    2.51
   2   7  -5    9.65    1.83
   2   7  -5    9.93    2.02
   2   7  -5   12.28    1.85
   2   7  -5   13.05    1.72
   2   7  -5    9.65    1.83
   2   7  -5   13.05    1.72
  -2  -7   5   11.11    1.89
  -2  -7   5   11.35    2.09
  -2  -7   5   11.35    2.09
  -2  -7   5    8.72    2.00
  -2  -7   5   11.75    1.67
  -2  -7   5    8.72    2.00
  -2  -7   5   11.11    1.89
   1   7  -5   22.04    2.40
   1   7  -5   25.87    2.16
   1   7  -5   20.49    2.31
   1   7  -5   25.87    2.16
   1   7  -5   20.49    2.31
   1   7  -5   21.68    2.05
  -1  -7   5   20.14    1.93
  -1  -7   5   24.10    2.09
  -1  -7   5   24.10    2.09
  -1  -7   5   20.14    1.93
   0   7  -5   13.97    2.58
   0   7  -5   11.96    1.86
   0   7  -5   14.38    1.88
   0   7  -5   13.97    2.58
   0   7  -5   14.38    1.88
   0   7  -5   12.93    2.47
   0  -7   5   13.65    2.02
   0  -7   5   13.74    1.17
   0  -7   5   11.39    1.92
   0  -7   5   13.74    1.17
   0  -7   5   11.39    1.92
  -1   7  -5   22.54    3.08
  -1   7  -5   22.54    3.08
  -1   7  -5   21.31    2.43
  -1   7  -5   20.71    2.30
  -1   7  -5   24.59    3.23
  -1   7  -5   20.71    2.30
   1  -7   5   24.86    2.69
   1  -7   5   22.99    3.09
   1  -7   5   24.81    2.33
   1  -7   5   26.88    3.21
   1  -7   5   22.99    3.09
   1  -7   5   24.81    2.33
  -2   7  -5    1.11    3.28
  -2   7  -5    0.54    2.24
  -2   7  -5    0.98    3.06
  -2   7  -5    0.98    3.06
  -2   7  -5   -0.20    2.11
  -2   7  -5   -0.20    2.11
   2  -7   5    3.68    2.39
   2  -7   5    2.84    2.44
   2  -7   5   -0.32    3.36
   2  -7   5    1.61    3.00
   2  -7   5    2.84    2.44
   2  -7   5    1.61    3.00
   5   6  -5   63.55    4.26
   5   6  -5   67.48    3.53
   5   6  -5   64.22    4.24
   5   6  -5   64.92    3.68
   5   6  -5   64.22    4.24
   5   6  -5   63.65    4.12
   5   6  -5   77.85    5.60
   5   6  -5   67.48    3.53
   5   6  -5   77.85    5.60
  -5  -6   5   75.65    4.99
  -5  -6   5   68.84    3.38
  -5  -6   5   75.65    4.99
  -5  -6   5   68.84    3.38
  -5  -6   5   73.22    4.26
  -5  -6   5   64.82    4.30
  -5  -6   5   67.46    3.57
  -5  -6   5   64.82    4.30
   4   6  -5    5.47    1.74
   4   6  -5    9.32    2.65
   4   6  -5    5.69    1.79
   4   6  -5    6.86    1.70
   4   6  -5    6.86    1.70
   4   6  -5    4.30    1.99
   4   6  -5    4.30    1.99
   4   6  -5    9.32    2.65
   4   6  -5    5.52    1.83
  -4  -6   5    6.17    1.87
  -4  -6   5    5.23    2.33
  -4  -6   5    6.17    1.87
  -4  -6   5    3.97    1.81
  -4  -6   5    5.23    2.33
   3   6  -5   19.67    2.00
   3   6  -5   18.79    2.65
   3   6  -5   20.93    1.88
   3   6  -5   23.11    1.98
   3   6  -5   20.93    1.88
   3   6  -5   18.79    2.65
  -3  -6   5   21.64    2.40
  -3  -6   5   21.64    2.40
  -3  -6   5   11.86    1.71
  -3  -6   5   19.82    1.93
  -3  -6   5   19.82    1.93
  -3  -6   5   18.83    1.99
  -3  -6   5   18.83    1.99
   2   6  -5   43.83    2.52
   2   6  -5   46.88    2.72
   2   6  -5   39.79    2.49
   2   6  -5   43.83    2.52
   2   6  -5   46.88    2.72
   2   6  -5   45.99    2.70
  -2  -6   5   44.96    2.41
  -2  -6   5   44.44    3.01
  -2  -6   5   44.02    2.51
  -2  -6   5   44.44    3.01
  -2  -6   5   44.02    2.51
  -2  -6   5   44.96    2.41
   1   6  -5   50.63    2.78
   1   6  -5   48.89    2.51
   1   6  -5   50.33    2.45
   1   6  -5   50.63    2.78
   1   6  -5   50.33    2.45
   1   6  -5   46.22    2.98
  -1  -6   5   51.19    2.78
  -1  -6   5   47.47    2.45
  -1  -6   5   47.47    2.45
  -1  -6   5   49.37    2.59
  -1  -6   5   51.19    2.78
  -1  -6   5   52.89    2.76
  -1  -6   5   52.89    2.76
   0   6  -5   32.58    2.70
   0   6  -5   33.75    2.92
   0   6  -5   32.06    2.28
   0   6  -5   32.58    2.70
   0   6  -5   30.77    2.17
   0   6  -5   30.77    2.17
   0  -6   5   34.65    2.12
   0  -6   5   25.35    2.16
   0  -6   5   29.16    2.47
   0  -6   5   29.16    2.47
   0  -6   5   25.35    2.16
   0  -6   5   34.65    2.12
   0  -6   5   28.22    2.55
   0  -6   5   28.69    2.51
  -1   6  -5   10.76    1.76
  -1   6  -5   10.45    2.34
  -1   6  -5   10.45    2.34
  -1   6  -5    9.09    1.81
  -1   6  -5   10.76    1.76
  -1   6  -5   12.38    2.56
   1  -6   5   12.00    1.31
   1  -6   5   12.00    1.31
   1  -6   5   13.42    1.82
   1  -6   5   10.00    1.09
   1  -6   5   10.63    1.88
   1  -6   5   13.08    2.51
   1  -6   5   13.42    1.82
   1  -6   5   10.00    1.09
  -2   6  -5   17.15    2.23
  -2   6  -5   21.16    3.07
  -2   6  -5   21.16    3.07
  -2   6  -5   17.15    2.23
  -2   6  -5   15.10    2.34
  -2   6  -5   15.68    3.02
   2  -6   5   17.08    1.51
   2  -6   5   19.94    1.77
   2  -6   5   19.34    2.54
   2  -6   5   16.55    2.36
   2  -6   5   19.94    1.77
   2  -6   5   17.08    1.51
   2  -6   5   16.55    2.36
   2  -6   5   21.02    3.35
  -3   6  -5   -1.54    2.31
  -3   6  -5   -1.72    2.16
  -3   6  -5   -2.95    3.27
  -3   6  -5   -0.31    3.20
  -3   6  -5   -2.95    3.27
  -3   6  -5    0.45    3.34
  -3   6  -5   -1.72    2.16
   3  -6   5   -0.66    2.24
   3  -6   5   -1.37    1.56
   3  -6   5    3.08    1.75
   3  -6   5    3.08    1.75
   3  -6   5   -0.43    3.07
   3  -6   5   -1.37    1.56
   3  -6   5   -1.63    2.43
   3  -6   5   -1.63    2.43
   6   5  -5    4.32    4.23
   6   5  -5    5.16    2.96
   6   5  -5    7.84    3.24
   6   5  -5    7.60    2.47
   6   5  -5    4.32    4.23
   6   5  -5    5.16    3.09
   6   5  -5    6.17    2.11
   6   5  -5    7.84    3.24
   6   5  -5    8.28    2.47
   6   5  -5    7.60    2.47
   6   5  -5    7.06    2.10
   6   5  -5    7.01    2.09
  -6  -5   5    7.69    2.49
  -6  -5   5    2.24    2.55
  -6  -5   5    4.39    2.86
  -6  -5   5    2.24    2.55
  -6  -5   5    9.06    2.98
  -6  -5   5    6.42    1.19
  -6  -5   5    4.39    2.86
  -6  -5   5    6.42    1.19
  -6  -5   5    5.26    3.42
  -6  -5   5    9.06    2.98
   5   5  -5   13.48    2.71
   5   5  -5   13.88    2.53
   5   5  -5   18.17    2.00
   5   5  -5   20.27    3.66
   5   5  -5   11.93    1.97
   5   5  -5   14.01    2.65
   5   5  -5   20.27    3.66
   5   5  -5   13.48    2.71
   5   5  -5   18.17    2.00
  -5  -5   5   16.35    3.17
  -5  -5   5   16.35    3.17
  -5  -5   5   14.52    2.52
  -5  -5   5   15.97    2.54
  -5  -5   5   14.56    2.70
  -5  -5   5   15.97    2.54
  -5  -5   5   14.52    2.52
   4   5  -5   41.23    2.77
   4   5  -5   41.23    2.77
   4   5  -5   40.68    2.45
   4   5  -5   41.65    2.52
   4   5  -5   42.01    2.75
   4   5  -5   41.96    2.85
   4   5  -5   52.15    3.95
   4   5  -5   40.68    2.45
   4   5  -5   52.15    3.95
  -4  -5   5   41.68    2.45
  -4  -5   5   39.79    2.83
  -4  -5   5   41.68    2.45
  -4  -5   5   41.44    4.23
  -4  -5   5   39.79    2.83
  -4  -5   5   41.44    4.23
   3   5  -5   14.82    1.74
   3   5  -5   14.18    2.33
   3   5  -5   14.86    1.65
   3   5  -5   14.18    2.33
   3   5  -5   13.65    1.62
   3   5  -5   13.65    1.62
  -3  -5   5   16.75    1.79
  -3  -5   5   16.15    2.24
  -3  -5   5   14.68    1.76
  -3  -5   5   14.92    1.60
  -3  -5   5   16.15    2.24
  -3  -5   5   16.75    1.79
  -3  -5   5   14.92    1.60
   2   5  -5   30.37    2.03
   2   5  -5   37.25    2.09
   2   5  -5   37.25    2.09
   2   5  -5   34.01    2.47
   2   5  -5   30.37    2.03
   2   5  -5   34.79    2.17
  -2  -5   5   37.88    2.10
  -2  -5   5   37.88    2.10
  -2  -5   5   36.24    2.58
  -2  -5   5   30.84    2.17
  -2  -5   5   35.25    2.07
  -2  -5   5   37.05    2.17
  -2  -5   5   35.25    2.07
  -2  -5   5   36.24    2.58
   1   5  -5   25.55    2.21
   1   5  -5   27.25    2.08
   1   5  -5   29.57    1.86
   1   5  -5   27.25    2.08
   1   5  -5   26.33    1.91
   1   5  -5   29.57    1.86
  -1  -5   5   27.33    2.21
  -1  -5   5   27.05    2.06
  -1  -5   5   27.33    2.21
  -1  -5   5   28.24    1.89
  -1  -5   5   24.27    2.11
  -1  -5   5   27.05    2.06
  -1  -5   5   28.24    1.89
  -1  -5   5   27.13    1.98
   0   5  -5   43.03    2.63
   0   5  -5   38.79    2.15
   0   5  -5   43.37    2.35
   0   5  -5   43.03    2.63
   0   5  -5   46.64    2.74
   0   5  -5   38.79    2.15
   0  -5   5   46.27    2.30
   0  -5   5   40.43    2.70
   0  -5   5   42.63    2.24
   0  -5   5   42.63    2.24
   0  -5   5   47.01    2.34
   0  -5   5   44.13    2.36
   0  -5   5   47.01    2.34
   0  -5   5   46.27    2.30
  -1   5  -5  107.83    4.31
  -1   5  -5  110.38    4.25
  -1   5  -5  104.91    3.62
  -1   5  -5  110.38    4.25
  -1   5  -5  104.91    3.62
   1  -5   5  106.08    3.67
   1  -5   5  102.92    3.30
   1  -5   5  102.92    3.30
   1  -5   5  105.01    4.16
   1  -5   5  105.01    4.16
   1  -5   5  100.20    3.74
   1  -5   5  106.08    3.67
   1  -5   5  114.72    4.42
  -2   5  -5   20.43    3.22
  -2   5  -5   14.15    1.73
  -2   5  -5   19.59    2.77
  -2   5  -5   14.15    1.73
  -2   5  -5   17.36    2.15
  -2   5  -5   20.43    3.22
   2  -5   5   14.73    2.05
   2  -5   5   15.93    1.60
   2  -5   5   16.35    2.13
   2  -5   5   17.53    2.79
   2  -5   5   15.93    1.60
   2  -5   5   16.35    2.13
  -3   5  -5    8.73    2.31
  -3   5  -5   12.07    2.24
  -3   5  -5   12.59    3.04
  -3   5  -5   12.07    2.24
  -3   5  -5   12.59    3.04
  -3   5  -5   12.77    2.94
   3  -5   5   11.55    1.86
   3  -5   5   12.55    1.90
   3  -5   5   11.55    1.86
   3  -5   5    8.44    3.00
   3  -5   5   12.55    1.91
   3  -5   5    8.44    3.00
   3  -5   5   13.34    2.31
   3  -5   5   15.15    3.24
  -4   5  -5    0.89    3.68
  -4   5  -5    4.45    2.07
  -4   5  -5    8.79    3.77
  -4   5  -5    8.79    3.77
  -4   5  -5    0.59    3.53
  -4   5  -5    5.37    2.58
  -4   5  -5    5.37    2.58
   4  -5   5   12.94    3.71
   4  -5   5    0.10    3.35
   4  -5   5   12.94    3.71
   4  -5   5    4.34    2.43
   4  -5   5    4.34    2.43
   4  -5   5    2.75    2.60
   4  -5   5    6.58    2.58
   4  -5   5    6.58    2.58
   6   4  -5    4.33    1.46
   6   4  -5    5.65    2.37
   6   4  -5    7.35    2.26
   6   4  -5   -1.15    2.70
   6   4  -5    5.45    3.07
   6   4  -5    7.35    2.26
   6   4  -5    2.41    3.94
   6   4  -5    5.44    2.94
   6   4  -5   -1.15    2.70
   6   4  -5    5.04    1.47
   6   4  -5    2.41    3.94
   6   4  -5    4.34    1.46
  -6  -4   5    7.20    2.88
  -6  -4   5    2.85    1.56
  -6  -4   5    9.09    3.12
  -6  -4   5    2.40    2.62
  -6  -4   5    2.40    2.62
  -6  -4   5    7.20    2.88
  -6  -4   5    6.86    2.32
  -6  -4   5    2.86    1.57
  -6  -4   5    1.38    2.25
  -6  -4   5    6.86    2.32
   5   4  -5   31.36    3.35
   5   4  -5   31.36    3.35
   5   4  -5   26.28    2.92
   5   4  -5   23.90    2.20
   5   4  -5   26.16    2.79
   5   4  -5   23.13    2.36
   5   4  -5   23.90    2.20
   5   4  -5   23.70    2.72
   5   4  -5   23.70    2.72
  -5  -4   5   25.08    1.48
  -5  -4   5   24.94    2.81
  -5  -4   5   27.36    3.58
  -5  -4   5   22.90    2.94
  -5  -4   5   27.36    3.58
  -5  -4   5   24.94    2.81
  -5  -4   5   19.82    2.28
  -5  -4   5   25.08    1.48
   4   4  -5   61.32    3.05
   4   4  -5   60.59    4.06
   4   4  -5   56.72    3.36
   4   4  -5   60.59    4.06
   4   4  -5   56.72    3.36
   4   4  -5   59.10    2.81
   4   4  -5   59.10    2.81
   4   4  -5   61.57    3.17
   4   4  -5   56.98    2.75
  -4  -4   5   54.92    3.04
  -4  -4   5   54.59    3.29
  -4  -4   5   60.38    2.75
  -4  -4   5   54.92    3.04
  -4  -4   5   55.66    2.81
  -4  -4   5   55.66    2.81
   3   4  -5   87.36    3.14
   3   4  -5   83.17    3.90
   3   4  -5   84.76    2.99
   3   4  -5   90.59    3.38
   3   4  -5   83.17    3.90
   3   4  -5   90.59    3.38
   3   4  -5   84.76    2.99
  -3  -4   5   83.11    3.31
  -3  -4   5   85.42    3.91
  -3  -4   5   83.79    3.02
  -3  -4   5   85.42    3.91
  -3  -4   5   85.48    2.95
  -3  -4   5   81.85    3.16
  -3  -4   5   85.48    2.95
  -3  -4   5   81.85    3.16
   2   4  -5   20.42    1.62
   2   4  -5   17.43    1.94
   2   4  -5   20.42    1.62
   2   4  -5   17.43    1.94
   2   4  -5   18.35    1.66
   2   4  -5   19.26    1.60
   2   4  -5   19.26    1.60
   2   4  -5   19.18    1.68
  -2  -4   5   20.43    1.71
  -2  -4   5   21.09    2.14
  -2  -4   5   20.43    1.71
  -2  -4   5   22.65    1.97
  -2  -4   5   21.30    1.60
  -2  -4   5   20.38    1.82
  -2  -4   5   21.30    1.60
  -2  -4   5   21.09    2.14
   1   4  -5   23.20    1.80
   1   4  -5   24.07    1.79
   1   4  -5   23.14    0.95
   1   4  -5   27.00    1.65
   1   4  -5   24.07    1.79
   1   4  -5   23.15    0.95
   1   4  -5   27.02    1.74
   1   4  -5   27.00    1.65
  -1  -4   5   21.37    1.73
  -1  -4   5   23.67    1.84
  -1  -4   5   21.70    1.98
  -1  -4   5   24.37    1.74
  -1  -4   5   24.70    1.48
  -1  -4   5   21.70    1.98
  -1  -4   5   24.70    1.48
  -1  -4   5   24.37    1.74
   0   4  -5    1.31    0.91
   0   4  -5    0.69    0.94
   0   4  -5   -0.90    1.07
   0   4  -5    0.85    1.15
   0   4  -5    0.85    1.15
   0   4  -5    0.69    0.94
   0  -4   5   -0.08    1.04
   0  -4   5    4.23    1.25
   0  -4   5    4.23    1.25
   0  -4   5    1.25    1.08
   0  -4   5    0.44    0.98
   0  -4   5    0.44    0.98
   0  -4   5   -0.08    1.04
   0  -4   5    1.59    0.98
  -1   4  -5  181.35    5.12
  -1   4  -5  189.60    5.43
  -1   4  -5  186.85    5.58
  -1   4  -5  188.19    5.03
  -1   4  -5  188.19    5.03
  -1   4  -5  189.60    5.43
   1  -4   5  183.90    5.23
   1  -4   5  181.23    5.59
   1  -4   5  185.49    5.10
   1  -4   5  183.90    5.23
   1  -4   5  179.65    4.90
   1  -4   5  179.65    4.90
  -2   4  -5   62.15    3.66
  -2   4  -5   61.72    2.97
  -2   4  -5   61.72    2.97
  -2   4  -5   66.74    3.56
  -2   4  -5   65.67    3.19
  -2   4  -5   66.74    3.56
   2  -4   5   67.05    3.10
   2  -4   5   63.08    2.72
   2  -4   5   63.08    2.72
   2  -4   5   72.12    3.59
   2  -4   5   66.44    3.76
   2  -4   5   61.56    2.67
   2  -4   5   72.12    3.59
   2  -4   5   61.56    2.67
  -3   4  -5    7.16    2.43
  -3   4  -5    7.06    1.89
  -3   4  -5    7.06    1.89
  -3   4  -5   11.38    2.57
  -3   4  -5    7.16    2.43
   3  -4   5    6.54    1.77
   3  -4   5   10.62    2.66
   3  -4   5    6.54    1.77
   3  -4   5    7.65    2.01
   3  -4   5    7.65    2.01
   3  -4   5   11.04    2.08
  -4   4  -5   13.78    2.10
  -4   4  -5    9.56    3.33
  -4   4  -5   13.78    2.10
  -4   4  -5   14.35    3.31
  -4   4  -5   14.35    3.31
  -4   4  -5   15.25    2.51
  -4   4  -5    9.76    3.19
   4  -4   5   13.66    3.42
   4  -4   5    8.35    2.61
   4  -4   5   12.12    2.51
   4  -4   5   11.20    2.49
   4  -4   5   15.79    2.84
   4  -4   5   11.20    2.49
   4  -4   5   15.79    2.84
   4  -4   5   12.12    2.51
   6   3  -5   -2.34    2.65
   6   3  -5    1.41    2.17
   6   3  -5    2.11    2.39
   6   3  -5    1.06    2.70
   6   3  -5    1.06    2.70
   6   3  -5    1.41    2.17
   6   3  -5    1.33    3.70
   6   3  -5    1.33    3.70
   6   3  -5   -2.35    2.78
  -6  -3   5    3.60    2.76
  -6  -3   5    0.59    3.06
  -6  -3   5    3.60    2.76
  -6  -3   5   -3.14    1.67
  -6  -3   5    1.65    2.26
  -6  -3   5   -3.14    1.67
  -6  -3   5    1.66    2.26
  -6  -3   5    1.65    2.26
  -6  -3   5    0.78    3.27
  -6  -3   5    0.78    3.27
   5   3  -5   40.55    4.08
   5   3  -5   40.70    2.71
   5   3  -5   34.15    3.03
   5   3  -5   34.87    2.08
   5   3  -5   32.53    3.15
   5   3  -5   40.70    2.71
   5   3  -5   38.42    2.95
   5   3  -5   34.87    2.08
   5   3  -5   32.39    3.02
   5   3  -5   38.55    2.15
   5   3  -5   34.15    3.03
   5   3  -5   40.55    4.08
  -5  -3   5   41.83    3.68
  -5  -3   5   38.00    3.75
  -5  -3   5   32.93    2.92
  -5  -3   5   34.80    2.84
  -5  -3   5   39.59    2.20
  -5  -3   5   39.59    2.20
  -5  -3   5   32.93    2.92
  -5  -3   5   38.00    3.75
   4   3  -5   88.16    3.86
   4   3  -5   92.06    4.17
   4   3  -5   93.81    3.45
   4   3  -5   88.16    3.86
   4   3  -5   92.06    4.17
   4   3  -5   98.69    3.37
   4   3  -5   98.69    3.37
  -4  -3   5   95.37    4.75
  -4  -3   5   89.14    3.97
  -4  -3   5   93.35    3.29
  -4  -3   5   95.37    4.75
  -4  -3   5   89.27    3.74
  -4  -3   5   96.54    3.46
  -4  -3   5   90.22    2.46
  -4  -3   5   89.27    3.74
  -4  -3   5   93.35    3.29
  -4  -3   5   90.30    2.46
   3   3  -5    7.36    1.84
   3   3  -5   10.25    1.37
   3   3  -5    8.54    1.49
   3   3  -5    7.36    1.84
   3   3  -5    8.54    1.49
   3   3  -5    8.75    1.47
   3   3  -5    8.92    1.56
   3   3  -5    9.98    1.33
   3   3  -5    9.98    1.33
  -3  -3   5    9.34    1.47
  -3  -3   5    9.34    1.47
  -3  -3   5   11.05    1.53
  -3  -3   5    7.75    1.82
  -3  -3   5    8.60    1.59
  -3  -3   5    7.75    1.82
   2   3  -5   68.45    2.45
   2   3  -5   77.69    2.60
   2   3  -5   77.69    2.60
   2   3  -5   72.16    3.10
   2   3  -5   68.45    2.45
   2   3  -5   72.16    3.10
   2   3  -5   68.15    2.63
   2   3  -5   70.89    2.60
  -2  -3   5   73.95    3.27
  -2  -3   5   73.20    2.68
  -2  -3   5   72.11    2.59
  -2  -3   5   73.95    3.27
  -2  -3   5   73.20    2.68
  -2  -3   5   74.16    2.54
  -2  -3   5   74.16    2.54
  -2  -3   5   65.31    2.66
   1   3  -5  111.70    3.26
   1   3  -5  106.78    2.31
   1   3  -5  109.83    3.28
   1   3  -5  106.78    2.31
   1   3  -5  104.47    3.16
   1   3  -5  111.70    3.26
   1   3  -5  104.47    3.16
   1   3  -5  112.55    3.32
  -1  -3   5  110.47    3.69
  -1  -3   5  105.72    3.20
  -1  -3   5  108.23    3.29
  -1  -3   5  105.72    3.20
  -1  -3   5  102.38    3.21
  -1  -3   5  111.02    3.24
  -1  -3   5  111.02    3.24
  -1  -3   5  110.47    3.69
   0   3  -5   68.59    2.41
   0   3  -5   68.59    2.41
   0   3  -5   69.78    2.15
   0   3  -5   66.09    2.44
   0   3  -5   70.79    2.70
   0   3  -5   66.09    2.44
   0   3  -5   69.77    2.15
   0   3  -5   70.59    2.55
   0  -3   5   66.68    2.65
   0  -3   5   68.97    2.60
   0  -3   5   68.97    2.60
   0  -3   5   65.91    2.52
   0  -3   5   67.12    2.47
   0  -3   5   68.76    2.67
   0  -3   5   66.68    2.65
   0  -3   5   67.12    2.47
  -1   3  -5   45.32    2.27
  -1   3  -5   40.56    2.39
  -1   3  -5   45.44    2.19
  -1   3  -5   41.69    2.04
  -1   3  -5   41.69    2.04
  -1   3  -5   45.44    2.19
   1  -3   5   43.36    2.21
   1  -3   5   41.37    2.36
   1  -3   5   41.46    2.47
   1  -3   5   45.23    2.15
   1  -3   5   41.37    2.36
   1  -3   5   45.23    2.15
  -2   3  -5    9.13    1.81
  -2   3  -5    7.90    1.42
  -2   3  -5    6.16    1.15
  -2   3  -5    9.13    1.81
  -2   3  -5    6.16    1.15
  -2   3  -5    9.11    1.60
   2  -3   5    9.91    1.61
   2  -3   5    7.32    1.83
   2  -3   5    8.30    2.05
   2  -3   5    8.30    2.05
   2  -3   5    8.83    1.49
   2  -3   5    8.83    1.49
  -3   3  -5   46.76    3.48
  -3   3  -5   43.73    3.39
  -3   3  -5   46.76    2.91
  -3   3  -5   42.67    2.52
  -3   3  -5   42.67    2.52
  -3   3  -5   43.73    3.39
   3  -3   5   42.01    3.36
   3  -3   5   47.78    2.84
   3  -3   5   44.40    2.74
   3  -3   5   43.87    3.55
   3  -3   5   47.78    2.84
   3  -3   5   44.40    2.74
   3  -3   5   42.01    3.36
   3  -3   5   40.71    2.93
  -4   3  -5   34.81    3.12
  -4   3  -5   29.74    3.05
  -4   3  -5   29.74    3.05
  -4   3  -5   28.76    3.83
  -4   3  -5   28.56    3.99
  -4   3  -5   35.75    2.61
  -4   3  -5   35.75    2.61
   4  -3   5   30.94    3.04
   4  -3   5   32.77    2.56
   4  -3   5   29.17    3.57
   4  -3   5   32.42    2.92
   4  -3   5   37.38    3.22
   4  -3   5   32.77    2.56
   4  -3   5   37.38    3.22
   4  -3   5   32.42    2.92
  -5   3  -5   46.98    3.95
  -5   3  -5   49.80    3.45
  -5   3  -5   48.41    4.72
  -5   3  -5   48.41    4.72
  -5   3  -5   49.80    3.45
  -5   3  -5   46.05    4.66
  -5   3  -5   46.16    4.88
   5  -3   5   49.20    4.67
   5  -3   5   36.20    4.48
   5  -3   5   46.06    3.83
   5  -3   5   46.06    3.83
   5  -3   5   49.20    4.67
   5  -3   5   49.88    3.38
   5  -3   5   49.93    4.24
   5  -3   5   49.88    3.38
   6   2  -5   37.01    4.79
   6   2  -5   38.65    3.74
   6   2  -5   49.73    3.71
   6   2  -5   37.01    4.79
   6   2  -5   41.94    3.93
   6   2  -5   44.38    3.89
   6   2  -5   38.65    3.74
   6   2  -5   42.01    4.09
   6   2  -5   49.73    3.71
  -6  -2   5   46.65    4.63
  -6  -2   5   46.65    4.63
  -6  -2   5   38.72    4.18
  -6  -2   5   26.40    6.10
  -6  -2   5   26.40    6.10
  -6  -2   5   44.10    4.02
   5   2  -5   39.35    3.61
   5   2  -5   45.38    2.56
   5   2  -5   48.66    3.20
   5   2  -5   45.38    2.56
   5   2  -5   43.28    1.28
   5   2  -5   42.68    1.27
   5   2  -5   48.12    3.55
   5   2  -5   43.26    1.28
   5   2  -5   39.51    3.49
   5   2  -5   48.12    3.55
  -5  -2   5   53.99    4.34
  -5  -2   5   50.45    4.01
  -5  -2   5   53.11    3.22
  -5  -2   5   53.99    4.34
  -5  -2   5   44.16    2.92
  -5  -2   5   44.16    2.92
   4   2  -5   57.84    3.78
   4   2  -5   57.41    3.78
   4   2  -5   67.14    2.85
   4   2  -5   57.41    3.78
   4   2  -5   58.59    2.80
   4   2  -5   59.28    3.28
   4   2  -5   57.84    3.78
   4   2  -5   67.14    2.85
   4   2  -5   59.27    3.16
  -4  -2   5   61.03    3.28
  -4  -2   5   61.03    3.28
  -4  -2   5   59.07    3.30
  -4  -2   5   65.70    2.81
  -4  -2   5   49.09    3.66
  -4  -2   5   56.62    2.81
  -4  -2   5   49.09    3.66
  -4  -2   5   65.70    2.81
   3   2  -5    8.72    1.86
   3   2  -5    8.72    1.86
   3   2  -5    8.33    1.21
   3   2  -5    6.38    1.39
   3   2  -5    6.33    1.07
   3   2  -5    7.08    1.23
   3   2  -5    6.32    1.33
   3   2  -5    8.33    1.21
   3   2  -5    6.33    1.07
  -3  -2   5    7.78    1.79
  -3  -2   5    7.50    1.55
  -3  -2   5    7.78    1.79
  -3  -2   5    8.09    1.22
  -3  -2   5    6.14    1.55
  -3  -2   5    7.50    1.55
  -3  -2   5    5.90    1.27
  -3  -2   5    8.09    1.22
   2   2  -5   54.31    2.14
   2   2  -5   57.50    2.40
   2   2  -5   51.84    2.75
   2   2  -5   54.31    2.14
   2   2  -5   61.19    2.28
   2   2  -5   51.84    2.75
  -2  -2   5   55.24    2.23
  -2  -2   5   54.91    2.00
  -2  -2   5   54.95    2.19
  -2  -2   5   52.70    2.29
  -2  -2   5   52.70    2.29
  -2  -2   5   54.14    2.64
  -2  -2   5   54.14    2.64
  -2  -2   5   54.91    2.00
   1   2  -5  315.77    7.09
   1   2  -5  309.27    7.13
   1   2  -5  312.10    7.23
   1   2  -5  315.77    7.09
   1   2  -5  323.36    7.21
   1   2  -5  309.27    7.13
  -1  -2   5  325.14    7.70
  -1  -2   5  325.14    7.70
  -1  -2   5  309.71    7.10
  -1  -2   5  312.73    7.19
  -1  -2   5  308.83    7.16
  -1  -2   5  314.99    7.10
  -1  -2   5  314.99    7.10
  -1  -2   5  309.71    7.10
   0   2  -5  245.73    5.34
   0   2  -5  245.72    5.34
   0   2  -5  242.58    5.82
   0   2  -5  238.75    5.73
   0   2  -5  238.75    5.73
   0   2  -5  239.56    5.89
   0   2  -5  248.61    5.85
   0   2  -5  248.61    5.85
   0  -2   5  242.89    5.82
   0  -2   5  242.89    5.82
   0  -2   5  244.81    6.03
   0  -2   5  240.59    5.89
   0  -2   5  245.44    5.76
   0  -2   5  245.44    5.76
   0  -2   5  244.81    6.03
   0  -2   5  238.45    5.81
  -1   2  -5    7.79    1.10
  -1   2  -5    7.44    1.09
  -1   2  -5    7.79    1.10
  -1   2  -5    6.47    1.14
  -1   2  -5    7.74    1.07
  -1   2  -5    7.16    1.29
  -1   2  -5    7.74    1.07
  -1   2  -5    7.44    1.09
   1  -2   5    6.96    1.05
   1  -2   5    6.93    1.11
   1  -2   5    7.36    0.96
   1  -2   5    7.36    0.96
   1  -2   5    6.96    1.05
   1  -2   5    6.12    1.24
  -2   2  -5   49.10    2.12
  -2   2  -5   46.11    2.34
  -2   2  -5   47.00    2.51
  -2   2  -5   46.11    2.34
  -2   2  -5   49.10    2.12
  -2   2  -5   53.04    2.78
  -2   2  -5   47.01    2.51
  -2   2  -5   51.48    2.50
   2  -2   5   49.47    2.14
   2  -2   5   45.17    2.74
   2  -2   5   49.47    2.14
   2  -2   5   52.64    2.69
   2  -2   5   52.64    2.69
   2  -2   5   47.22    2.42
  -3   2  -5    4.64    1.47
  -3   2  -5    4.64    1.47
  -3   2  -5    2.51    1.25
  -3   2  -5    1.73    1.28
  -3   2  -5    4.60    1.28
  -3   2  -5    2.51    1.25
   3  -2   5    2.95    1.23
   3  -2   5    2.74    1.41
   3  -2   5    4.97    1.53
   3  -2   5    3.26    1.67
   3  -2   5    2.74    1.41
   3  -2   5    4.97    1.53
  -4   2  -5  127.82    4.69
  -4   2  -5  138.11    5.16
  -4   2  -5  138.15    5.16
  -4   2  -5  129.99    4.98
  -4   2  -5  127.82    4.69
  -4   2  -5  135.91    4.63
  -4   2  -5  129.99    4.98
   4  -2   5  132.55    5.05
   4  -2   5  132.55    5.05
   4  -2   5  130.47    4.79
   4  -2   5  125.59    5.50
   4  -2   5  136.04    4.99
   4  -2   5  136.04    4.99
   4  -2   5  140.69    4.77
   4  -2   5  140.69    4.77
  -5   2  -5   15.43    2.76
  -5   2  -5   18.44    2.70
  -5   2  -5   13.87    2.39
  -5   2  -5   20.26    3.50
  -5   2  -5   18.44    2.70
  -5   2  -5   15.44    3.15
  -5   2  -5   15.42    3.15
  -5   2  -5   19.87    3.32
  -5   2  -5   15.43    2.76
   5  -2   5   16.55    3.30
   5  -2   5   17.22    2.77
   5  -2   5   16.55    3.30
   5  -2   5   13.17    2.62
   5  -2   5   17.22    2.77
   5  -2   5   13.23    2.60
   5  -2   5   14.12    3.31
   5  -2   5   13.23    2.60
   6   1  -5    7.41    2.98
   6   1  -5    7.41    2.98
   6   1  -5    6.79    2.85
   6   1  -5    4.79    2.59
   6   1  -5    5.50    3.76
   6   1  -5    6.86    3.00
   6   1  -5    1.39    2.54
   6   1  -5    5.50    3.76
   6   1  -5    1.39    2.54
  -6  -1   5    3.17    3.02
  -6  -1   5    7.67    3.04
  -6  -1   5    7.67    3.04
  -6  -1   5   10.18    3.66
  -6  -1   5   10.18    3.66
  -6  -1   5    9.52    2.63
   5   1  -5   80.83    4.32
   5   1  -5   98.68    4.06
   5   1  -5   80.83    4.32
   5   1  -5   89.73    4.12
   5   1  -5   98.68    4.06
   5   1  -5   86.42    4.37
   5   1  -5   85.95    4.50
  -5  -1   5   93.99    4.07
  -5  -1   5   92.76    4.60
  -5  -1   5   93.10    4.59
  -5  -1   5   92.76    4.60
  -5  -1   5   93.10    4.59
  -5  -1   5  103.21    4.92
   4   1  -5  106.52    4.17
   4   1  -5  102.89    4.18
   4   1  -5  101.93    4.31
   4   1  -5  102.63    4.30
   4   1  -5  101.93    4.31
   4   1  -5  106.52    4.17
   4   1  -5  108.75    3.66
   4   1  -5  103.49    3.49
   4   1  -5  103.49    3.49
  -4  -1   5   98.82    4.69
  -4  -1   5  102.84    4.01
  -4  -1   5  100.08    3.79
  -4  -1   5   98.82    4.69
  -4  -1   5  100.08    3.79
   3   1  -5    1.08    0.78
   3   1  -5    0.59    1.29
   3   1  -5    1.57    1.17
   3   1  -5   -0.02    0.98
   3   1  -5    2.62    1.55
   3   1  -5    0.59    1.23
   3   1  -5    1.57    1.17
   3   1  -5    1.08    0.78
   3   1  -5    2.62    1.55
  -3  -1   5    0.69    0.94
  -3  -1   5   -0.23    1.50
  -3  -1   5    0.70    1.23
  -3  -1   5   -0.80    0.92
  -3  -1   5    0.69    0.94
  -3  -1   5   -0.80    0.92
  -3  -1   5   -0.23    1.50
  -3  -1   5   -0.26    1.01
   2   1  -5   78.82    2.49
   2   1  -5   80.36    2.66
   2   1  -5   73.69    2.75
   2   1  -5   73.69    2.75
   2   1  -5   78.82    2.49
   2   1  -5   75.94    3.22
   2   1  -5   75.94    3.22
  -2  -1   5   78.24    2.66
  -2  -1   5   79.03    2.89
  -2  -1   5   80.28    2.59
  -2  -1   5   81.08    3.38
  -2  -1   5   78.24    2.66
  -2  -1   5   79.65    2.68
  -2  -1   5   81.08    3.38
  -2  -1   5   80.28    2.59
   1   1  -5  146.01    3.80
   1   1  -5  145.80    3.86
   1   1  -5  144.40    3.94
   1   1  -5  146.01    3.80
   1   1  -5  145.80    3.86
   1   1  -5  148.72    3.88
  -1  -1   5  149.05    3.75
  -1  -1   5  149.05    3.75
  -1  -1   5  153.80    3.89
  -1  -1   5  140.67    3.85
  -1  -1   5  148.37    4.39
  -1  -1   5  141.18    3.78
  -1  -1   5  148.37    4.39
  -1  -1   5  141.18    3.78
  -1  -1   5  148.41    3.28
  -1  -1   5  148.41    3.28
   0   1  -5  126.17    3.42
   0   1  -5  115.75    2.93
   0   1  -5  123.05    3.26
   0   1  -5  119.55    3.35
   0   1  -5  120.92    3.22
   0   1  -5  123.05    3.26
   0   1  -5  120.92    3.22
   0   1  -5  115.74    2.93
   0  -1   5  119.22    3.23
   0  -1   5  124.46    3.41
   0  -1   5  121.92    3.30
   0  -1   5  119.22    3.23
   0  -1   5  121.92    3.30
   0  -1   5  119.60    3.36
  -1   1  -5   18.33    1.36
  -1   1  -5   18.33    1.36
  -1   1  -5   16.20    1.21
  -1   1  -5   20.14    1.33
  -1   1  -5   18.12    1.25
  -1   1  -5   18.12    1.25
  -1   1  -5   19.19    1.56
  -1   1  -5   20.14    1.33
   1  -1   5   16.01    1.33
   1  -1   5   17.86    1.26
   1  -1   5   17.86    1.26
   1  -1   5   17.02    1.22
   1  -1   5   16.01    1.33
   1  -1   5   18.29    1.55
  -2   1  -5  139.74    4.25
  -2   1  -5  140.97    4.05
  -2   1  -5  140.97    4.05
  -2   1  -5  138.90    3.91
  -2   1  -5  133.06    3.88
  -2   1  -5  137.38    4.04
  -2   1  -5  137.39    4.03
  -2   1  -5  133.06    3.88
   2  -1   5  139.35    4.26
   2  -1   5  130.32    3.85
   2  -1   5  135.90    4.01
   2  -1   5  135.90    4.01
   2  -1   5  130.32    3.85
   2  -1   5  139.57    3.99
  -3   1  -5   58.41    2.60
  -3   1  -5   63.01    2.71
  -3   1  -5   63.01    2.71
  -3   1  -5   63.47    3.05
  -3   1  -5   59.04    2.76
  -3   1  -5   56.40    3.09
  -3   1  -5   59.04    2.76
  -3   1  -5   63.47    3.05
   3  -1   5   60.46    3.08
   3  -1   5   55.91    2.78
   3  -1   5   53.22    3.13
   3  -1   5   60.41    2.83
   3  -1   5   61.26    2.69
   3  -1   5   60.41    2.83
   3  -1   5   61.26    2.69
   3  -1   5   60.46    3.08
  -4   1  -5   49.64    3.43
  -4   1  -5   43.13    2.49
  -4   1  -5   49.64    3.43
  -4   1  -5   42.85    2.86
  -4   1  -5   42.85    2.86
  -4   1  -5   48.79    3.05
  -4   1  -5   43.13    2.49
   4  -1   5   56.72    3.55
   4  -1   5   48.09    2.89
   4  -1   5   45.04    2.98
   4  -1   5   49.47    3.63
   4  -1   5   48.09    2.89
   4  -1   5   56.72    3.55
  -5   1  -5   34.26    3.63
  -5   1  -5   30.07    2.87
  -5   1  -5   34.26    3.63
  -5   1  -5   28.15    3.33
  -5   1  -5   31.12    3.59
  -5   1  -5   30.07    2.87
  -5   1  -5   27.14    2.92
  -5   1  -5   30.80    3.44
  -5   1  -5   28.16    3.33
   5  -1   5   28.36    2.47
   5  -1   5   28.36    2.47
   5  -1   5   28.20    2.80
   5  -1   5   33.11    3.46
   5  -1   5   23.15    3.20
   5  -1   5   29.37    3.25
   5  -1   5   29.37    3.25
   5  -1   5   23.15    3.20
  -6   1  -5   -1.44    2.52
  -6   1  -5    4.59    3.60
  -6   1  -5    4.59    3.60
  -6   1  -5    1.21    2.66
  -6   1  -5    0.43    3.21
  -6   1  -5    1.18    2.30
  -6   1  -5    1.17    2.30
  -6   1  -5    0.42    3.07
  -6   1  -5    1.21    2.66
   6  -1   5    1.37    4.47
   6  -1   5    2.49    2.63
   6  -1   5    2.49    2.63
   6  -1   5    0.75    2.67
   6  -1   5    2.22    3.41
   6  -1   5    1.37    4.47
   6  -1   5    2.22    3.41
   6  -1   5   -0.57    3.60
   6   0  -5    2.85    3.87
   6   0  -5    5.45    3.11
   6   0  -5   -0.21    3.14
   6   0  -5    2.85    3.87
   6   0  -5   -0.21    2.98
   6   0  -5    4.85    2.79
   6   0  -5    5.45    3.11
   6   0  -5    6.31    2.74
   6   0  -5    6.31    2.74
  -6   0   5   -3.10    3.33
  -6   0   5    8.16    3.16
  -6   0   5    3.78    2.78
  -6   0   5    6.79    3.26
  -6   0   5    3.78    2.78
  -6   0   5    8.16    3.16
  -6   0   5   -3.10    3.33
   5   0  -5    8.17    2.23
   5   0  -5    8.15    2.13
   5   0  -5   14.23    1.96
   5   0  -5   14.72    2.27
   5   0  -5   11.37    3.25
   5   0  -5   11.37    3.25
   5   0  -5   10.86    2.38
   5   0  -5   14.72    2.27
   5   0  -5   14.23    1.96
  -5   0   5   10.65    2.36
  -5   0   5   12.16    2.25
  -5   0   5   14.42    3.10
  -5   0   5   10.65    2.36
  -5   0   5   12.16    2.25
   4   0  -5   35.50    2.52
   4   0  -5   39.15    3.38
   4   0  -5   39.15    3.38
   4   0  -5   29.70    2.74
   4   0  -5   35.50    2.52
   4   0  -5   34.08    2.85
   4   0  -5   34.65    2.70
   4   0  -5   33.96    2.95
   4   0  -5   29.70    2.74
  -4   0   5   31.40    2.84
  -4   0   5   37.36    2.24
  -4   0   5   32.78    2.85
  -4   0   5   37.36    2.24
  -4   0   5   32.78    2.85
  -4   0   5   31.40    2.84
  -4   0   5   34.61    3.05
   3   0  -5  213.33    5.46
   3   0  -5  212.84    6.22
   3   0  -5  213.33    5.46
   3   0  -5  212.64    5.96
   3   0  -5  214.07    5.49
   3   0  -5  199.96    5.70
   3   0  -5  212.84    6.22
   3   0  -5  213.26    5.84
   3   0  -5  199.96    5.70
  -3   0   5  201.00    5.88
  -3   0   5  205.91    5.66
  -3   0   5  205.91    5.66
  -3   0   5  203.86    6.12
  -3   0   5  203.86    6.12
  -3   0   5  217.17    5.60
   2   0  -5   34.40    2.36
   2   0  -5   35.75    2.10
   2   0  -5   34.40    2.36
   2   0  -5   35.49    2.02
   2   0  -5   36.12    1.89
   2   0  -5   35.73    1.63
   2   0  -5   35.73    1.63
   2   0  -5   42.68    2.11
   2   0  -5   42.68    2.11
  -2   0   5   38.70    2.49
  -2   0   5   34.83    1.62
  -2   0   5   35.08    1.87
  -2   0   5   38.70    2.49
  -2   0   5   34.83    1.62
  -2   0   5   35.77    2.03
  -2   0   5   35.77    2.03
  -2   0   5   35.73    1.91
   1   0  -5  282.01    6.33
   1   0  -5  282.01    6.33
   1   0  -5  280.85    6.53
   1   0  -5  277.66    6.40
   1   0  -5  277.66    6.40
   1   0  -5  279.88    6.39
  -1   0   5  278.93    6.39
  -1   0   5  280.42    6.94
  -1   0   5  280.42    6.94
  -1   0   5  278.97    6.52
  -1   0   5  282.55    6.33
  -1   0   5  278.20    6.41
  -1   0   5  282.55    6.33
  -1   0   5  278.20    6.41
  -1   0   5  279.69    5.96
  -1   0   5  279.72    5.96
   0   0  -5   19.85    1.08
   0   0  -5   17.09    1.03
   0   0  -5   19.36    1.29
   0   0  -5   19.85    1.08
   0   0  -5   19.73    1.26
   0   0  -5   17.81    1.05
   0   0  -5   17.09    1.03
   0   0  -5   17.81    1.05
   0   0   5   18.59    1.06
   0   0   5   16.66    1.28
   0   0   5   17.33    1.18
   0   0   5   19.87    1.07
   0   0   5   18.59    1.06
   0   0   5   17.33    1.18
   0   0   5   18.43    1.24
   0   0   5   19.87    1.07
  -1   0  -5  107.76    2.99
  -1   0  -5  103.96    2.94
  -1   0  -5  105.36    3.03
  -1   0  -5  106.79    2.98
  -1   0  -5  103.95    2.94
  -1   0  -5  115.88    3.16
  -1   0  -5  107.76    2.99
  -1   0  -5  106.79    2.98
   1   0   5  108.63    3.14
   1   0   5  107.01    2.91
   1   0   5  101.65    3.09
   1   0   5  107.01    2.91
   1   0   5  106.11    3.05
   1   0   5  106.11    3.05
   1   0   5  104.66    2.96
   1   0   5  101.65    3.09
  -2   0  -5  120.45    3.41
  -2   0  -5  119.85    3.49
  -2   0  -5  120.02    3.49
  -2   0  -5  120.02    3.49
  -2   0  -5  120.45    3.41
  -2   0  -5  124.33    3.69
  -2   0  -5  117.41    3.57
  -2   0  -5  117.41    3.57
   2   0   5  121.23    3.60
   2   0   5  121.07    3.69
   2   0   5  115.29    3.37
   2   0   5  115.29    3.37
   2   0   5  112.05    3.43
   2   0   5  121.23    3.60
  -3   0  -5   52.25    2.44
  -3   0  -5   52.25    2.44
  -3   0  -5   50.08    2.40
  -3   0  -5   52.56    2.69
  -3   0  -5   55.16    2.58
  -3   0  -5   52.56    2.68
  -3   0  -5   49.28    2.49
  -3   0  -5   50.08    2.40
   3   0   5   53.05    2.71
   3   0   5   56.25    2.85
   3   0   5   53.75    2.19
   3   0   5   53.22    2.32
   3   0   5   53.75    2.19
   3   0   5   52.56    2.65
   3   0   5   53.05    2.71
   3   0   5   52.56    2.65
  -4   0  -5   19.35    2.26
  -4   0  -5   20.72    2.36
  -4   0  -5   19.35    2.26
  -4   0  -5   19.42    1.91
  -4   0  -5   20.73    2.36
  -4   0  -5   19.42    1.91
  -4   0  -5   18.79    2.03
   4   0   5   21.18    2.11
   4   0   5   21.24    2.11
   4   0   5   20.00    2.16
   4   0   5   21.16    2.36
   4   0   5   21.24    2.11
   4   0   5   22.25    2.10
   4   0   5   21.16    2.36
   4   0   5   22.25    2.10
  -5   0  -5   52.49    4.01
  -5   0  -5   47.67    3.25
  -5   0  -5   40.79    3.59
  -5   0  -5   47.19    3.40
  -5   0  -5   40.79    3.59
  -5   0  -5   47.67    3.25
  -5   0  -5   52.06    3.87
   5   0   5   43.22    3.78
   5   0   5   43.22    3.78
   5   0   5   49.25    3.29
   5   0   5   45.90    4.01
   5   0   5   49.04    4.09
   5   0   5   49.37    3.10
   5   0   5   49.37    3.10
   5   0   5   49.04    4.09
  -6   0  -5   47.57    3.87
  -6   0  -5   38.23    3.57
  -6   0  -5   38.71    4.06
  -6   0  -5   40.45    3.65
  -6   0  -5   45.28    4.10
  -6   0  -5   47.57    3.87
  -6   0  -5   45.29    4.11
  -6   0  -5   38.51    3.89
  -6   0  -5   40.45    3.65
   6   0   5   43.39    3.96
   6   0   5   49.80    4.28
   6   0   5   49.80    4.28
   6   0   5   40.04    4.31
   6   0   5   38.60    3.47
   6   0   5   38.60    3.47
   6  -1  -5   -4.73    3.04
   6  -1  -5   -0.63    3.27
   6  -1  -5   -0.63    3.27
   6  -1  -5    3.74    2.98
   6  -1  -5    2.35    3.09
   6  -1  -5    3.74    2.98
   6  -1  -5   -4.76    3.18
   6  -1  -5    0.51    3.88
   6  -1  -5    0.51    3.88
  -6   1   5   -1.73    3.19
  -6   1   5    0.41    2.80
  -6   1   5   -1.73    3.19
  -6   1   5    3.72    3.41
  -6   1   5    6.37    2.41
  -6   1   5    7.95    2.66
  -6   1   5    7.95    2.66
  -6   1   5    6.37    2.41
  -6   1   5    0.42    2.97
   5  -1  -5   26.01    4.39
   5  -1  -5   21.81    3.62
   5  -1  -5   24.16    2.85
   5  -1  -5   32.43    3.32
   5  -1  -5   26.01    4.39
   5  -1  -5   24.16    2.85
   5  -1  -5   32.43    3.32
   5  -1  -5   21.62    3.45
   5  -1  -5   28.77    2.98
  -5   1   5   27.03    3.44
  -5   1   5   28.70    2.65
  -5   1   5   23.59    3.17
  -5   1   5   27.03    3.44
  -5   1   5   25.31    2.86
  -5   1   5   24.81    2.70
  -5   1   5   29.39    3.38
  -5   1   5   23.59    3.17
  -5   1   5   28.70    2.65
   4  -1  -5   30.83    2.60
   4  -1  -5   33.08    2.56
   4  -1  -5   37.03    3.19
   4  -1  -5   37.03    3.19
   4  -1  -5   36.42    2.36
   4  -1  -5   36.42    2.36
   4  -1  -5   33.08    2.56
   4  -1  -5   30.64    2.80
   4  -1  -5   30.64    2.91
  -4   1   5   34.72    2.96
  -4   1   5   35.45    3.10
  -4   1   5   33.26    2.27
  -4   1   5   35.45    3.10
  -4   1   5   34.72    2.96
  -4   1   5   34.20    3.14
  -4   1   5   33.26    2.27
   3  -1  -5   28.55    1.38
   3  -1  -5   33.41    2.78
   3  -1  -5   29.85    2.01
   3  -1  -5   34.34    2.27
   3  -1  -5   27.97    1.80
   3  -1  -5   29.85    2.01
   3  -1  -5   33.51    2.67
   3  -1  -5   28.56    1.38
   3  -1  -5   27.97    1.80
   3  -1  -5   33.55    2.58
   3  -1  -5   28.34    1.36
   3  -1  -5   33.41    2.78
  -3   1   5   34.46    2.76
  -3   1   5   29.17    2.52
  -3   1   5   34.53    1.94
  -3   1   5   34.53    1.94
  -3   1   5   34.46    2.76
  -3   1   5   27.22    1.97
  -3   1   5   27.22    1.97
   2  -1  -5   66.82    2.41
   2  -1  -5   70.36    2.50
   2  -1  -5   64.00    2.51
   2  -1  -5   70.36    2.50
   2  -1  -5   62.34    2.69
   2  -1  -5   70.01    3.01
   2  -1  -5   62.52    2.79
   2  -1  -5   70.01    3.01
   2  -1  -5   64.00    2.51
  -2   1   5   61.99    2.50
  -2   1   5   66.59    2.83
  -2   1   5   69.15    3.20
  -2   1   5   61.99    2.50
  -2   1   5   69.15    3.20
  -2   1   5   69.49    2.44
  -2   1   5   69.00    2.48
  -2   1   5   69.00    2.48
   1  -1  -5  252.25    5.93
   1  -1  -5  252.25    5.93
   1  -1  -5  246.29    5.73
   1  -1  -5  246.29    5.73
   1  -1  -5  252.67    5.81
  -1   1   5  252.19    5.83
  -1   1   5  243.35    5.95
  -1   1   5  243.92    5.88
  -1   1   5  253.98    5.76
  -1   1   5  253.98    5.76
  -1   1   5  251.81    6.45
  -1   1   5  251.81    6.45
  -1   1   5  243.92    5.88
   0  -1  -5   66.79    2.18
   0  -1  -5   71.81    2.21
   0  -1  -5   66.11    2.25
   0  -1  -5   70.88    2.15
   0  -1  -5   66.79    2.18
   0  -1  -5   70.88    2.15
   0   1   5   70.75    2.21
   0   1   5   70.58    2.11
   0   1   5   70.70    2.09
   0   1   5   70.70    2.09
   0   1   5   70.58    2.11
   0   1   5   68.63    2.24
   0   1   5   71.19    2.15
   0   1   5   70.75    2.21
  -1  -1  -5   38.32    1.55
  -1  -1  -5   38.40    1.63
  -1  -1  -5   38.56    1.60
  -1  -1  -5   36.08    1.51
  -1  -1  -5   36.08    1.51
  -1  -1  -5   36.30    1.46
  -1  -1  -5   38.32    1.55
  -1  -1  -5   38.40    1.62
   1   1   5   37.02    1.57
   1   1   5   38.01    1.52
   1   1   5   36.86    1.55
   1   1   5   37.42    1.68
   1   1   5   36.86    1.55
   1   1   5   37.42    1.68
   1   1   5   33.14    1.47
   1   1   5   33.14    1.47
  -2  -1  -5  248.13    6.04
  -2  -1  -5  259.17    6.11
  -2  -1  -5  250.22    5.92
  -2  -1  -5  252.44    5.97
  -2  -1  -5  248.13    6.05
  -2  -1  -5  252.44    5.97
  -2  -1  -5  258.63    5.88
  -2  -1  -5  258.63    5.88
   2   1   5  257.55    6.11
   2   1   5  248.09    6.23
   2   1   5  245.50    5.91
   2   1   5  256.85    5.86
   2   1   5  248.10    6.23
   2   1   5  261.91    6.06
   2   1   5  261.91    6.06
   2   1   5  256.85    5.86
  -3  -1  -5   16.52    1.43
  -3  -1  -5   16.85    1.55
  -3  -1  -5   18.88    1.75
  -3  -1  -5   16.81    1.49
  -3  -1  -5   15.23    1.68
  -3  -1  -5   16.81    1.49
  -3  -1  -5   18.88    1.76
  -3  -1  -5   16.52    1.43
   3   1   5   14.48    1.71
   3   1   5   14.72    1.60
   3   1   5   14.48    1.71
   3   1   5   14.72    1.60
   3   1   5   15.85    1.72
   3   1   5   15.37    1.19
   3   1   5   18.35    1.56
   3   1   5   15.37    1.19
  -4  -1  -5   18.24    2.12
  -4  -1  -5   19.40    1.87
  -4  -1  -5   18.24    2.12
  -4  -1  -5   18.72    1.92
  -4  -1  -5   14.97    1.93
  -4  -1  -5   19.40    1.87
  -4  -1  -5   14.97    1.93
   4   1   5   18.84    2.19
   4   1   5   13.53    2.46
   4   1   5   17.55    1.83
   4   1   5   18.69    1.82
   4   1   5   19.16    2.12
   4   1   5   18.69    1.82
   4   1   5   19.16    2.12
   4   1   5   13.53    2.46
  -5  -1  -5   21.09    2.67
  -5  -1  -5   23.83    2.47
  -5  -1  -5   21.09    2.67
  -5  -1  -5   25.53    2.30
  -5  -1  -5   25.53    2.30
  -5  -1  -5   21.97    2.69
  -5  -1  -5   22.54    2.81
   5   1   5   21.23    2.01
   5   1   5   29.40    3.23
   5   1   5   28.16    2.84
   5   1   5   21.23    2.01
   5   1   5   22.95    2.81
   5   1   5   29.40    3.23
   5   1   5   28.16    2.84
   5   1   5   20.77    2.26
  -6  -1  -5   40.01    3.65
  -6  -1  -5   41.19    3.55
  -6  -1  -5   43.94    3.87
  -6  -1  -5   41.18    3.80
  -6  -1  -5   44.16    4.04
  -6  -1  -5   41.18    3.81
  -6  -1  -5   41.19    3.55
   6   1   5   42.82    3.84
   6   1   5   38.41    3.15
   6   1   5   38.41    3.15
   6   1   5   45.78    6.78
   6   1   5   43.21    4.03
   6   1   5   38.94    3.35
   6   1   5   42.82    3.84
   6   1   5   45.78    6.78
   5  -2  -5   14.82    2.35
   5  -2  -5   17.44    3.00
   5  -2  -5   15.28    3.06
   5  -2  -5   15.36    3.20
   5  -2  -5   14.82    2.35
   5  -2  -5   17.37    2.79
   5  -2  -5   17.44    3.00
  -5   2   5   13.79    3.18
  -5   2   5   13.79    3.18
  -5   2   5    9.39    2.61
  -5   2   5   15.53    2.38
  -5   2   5   15.53    2.38
  -5   2   5    6.19    2.80
  -5   2   5   17.22    3.33
  -5   2   5    6.19    2.80
  -5   2   5    9.25    2.47
   4  -2  -5   99.42    4.21
   4  -2  -5  101.72    4.16
   4  -2  -5   99.66    4.69
   4  -2  -5  101.72    4.16
   4  -2  -5   98.87    4.43
   4  -2  -5   98.87    4.43
   4  -2  -5   99.66    4.69
   4  -2  -5   92.90    4.39
   4  -2  -5   92.35    4.52
  -4   2   5  102.10    5.00
  -4   2   5  102.10    5.00
  -4   2   5  100.84    4.15
  -4   2   5  101.79    4.66
  -4   2   5  101.67    4.25
  -4   2   5  100.65    4.09
  -4   2   5  100.84    4.15
   3  -2  -5    3.96    1.45
   3  -2  -5    3.49    1.71
   3  -2  -5    3.49    1.71
   3  -2  -5    4.79    1.25
   3  -2  -5    1.73    1.37
   3  -2  -5    2.27    1.66
   3  -2  -5    4.79    1.25
   3  -2  -5    2.27    1.74
   3  -2  -5    1.73    1.37
  -3   2   5    3.34    1.73
  -3   2   5    5.26    1.38
  -3   2   5    3.12    1.59
  -3   2   5    3.12    1.59
  -3   2   5    5.26    1.38
  -3   2   5    4.92    1.50
  -3   2   5    4.92    1.50
   2  -2  -5   26.51    1.63
   2  -2  -5   26.51    1.62
   2  -2  -5   27.32    2.04
   2  -2  -5   26.22    1.76
   2  -2  -5   27.32    2.04
   2  -2  -5   28.77    2.13
   2  -2  -5   26.05    2.13
   2  -2  -5   26.05    2.13
   2  -2  -5   28.83    2.22
   2  -2  -5   26.22    1.76
   2  -2  -5   23.82    1.79
   2  -2  -5   27.67    1.64
  -2   2   5   26.63    2.35
  -2   2   5   26.63    2.35
  -2   2   5   24.35    1.72
  -2   2   5   24.35    1.72
  -2   2   5   27.45    2.15
   1  -2  -5  231.28    5.38
   1  -2  -5  230.37    5.62
   1  -2  -5  234.51    5.45
   1  -2  -5  225.71    5.50
   1  -2  -5  225.71    5.50
   1  -2  -5  231.28    5.38
   1  -2  -5  230.15    5.53
  -1   2   5  218.35    5.90
  -1   2   5  218.35    5.90
  -1   2   5  229.49    5.57
  -1   2   5  229.49    5.57
  -1   2   5  227.38    5.32
  -1   2   5  227.38    5.32
  -1   2   5  231.99    5.65
  -1   2   5  224.74    5.39
   0  -2  -5  150.87    3.74
   0  -2  -5  150.87    3.74
   0  -2  -5  149.05    3.64
   0  -2  -5  147.68    3.68
   0  -2  -5  153.86    3.81
   0  -2  -5  149.05    3.64
   0   2   5  149.20    3.75
   0   2   5  149.20    3.75
   0   2   5  146.94    3.69
   0   2   5  149.94    3.61
   0   2   5  145.95    3.68
   0   2   5  145.83    3.68
   0   2   5  149.94    3.61
   0   2   5  149.19    3.79
  -1  -2  -5   23.04    1.19
  -1  -2  -5   20.51    1.23
  -1  -2  -5   22.03    1.14
  -1  -2  -5   22.03    1.14
  -1  -2  -5   20.60    1.34
  -1  -2  -5   21.18    1.12
  -1  -2  -5   21.18    1.12
  -1  -2  -5   20.60    1.34
   1   2   5   19.54    1.10
   1   2   5   20.82    1.24
   1   2   5   21.48    1.03
   1   2   5   20.88    1.16
   1   2   5   19.54    1.10
   1   2   5   21.48    1.03
   1   2   5   21.42    1.17
   1   2   5   20.82    1.24
  -2  -2  -5   36.88    1.53
  -2  -2  -5   32.83    1.45
  -2  -2  -5   32.98    1.61
  -2  -2  -5   32.65    1.53
  -2  -2  -5   34.28    1.66
  -2  -2  -5   32.65    1.53
  -2  -2  -5   34.28    1.66
  -2  -2  -5   32.83    1.45
   2   2   5   35.28    1.63
   2   2   5   35.50    1.59
   2   2   5   33.75    1.43
   2   2   5   35.50    1.59
   2   2   5   33.75    1.43
   2   2   5   33.06    1.92
   2   2   5   35.91    1.53
   2   2   5   33.06    1.92
  -3  -2  -5  249.08    6.29
  -3  -2  -5  245.11    5.81
  -3  -2  -5  245.11    5.81
  -3  -2  -5  249.08    6.29
  -3  -2  -5  245.80    6.04
  -3  -2  -5  248.44    5.87
  -3  -2  -5  245.80    6.04
  -3  -2  -5  242.28    6.11
   3   2   5  246.99    6.06
   3   2   5  247.64    6.36
   3   2   5  240.09    5.86
   3   2   5  249.12    6.47
   3   2   5  246.99    6.06
   3   2   5  246.29    6.16
   3   2   5  247.64    6.36
   3   2   5  242.25    5.78
   3   2   5  242.25    5.78
   3   2   5  249.13    6.46
  -4  -2  -5   26.72    1.95
  -4  -2  -5   26.88    1.99
  -4  -2  -5   28.67    2.48
  -4  -2  -5   28.67    2.48
  -4  -2  -5   26.72    1.95
   4   2   5   24.98    2.20
   4   2   5   30.62    2.43
   4   2   5   25.09    1.87
   4   2   5   25.09    1.87
   4   2   5   26.30    1.93
   4   2   5   24.98    2.20
  -5  -2  -5   59.64    3.02
  -5  -2  -5   59.64    3.02
  -5  -2  -5   61.56    3.46
  -5  -2  -5   59.65    3.56
  -5  -2  -5   59.65    3.56
  -5  -2  -5   56.02    3.11
  -5  -2  -5   61.56    3.46
  -5  -2  -5   55.31    3.54
  -5  -2  -5   55.47    3.67
   5   2   5   54.14    4.01
   5   2   5   54.14    4.01
   5   2   5   64.08    2.97
   5   2   5   64.08    2.97
   5   2   5   62.88    3.68
   5   2   5   58.57    3.42
   5   2   5   62.26    3.21
   5   2   5   58.57    3.42
  -6  -2  -5   -1.24    2.46
  -6  -2  -5    0.14    1.76
  -6  -2  -5    3.04    1.91
  -6  -2  -5    0.13    1.76
  -6  -2  -5   -1.50    1.98
  -6  -2  -5    1.19    2.37
  -6  -2  -5    3.04    1.91
  -6  -2  -5   -1.24    2.46
  -6  -2  -5    1.18    2.27
   6   2   5    0.84    1.80
   6   2   5    3.19    2.52
   6   2   5   -2.63    3.71
   6   2   5   -2.63    3.71
   6   2   5    3.19    2.52
   6   2   5   -1.78    2.53
   6   2   5    2.01    1.95
   6   2   5    0.84    1.80
   5  -3  -5   42.55    4.31
   5  -3  -5   46.46    3.94
   5  -3  -5   42.39    4.13
   5  -3  -5   45.63    3.91
   5  -3  -5   48.11    4.19
   5  -3  -5   48.11    4.19
   5  -3  -5   45.63    3.91
  -5   3   5   39.48    3.56
  -5   3   5   55.13    4.74
  -5   3   5   41.77    3.42
  -5   3   5   39.48    3.56
  -5   3   5   55.13    4.74
  -5   3   5   44.44    3.77
  -5   3   5   50.84    4.49
  -5   3   5   41.77    3.42
  -5   3   5   44.89    3.95
   4  -3  -5   62.66    4.19
   4  -3  -5   56.35    3.13
   4  -3  -5   56.35    3.13
   4  -3  -5   62.47    4.02
   4  -3  -5   51.48    3.67
   4  -3  -5   55.06    4.03
   4  -3  -5   55.06    4.03
  -4   3   5   58.89    3.56
  -4   3   5   55.50    6.20
  -4   3   5   55.36    3.86
  -4   3   5   50.06    2.99
  -4   3   5   55.36    3.86
  -4   3   5   50.51    3.91
  -4   3   5   55.50    6.20
  -4   3   5   59.07    3.71
  -4   3   5   50.06    2.99
   3  -3  -5    7.59    1.97
   3  -3  -5   12.84    1.78
   3  -3  -5   12.84    1.78
   3  -3  -5    8.55    1.77
   3  -3  -5   11.82    1.87
   3  -3  -5   11.82    1.87
   3  -3  -5   11.72    2.17
   3  -3  -5   11.67    2.08
   3  -3  -5    7.59    1.97
  -3   3   5   10.35    1.51
  -3   3   5   10.26    1.99
  -3   3   5   10.35    1.51
  -3   3   5    9.80    2.04
  -3   3   5   10.26    1.99
  -3   3   5   10.82    1.75
  -3   3   5   11.93    2.14
  -3   3   5   10.98    1.85
  -3   3   5    9.80    2.04
   2  -3  -5   41.29    2.48
   2  -3  -5   38.02    1.92
   2  -3  -5   37.94    1.93
   2  -3  -5   40.31    2.62
   2  -3  -5   38.02    1.92
   2  -3  -5   38.31    1.90
   2  -3  -5   40.45    2.53
   2  -3  -5   41.29    2.48
   2  -3  -5   38.31    1.90
   2  -3  -5   39.91    2.17
  -2   3   5   37.99    2.23
  -2   3   5   37.51    2.09
  -2   3   5   36.29    2.27
  -2   3   5   37.51    2.09
  -2   3   5   36.29    2.27
  -2   3   5   39.81    2.19
  -2   3   5   39.81    2.19
   1  -3  -5  387.85    8.73
   1  -3  -5  387.85    8.73
   1  -3  -5  381.05    8.74
   1  -3  -5  387.24    8.56
   1  -3  -5  393.75    8.86
   1  -3  -5  390.02    8.74
   1  -3  -5  386.61    8.50
   1  -3  -5  381.04    8.74
   1  -3  -5  386.61    8.50
   1  -3  -5  395.20    8.77
  -1   3   5  376.28    9.09
  -1   3   5  383.21    8.58
  -1   3   5  381.21    8.44
  -1   3   5  387.61    8.82
  -1   3   5  381.21    8.44
  -1   3   5  394.43    8.76
  -1   3   5  376.28    9.09
  -1   3   5  394.43    8.76
   0  -3  -5   35.74    1.41
   0  -3  -5   35.74    1.41
   0  -3  -5   35.26    1.59
   0  -3  -5   35.33    1.49
   0  -3  -5   31.94    1.76
   0  -3  -5   35.10    1.66
   0  -3  -5   35.26    1.59
   0  -3  -5   32.06    1.80
   0  -3  -5   34.68    1.59
   0  -3  -5   32.06    1.79
   0   3   5   32.32    1.54
   0   3   5   34.51    1.41
   0   3   5   32.32    1.54
   0   3   5   36.29    1.68
   0   3   5   36.29    1.68
   0   3   5   32.36    1.63
   0   3   5   37.00    1.49
   0   3   5   34.51    1.41
  -1  -3  -5    3.19    0.57
  -1  -3  -5    1.74    0.53
  -1  -3  -5    3.19    0.57
  -1  -3  -5    2.36    0.93
  -1  -3  -5    3.04    0.63
  -1  -3  -5    2.86    0.98
  -1  -3  -5    2.86    0.98
  -1  -3  -5    3.04    0.63
   1   3   5    1.77    0.82
   1   3   5    2.11    0.66
   1   3   5    1.77    0.82
   1   3   5    2.62    0.66
   1   3   5    1.71    0.54
   1   3   5    1.71    0.54
   1   3   5    2.05    0.58
   1   3   5    2.11    0.66
  -2  -3  -5   76.39    2.18
  -2  -3  -5   76.39    2.18
  -2  -3  -5   77.60    2.31
  -2  -3  -5   78.34    2.59
  -2  -3  -5   76.83    2.23
  -2  -3  -5   78.34    2.60
  -2  -3  -5   74.92    2.25
  -2  -3  -5   74.92    2.25
   2   3   5   77.95    2.28
   2   3   5   77.95    2.28
   2   3   5   81.41    2.25
   2   3   5   74.62    2.75
   2   3   5   73.65    2.56
   2   3   5   79.04    2.28
   2   3   5   74.62    2.75
   2   3   5   81.41    2.25
  -3  -3  -5  103.69    3.50
  -3  -3  -5  102.71    3.20
  -3  -3  -5  106.72    2.96
  -3  -3  -5  112.16    3.19
  -3  -3  -5  103.68    3.50
  -3  -3  -5  112.16    3.19
  -3  -3  -5  106.72    2.96
   3   3   5  102.38    3.56
   3   3   5  107.20    3.18
   3   3   5  102.16    3.00
   3   3   5  112.92    3.60
   3   3   5  106.21    3.26
   3   3   5  112.92    3.60
   3   3   5  102.38    3.56
   3   3   5  106.33    2.97
   3   3   5  107.20    3.18
   3   3   5  106.33    2.97
  -4  -3  -5   65.03    2.87
  -4  -3  -5   64.24    3.13
  -4  -3  -5   65.03    2.87
  -4  -3  -5   50.42    3.12
  -4  -3  -5   64.07    2.42
  -4  -3  -5   64.07    2.42
  -4  -3  -5   64.24    3.12
  -4  -3  -5   49.65    3.20
   4   3   5   61.75    2.35
   4   3   5   61.32    2.47
   4   3   5   65.86    2.94
   4   3   5   62.62    2.94
   4   3   5   55.73    3.90
   4   3   5   61.75    2.35
   4   3   5   65.86    2.94
   4   3   5   55.73    3.90
  -5  -3  -5   56.22    3.15
  -5  -3  -5   55.59    3.44
  -5  -3  -5   60.06    4.95
  -5  -3  -5   55.59    3.44
  -5  -3  -5   60.76    4.78
  -5  -3  -5   62.92    2.86
  -5  -3  -5   55.92    3.39
  -5  -3  -5   62.92    2.86
  -5  -3  -5   56.22    3.15
  -5  -3  -5   56.21    3.45
  -5  -3  -5   56.24    3.45
  -5  -3  -5   59.37    2.88
   5   3   5   58.94    2.73
   5   3   5   55.65    3.17
   5   3   5   60.93    3.38
   5   3   5   58.22    2.83
   5   3   5   60.36    3.51
   5   3   5   60.36    3.51
   5   3   5   55.65    3.17
   5   3   5   58.94    2.73
  -6  -3  -5    3.88    2.27
  -6  -3  -5    3.88    2.27
  -6  -3  -5    5.81    2.03
  -6  -3  -5    3.27    2.32
  -6  -3  -5    3.93    2.15
  -6  -3  -5   -0.42    2.36
  -6  -3  -5   -0.42    2.36
  -6  -3  -5    5.81    2.03
   6   3   5    9.65    2.63
   6   3   5    3.27    2.21
   6   3   5    3.27    2.21
   6   3   5    8.28    1.92
   6   3   5    4.68    2.39
   6   3   5    8.28    1.92
   6   3   5    9.65    2.63
   6   3   5    5.45    1.83
   5  -4  -5    2.29    2.38
   5  -4  -5    2.27    2.34
   5  -4  -5   -3.35    2.93
   5  -4  -5    2.27    2.34
   5  -4  -5    4.13    3.35
   5  -4  -5    4.19    3.52
   5  -4  -5    2.29    2.38
  -5   4   5   -5.11    2.94
  -5   4   5    2.36    2.45
  -5   4   5    2.36    2.45
  -5   4   5   -4.01    3.07
  -5   4   5   -5.07    2.81
  -5   4   5   -2.08    2.90
  -5   4   5   -2.08    2.90
  -5   4   5   -1.24    2.95
  -5   4   5   -1.24    2.95
   4  -4  -5   12.88    2.82
   4  -4  -5   13.90    2.50
   4  -4  -5   13.98    2.62
   4  -4  -5   15.73    2.73
   4  -4  -5   12.89    2.20
   4  -4  -5   12.88    2.82
   4  -4  -5   15.82    2.51
   4  -4  -5   12.89    2.20
   4  -4  -5   15.82    2.51
  -4   4   5   12.98    2.60
  -4   4   5   10.51    2.82
  -4   4   5   12.89    2.48
  -4   4   5   12.03    2.53
  -4   4   5   12.03    2.53
  -4   4   5   14.75    2.83
  -4   4   5   14.75    2.83
   3  -4  -5   55.41    3.31
   3  -4  -5   57.25    3.04
   3  -4  -5   55.41    3.31
   3  -4  -5   63.26    3.73
   3  -4  -5   62.99    3.58
   3  -4  -5   57.25    3.04
   3  -4  -5   57.33    3.32
   3  -4  -5   59.20    3.20
   3  -4  -5   59.20    3.20
  -3   4   5   61.35    3.56
  -3   4   5   57.20    3.15
  -3   4   5   54.77    3.35
  -3   4   5   61.35    3.56
  -3   4   5   59.22    3.76
  -3   4   5   57.23    3.26
  -3   4   5   54.77    3.35
  -3   4   5   60.27    2.86
  -3   4   5   60.27    2.86
   2  -4  -5   87.05    3.53
   2  -4  -5   84.65    3.60
   2  -4  -5   72.53    3.37
   2  -4  -5   86.79    3.64
   2  -4  -5   83.10    3.23
   2  -4  -5   72.53    3.37
   2  -4  -5   84.65    3.60
  -2   4   5   83.05    3.22
  -2   4   5   79.56    3.18
  -2   4   5   81.07    3.69
  -2   4   5   88.90    3.60
  -2   4   5   83.05    3.22
  -2   4   5   83.67    3.16
  -2   4   5   83.67    3.16
  -2   4   5   80.22    3.30
  -2   4   5   81.07    3.69
   1  -4  -5   26.52    1.64
   1  -4  -5   26.97    1.92
   1  -4  -5   29.38    2.11
   1  -4  -5   26.17    1.67
   1  -4  -5   26.97    1.92
   1  -4  -5   26.04    1.90
   1  -4  -5   26.52    1.64
   1  -4  -5   25.38    2.04
   1  -4  -5   25.48    1.97
   1  -4  -5   29.38    2.11
  -1   4   5   25.64    1.88
  -1   4   5   25.10    2.11
  -1   4   5   25.64    1.88
  -1   4   5   25.10    2.11
  -1   4   5   23.67    1.94
   0  -4  -5  136.16    4.33
   0  -4  -5  144.85    4.36
   0  -4  -5  146.15    3.82
   0  -4  -5  144.69    3.62
   0  -4  -5  136.16    4.33
   0  -4  -5  149.71    3.63
   0  -4  -5  146.15    3.82
   0  -4  -5  149.71    3.63
   0   4   5  147.72    3.83
   0   4   5  136.60    3.82
   0   4   5  147.90    3.64
   0   4   5  147.72    3.83
   0   4   5  147.90    3.64
   0   4   5  145.22    3.68
  -1  -4  -5    5.23    0.63
  -1  -4  -5    4.52    1.36
  -1  -4  -5    5.35    1.38
  -1  -4  -5    5.23    0.63
  -1  -4  -5    4.29    0.64
  -1  -4  -5    5.35    1.38
   1   4   5    5.49    0.73
   1   4   5    5.10    0.62
   1   4   5    5.00    0.89
   1   4   5    4.38    0.65
   1   4   5    5.10    0.62
   1   4   5    5.00    0.90
   1   4   5    5.49    0.73
   1   4   5    4.72    0.73
  -2  -4  -5  168.97    5.11
  -2  -4  -5  170.32    3.92
  -2  -4  -5  169.88    3.94
  -2  -4  -5  179.07    4.02
  -2  -4  -5  171.47    4.02
  -2  -4  -5  179.07    4.02
  -2  -4  -5  167.91    4.51
  -2  -4  -5  175.29    5.14
  -2  -4  -5  167.90    4.51
  -2  -4  -5  170.32    3.92
  -2  -4  -5  168.98    5.11
   2   4   5  167.94    4.02
   2   4   5  169.47    4.56
   2   4   5  171.75    3.97
   2   4   5  170.20    3.97
   2   4   5  171.75    3.97
   2   4   5  168.89    3.90
   2   4   5  168.89    3.90
   2   4   5  169.47    4.56
  -3  -4  -5   49.76    2.80
  -3  -4  -5   50.09    1.96
  -3  -4  -5   46.52    1.71
  -3  -4  -5   48.84    1.71
  -3  -4  -5   46.52    1.71
  -3  -4  -5   51.76    2.24
  -3  -4  -5   47.56    1.97
  -3  -4  -5   52.85    2.86
  -3  -4  -5   50.09    1.96
  -3  -4  -5   51.76    2.24
  -3  -4  -5   52.85    2.86
   3   4   5   47.44    1.73
   3   4   5   52.32    1.74
   3   4   5   47.29    1.94
   3   4   5   50.62    2.67
   3   4   5   47.29    1.94
   3   4   5   47.51    2.04
   3   4   5   50.62    2.67
   3   4   5   52.26    2.62
   3   4   5   52.26    2.62
   3   4   5   52.32    1.74
  -4  -4  -5    2.55    1.16
  -4  -4  -5    0.65    0.91
  -4  -4  -5    2.33    1.11
  -4  -4  -5    0.65    0.91
  -4  -4  -5    0.35    1.13
  -4  -4  -5    3.39    1.55
  -4  -4  -5    3.39    1.55
  -4  -4  -5    2.49    1.42
  -4  -4  -5    2.48    1.42
  -4  -4  -5    0.35    1.13
  -4  -4  -5    0.82    0.84
  -4  -4  -5    2.41    1.50
   4   4   5    1.50    1.71
   4   4   5    1.94    0.77
   4   4   5    1.92    0.93
   4   4   5    0.83    1.18
   4   4   5    1.94    0.77
   4   4   5    1.50    1.71
   4   4   5    2.79    1.72
   4   4   5    0.83    1.18
   4   4   5    0.19    1.18
   4   4   5    2.79    1.71
  -5  -4  -5   15.04    1.72
  -5  -4  -5   16.77    2.10
  -5  -4  -5   17.76    2.29
  -5  -4  -5   16.90    2.30
  -5  -4  -5   17.77    2.29
  -5  -4  -5   16.90    2.30
  -5  -4  -5   15.04    1.72
  -5  -4  -5   16.77    2.10
  -5  -4  -5   14.63    2.22
  -5  -4  -5   16.88    1.94
  -5  -4  -5   16.97    2.03
  -5  -4  -5   14.50    1.60
   5   4   5   15.36    1.71
   5   4   5   17.83    1.93
   5   4   5   14.62    1.60
   5   4   5   17.83    1.93
   5   4   5   14.62    1.60
  -6  -4  -5   73.55    4.32
  -6  -4  -5   65.93    4.25
  -6  -4  -5   82.22    4.36
  -6  -4  -5   73.55    4.32
  -6  -4  -5   65.93    4.25
  -6  -4  -5   77.49    3.61
  -6  -4  -5   77.49    3.61
   6   4   5   74.78    4.36
   6   4   5   74.73    3.86
   6   4   5   71.34    3.54
   6   4   5   70.46    3.25
   6   4   5   70.46    3.25
   6   4   5   74.73    3.86
   4  -5  -5   41.24    3.89
   4  -5  -5   38.38    3.58
   4  -5  -5   38.38    3.58
   4  -5  -5   36.89    3.73
   4  -5  -5   38.19    3.62
   4  -5  -5   41.72    4.08
   4  -5  -5   36.89    3.73
   4  -5  -5   36.59    3.48
   4  -5  -5   36.59    3.48
  -4   5   5   38.69    3.43
  -4   5   5   42.76    3.67
  -4   5   5   37.52    3.42
  -4   5   5   25.74    3.78
  -4   5   5   37.71    3.51
  -4   5   5   38.69    3.43
  -4   5   5   25.74    3.78
  -4   5   5   37.71    3.51
  -4   5   5   37.81    3.58
   3  -5  -5   46.36    3.83
   3  -5  -5   55.67    3.53
   3  -5  -5   45.26    2.94
   3  -5  -5   45.26    2.94
   3  -5  -5   46.51    3.70
  -3   5   5   44.19    3.19
  -3   5   5   52.23    3.25
  -3   5   5   40.74    3.56
  -3   5   5   51.34    3.56
  -3   5   5   47.62    3.21
  -3   5   5   47.62    3.21
  -3   5   5   44.19    3.19
  -3   5   5   51.34    3.56
  -3   5   5   52.17    3.37
   2  -5  -5   34.53    2.74
   2  -5  -5   34.53    2.74
   2  -5  -5   31.45    2.48
   2  -5  -5   35.42    2.90
   2  -5  -5   35.36    2.79
   2  -5  -5   33.19    2.40
   2  -5  -5   33.19    2.40
  -2   5   5   33.59    2.71
  -2   5   5   31.64    2.82
  -2   5   5   33.59    2.71
  -2   5   5   32.53    2.40
  -2   5   5   32.95    2.71
  -2   5   5   32.95    2.71
  -2   5   5   32.89    2.41
  -2   5   5   32.53    2.40
  -2   5   5   32.95    2.51
   1  -5  -5   30.61    1.86
   1  -5  -5   28.41    2.25
   1  -5  -5   30.61    1.86
   1  -5  -5   25.24    1.80
   1  -5  -5   27.79    2.10
   1  -5  -5   28.57    2.18
   1  -5  -5   27.79    2.10
  -1   5   5   30.60    1.85
  -1   5   5   27.94    2.30
  -1   5   5   24.11    2.21
  -1   5   5   29.24    2.09
  -1   5   5   30.60    1.85
  -1   5   5   27.16    2.23
  -1   5   5   29.24    2.09
  -1   5   5   26.24    2.26
  -1   5   5   27.94    2.31
  -1   5   5   27.16    2.23
   0  -5  -5    7.00    0.92
   0  -5  -5    8.01    1.20
   0  -5  -5    7.17    0.94
   0  -5  -5    7.00    0.92
   0  -5  -5    7.03    1.07
   0  -5  -5    7.01    1.03
   0  -5  -5    6.89    1.56
   0  -5  -5    6.92    1.57
   0  -5  -5    6.92    1.57
   0  -5  -5    8.01    1.20
   0   5   5    7.89    1.52
   0   5   5    8.82    1.20
   0   5   5    7.43    1.14
   0   5   5    5.82    1.51
   0   5   5    8.17    0.98
   0   5   5    7.16    0.99
   0   5   5    5.82    1.51
   0   5   5    7.43    1.14
   0   5   5    8.17    0.98
  -1  -5  -5   49.53    2.80
  -1  -5  -5   49.54    2.80
  -1  -5  -5   44.46    1.71
  -1  -5  -5   44.48    1.76
  -1  -5  -5   47.70    2.76
  -1  -5  -5   44.46    1.71
  -1  -5  -5   44.77    1.54
  -1  -5  -5   50.16    1.56
  -1  -5  -5   44.64    1.71
  -1  -5  -5   50.16    1.56
   1   5   5   45.48    2.25
   1   5   5   45.49    2.25
   1   5   5   45.79    1.52
   1   5   5   44.53    1.78
   1   5   5   44.53    1.78
   1   5   5   45.79    1.52
   1   5   5   46.26    1.81
   1   5   5   42.51    1.58
  -2  -5  -5  388.33    9.38
  -2  -5  -5  382.38    7.93
  -2  -5  -5  393.59    7.94
  -2  -5  -5  387.82    9.40
  -2  -5  -5  393.59    7.94
  -2  -5  -5  387.82    9.41
   2   5   5  347.93    8.48
   2   5   5  399.45    7.95
   2   5   5  347.93    8.48
   2   5   5  381.28    8.79
   2   5   5  383.99    7.99
   2   5   5  381.06    8.80
   2   5   5  399.45    7.95
  -3  -5  -5   18.38    1.79
  -3  -5  -5   18.42    1.04
  -3  -5  -5   15.98    1.27
  -3  -5  -5   22.25    2.29
  -3  -5  -5   22.25    2.29
  -3  -5  -5   15.98    1.27
  -3  -5  -5   17.43    1.29
  -3  -5  -5   18.37    1.79
  -3  -5  -5   19.28    2.13
   3   5   5   17.74    1.28
   3   5   5   19.52    2.01
   3   5   5   17.93    1.10
   3   5   5   18.08    1.04
   3   5   5   19.52    2.01
   3   5   5   18.08    1.04
   3   5   5   19.94    1.76
   3   5   5   19.94    1.76
   3   5   5   17.74    1.28
   3   5   5   16.16    1.35
  -4  -5  -5    6.65    1.66
  -4  -5  -5    3.95    1.81
  -4  -5  -5    4.87    1.14
  -4  -5  -5    3.90    0.87
  -4  -5  -5    8.20    1.96
  -4  -5  -5    4.27    0.86
  -4  -5  -5    4.87    1.14
  -4  -5  -5    6.65    1.66
  -4  -5  -5    5.20    1.13
  -4  -5  -5    3.90    0.87
  -4  -5  -5    3.95    1.81
  -4  -5  -5    5.10    1.09
   4   5   5    4.15    0.90
   4   5   5    6.20    1.67
   4   5   5    5.85    1.21
   4   5   5    4.90    1.85
   4   5   5    4.89    1.86
   4   5   5    6.01    0.87
   4   5   5    4.88    1.14
   4   5   5    6.20    1.67
   4   5   5    6.01    0.87
   4   5   5    4.88    1.14
  -5  -5  -5    0.50    1.34
  -5  -5  -5    0.06    1.85
  -5  -5  -5    1.38    1.96
  -5  -5  -5    1.89    1.07
  -5  -5  -5    0.50    1.27
  -5  -5  -5    2.70    1.46
  -5  -5  -5    2.70    1.46
  -5  -5  -5    4.65    1.81
  -5  -5  -5    2.02    1.14
  -5  -5  -5    4.65    1.81
  -5  -5  -5    2.02    1.14
  -5  -5  -5    1.38    1.96
   5   5   5    0.52    1.07
   5   5   5   -0.49    2.26
   5   5   5    1.51    1.06
   5   5   5   -0.49    2.26
   5   5   5    1.51    1.06
   5   5   5    3.56    1.54
   5   5   5    3.56    1.54
   5   5   5   -1.77    1.58
   5   5   5    1.47    1.50
   5   5   5   -1.77    1.58
  -6  -5  -5   76.49    4.22
  -6  -5  -5   74.89    4.21
  -6  -5  -5   76.51    4.22
  -6  -5  -5   74.12    3.79
  -6  -5  -5   67.63    3.86
  -6  -5  -5   73.97    3.92
  -6  -5  -5   69.88    3.17
  -6  -5  -5   64.81    4.09
  -6  -5  -5   64.80    4.09
  -6  -5  -5   68.17    3.26
  -6  -5  -5   67.63    3.86
  -6  -5  -5   68.17    3.26
   6   5   5   70.40    3.78
   6   5   5   70.40    3.78
   6   5   5   67.89    3.91
   6   5   5   71.45    3.30
   6   5   5   75.50    3.19
   6   5   5   75.50    3.19
   4  -6  -5    8.07    2.41
   4  -6  -5   10.15    3.16
   4  -6  -5    9.02    3.13
   4  -6  -5    5.76    3.37
   4  -6  -5    8.07    2.41
   4  -6  -5    6.01    3.52
   4  -6  -5   10.15    3.16
  -4   6   5    5.86    3.10
  -4   6   5    6.85    3.07
  -4   6   5    7.78    3.55
  -4   6   5   -1.05    3.10
  -4   6   5   10.34    3.54
  -4   6   5   -1.05    3.10
  -4   6   5    5.81    2.95
  -4   6   5    6.85    3.07
  -4   6   5    7.78    3.55
   3  -6  -5   99.84    5.16
   3  -6  -5   99.46    4.30
   3  -6  -5   99.46    4.30
   3  -6  -5  113.86    4.80
   3  -6  -5   99.25    4.99
  -3   6   5  102.00    4.63
  -3   6   5  102.94    4.41
  -3   6   5   91.58    4.22
  -3   6   5  108.02    4.92
  -3   6   5  100.79    5.04
  -3   6   5   92.79    4.23
  -3   6   5  102.93    4.40
  -3   6   5  108.55    4.52
  -3   6   5  102.17    4.79
  -3   6   5  108.55    4.52
  -3   6   5   92.79    4.23
  -3   6   5  108.02    4.92
   2  -6  -5   12.15    2.21
   2  -6  -5   12.34    1.86
   2  -6  -5    9.74    2.34
   2  -6  -5   12.15    2.21
   2  -6  -5   12.34    1.86
   2  -6  -5   11.98    2.01
   2  -6  -5    9.45    2.24
  -2   6   5   13.69    2.19
  -2   6   5    7.37    1.98
  -2   6   5   13.69    2.20
  -2   6   5   13.58    2.16
  -2   6   5   13.73    2.36
  -2   6   5   11.37    1.85
  -2   6   5   13.58    2.16
  -2   6   5   12.03    2.06
  -2   6   5   12.48    1.93
  -2   6   5   12.56    2.02
  -2   6   5   11.37    1.85
  -2   6   5    7.37    1.98
   1  -6  -5   24.21    1.95
   1  -6  -5   25.95    1.99
   1  -6  -5   25.95    1.99
   1  -6  -5   22.37    2.12
   1  -6  -5   22.37    2.12
  -1   6   5   25.87    2.23
  -1   6   5   27.73    2.54
  -1   6   5   23.90    2.50
  -1   6   5   24.35    2.25
  -1   6   5   23.46    1.92
  -1   6   5   24.38    1.97
  -1   6   5   24.59    2.06
  -1   6   5   23.46    1.92
  -1   6   5   23.90    2.50
  -1   6   5   24.35    2.25
  -1   6   5   25.87    2.23
  -1   6   5   26.03    2.37
   0  -6  -5   49.16    2.03
   0  -6  -5   45.82    2.17
   0  -6  -5   51.05    2.29
   0  -6  -5   45.82    2.17
   0  -6  -5   49.16    2.03
   0  -6  -5   47.00    2.35
   0  -6  -5   46.81    2.27
   0   6   5   50.56    3.10
   0   6   5   48.31    2.38
   0   6   5   48.64    3.03
   0   6   5   50.56    3.09
   0   6   5   50.57    2.30
   0   6   5   50.57    2.30
  -1  -6  -5   23.52    1.51
  -1  -6  -5   23.65    1.46
  -1  -6  -5   22.91    1.20
  -1  -6  -5   22.91    1.20
  -1  -6  -5   22.57    1.17
  -1  -6  -5   24.14    2.08
  -1  -6  -5   24.14    2.08
  -1  -6  -5   24.28    2.30
   1   6   5   19.40    2.25
   1   6   5   20.83    1.48
   1   6   5   21.67    1.14
   1   6   5   22.54    2.30
   1   6   5   22.27    1.46
   1   6   5   21.67    1.14
   1   6   5   22.14    1.70
   1   6   5   22.14    1.70
   1   6   5   22.32    1.23
   1   6   5   22.27    1.46
   1   6   5   19.40    2.25
  -2  -6  -5   10.00    1.88
  -2  -6  -5    9.93    0.81
  -2  -6  -5   10.31    0.83
  -2  -6  -5   11.22    0.77
  -2  -6  -5   12.84    2.01
  -2  -6  -5   12.84    2.01
  -2  -6  -5   10.25    0.86
  -2  -6  -5   10.86    0.78
  -2  -6  -5    9.93    0.81
  -2  -6  -5   10.86    0.78
   2   6   5   11.28    0.79
   2   6   5   11.28    0.79
   2   6   5   10.65    0.95
   2   6   5   12.18    0.93
   2   6   5   12.18    0.93
   2   6   5   12.00    0.87
   2   6   5   12.07    1.66
   2   6   5   12.07    1.66
  -3  -6  -5  128.52    2.92
  -3  -6  -5  130.41    3.08
  -3  -6  -5  139.60    4.99
  -3  -6  -5  129.24    2.89
  -3  -6  -5  124.65    4.79
  -3  -6  -5  139.61    4.99
  -3  -6  -5  130.41    3.08
   3   6   5  141.88    4.56
   3   6   5  141.88    4.56
   3   6   5  131.86    2.88
   3   6   5  131.86    2.88
   3   6   5  125.68    2.95
   3   6   5  129.97    3.00
   3   6   5  125.68    2.95
   3   6   5  129.05    3.16
  -4  -6  -5    7.65    1.07
  -4  -6  -5    6.00    2.15
  -4  -6  -5    8.92    1.17
  -4  -6  -5    6.44    1.74
  -4  -6  -5    7.69    0.75
  -4  -6  -5    6.44    1.74
  -4  -6  -5    7.84    2.21
  -4  -6  -5    7.63    0.80
  -4  -6  -5    8.94    1.22
  -4  -6  -5    7.84    2.21
  -4  -6  -5    7.65    1.07
  -4  -6  -5    7.63    0.80
   4   6   5    6.36    1.97
   4   6   5    9.82    2.07
   4   6   5    7.03    0.77
   4   6   5    7.03    0.77
   4   6   5    8.59    1.17
   4   6   5    7.62    1.01
   4   6   5    9.82    2.07
   4   6   5    7.13    0.85
   4   6   5    6.36    1.97
   4   6   5    7.62    1.01
  -5  -6  -5   43.12    2.50
  -5  -6  -5   39.50    2.65
  -5  -6  -5   43.12    2.50
  -5  -6  -5   39.50    2.64
  -5  -6  -5   43.84    2.41
  -5  -6  -5   44.14    2.34
  -5  -6  -5   44.26    1.91
   5   6   5   40.71    2.29
   5   6   5   40.71    2.29
   5   6   5   43.96    2.02
   5   6   5   41.78    1.85
   5   6   5   48.70    2.65
   5   6   5   47.84    3.86
   5   6   5   41.78    1.85
   5   6   5   44.58    3.87
   5   6   5   44.58    3.87
   5   6   5   47.84    3.86
  -6  -6  -5   13.52    2.10
  -6  -6  -5    8.17    2.81
  -6  -6  -5   12.63    2.22
  -6  -6  -5   12.63    2.22
  -6  -6  -5    7.61    1.55
  -6  -6  -5   10.50    1.77
  -6  -6  -5   13.99    2.91
  -6  -6  -5   13.61    2.50
  -6  -6  -5    8.17    2.82
  -6  -6  -5   10.50    1.77
  -6  -6  -5   13.43    2.01
  -6  -6  -5   13.61    2.50
   6   6   5   14.18    2.23
   6   6   5   10.99    2.87
   6   6   5   12.82    1.67
   6   6   5   10.97    2.02
   6   6   5   13.71    1.72
   6   6   5   10.99    2.87
   6   6   5   12.82    1.67
   6   6   5   10.97    2.02
   3  -7  -5   13.44    3.00
   3  -7  -5    8.79    2.73
   3  -7  -5   13.44    3.00
   3  -7  -5    8.79    2.73
   3  -7  -5   13.90    3.23
   3  -7  -5   13.88    3.37
   3  -7  -5    9.89    2.85
  -3   7   5    9.08    2.44
  -3   7   5    7.22    2.70
  -3   7   5    9.69    2.91
  -3   7   5    7.25    2.72
  -3   7   5    5.26    2.44
  -3   7   5    9.61    2.77
  -3   7   5    7.22    2.70
  -3   7   5   15.46    3.12
  -3   7   5    5.27    2.44
  -3   7   5    9.08    2.44
  -3   7   5    7.25    2.72
  -3   7   5   10.29    2.51
   2  -7  -5   -0.68    2.04
   2  -7  -5    1.23    2.32
   2  -7  -5   -0.68    2.04
   2  -7  -5    1.28    2.41
  -2   7   5   -0.50    2.42
  -2   7   5   -1.97    1.73
  -2   7   5   -0.64    1.93
  -2   7   5   -0.50    2.42
  -2   7   5    2.02    1.89
  -2   7   5   -2.80    1.96
  -2   7   5   -0.10    2.36
  -2   7   5   -0.63    1.83
  -2   7   5   -1.65    2.00
  -2   7   5    2.02    1.89
  -2   7   5   -1.97    1.73
  -2   7   5   -1.65    2.00
   1  -7  -5  155.72    4.96
   1  -7  -5  155.72    4.96
   1  -7  -5  151.41    4.93
   1  -7  -5  150.66    5.04
  -1   7   5  157.94    4.66
  -1   7   5  154.53    4.85
  -1   7   5  152.42    5.15
  -1   7   5  153.81    5.51
  -1   7   5  148.85    5.86
  -1   7   5  154.53    4.85
  -1   7   5  155.38    4.72
  -1   7   5  161.13    5.57
  -1   7   5  156.09    4.85
  -1   7   5  148.85    5.86
  -1   7   5  157.94    4.66
  -1   7   5  153.82    5.52
   0  -7  -5   26.59    1.82
   0  -7  -5   27.09    2.29
   0  -7  -5   25.67    2.14
   0  -7  -5   25.67    2.14
   0  -7  -5   26.73    2.20
   0  -7  -5   26.59    1.82
   0  -7  -5   29.14    1.80
   0   7   5   27.75    2.38
   0   7   5   21.25    3.16
   0   7   5   25.80    2.78
   0   7   5   24.19    2.08
   0   7   5   27.75    2.38
   0   7   5   28.34    2.78
   0   7   5   24.19    2.08
   0   7   5   25.79    2.78
  -1  -7  -5   38.25    1.51
  -1  -7  -5   37.19    1.79
  -1  -7  -5   38.25    1.51
  -1  -7  -5   37.07    1.85
   1   7   5   36.25    2.73
   1   7   5   36.19    1.87
   1   7   5   34.42    1.95
   1   7   5   30.64    2.59
   1   7   5   38.22    1.64
   1   7   5   36.19    1.87
   1   7   5   40.45    2.65
   1   7   5   36.25    2.73
   1   7   5   40.46    2.65
  -2  -7  -5   -0.13    0.51
  -2  -7  -5   -0.95    1.89
  -2  -7  -5   -0.95    1.89
  -2  -7  -5   -0.13    0.51
  -2  -7  -5   -3.22    1.77
  -2  -7  -5    1.35    0.44
  -2  -7  -5    1.35    0.44
   2   7   5    1.01    1.91
   2   7   5    1.01    1.91
   2   7   5    1.21    1.38
   2   7   5    1.22    1.38
   2   7   5    0.88    0.45
   2   7   5    2.28    1.90
   2   7   5    1.25    0.58
   3   7   5   36.77    2.82
   3   7   5   34.20    2.75
   3   7   5   36.77    2.82
   3   7   5   34.20    2.75
  -4  -7  -5   13.94    2.45
  -4  -7  -5   14.06    0.68
  -4  -7  -5   14.06    0.68
  -4  -7  -5   12.43    2.52
  -4  -7  -5   12.43    2.52
   4   7   5   14.39    0.73
   4   7   5   17.62    2.51
   4   7   5   14.60    2.39
   4   7   5   13.89    0.89
   4   7   5   17.62    2.51
   4   7   5   14.60    2.39
  -5  -7  -5   33.49    3.20
  -5  -7  -5   33.38    2.83
  -5  -7  -5   31.40    1.81
  -5  -7  -5   30.74    1.41
  -5  -7  -5   33.39    2.84
  -5  -7  -5   30.65    3.08
  -5  -7  -5   29.28    1.32
  -5  -7  -5   31.40    1.81
  -5  -7  -5   33.49    3.20
  -5  -7  -5   31.15    1.17
  -5  -7  -5   30.74    1.41
  -5  -7  -5   29.26    1.36
   5   7   5   31.41    1.27
   5   7   5   35.69    3.38
   5   7   5   31.41    1.27
   5   7   5   32.70    1.47
   5   7   5   30.29    2.01
   5   7   5   31.97    1.53
   5   7   5   35.69    3.38
   5   7   5   29.40    3.53
   5   7   5   29.40    3.53
   5   7   5   32.70    1.47
  -6  -7  -5   17.62    3.25
  -6  -7  -5   15.76    1.38
  -6  -7  -5   13.29    1.86
  -6  -7  -5   12.88    1.64
  -6  -7  -5   15.19    2.35
  -6  -7  -5   13.29    1.86
  -6  -7  -5   22.51    2.82
  -6  -7  -5   15.19    2.35
  -6  -7  -5   17.62    3.24
  -6  -7  -5   13.00    1.72
  -6  -7  -5   22.51    2.82
  -6  -7  -5   20.36    3.25
   6   7   5   12.85    1.49
   6   7   5   18.14    4.18
   6   7   5   18.14    4.18
   6   7   5   18.49    1.70
   6   7   5   18.79    2.11
   6   7   5   18.49    1.70
   2  -8  -5   11.25    2.94
   2  -8  -5   13.79    3.22
   2  -8  -5   16.87    2.73
   2  -8  -5   13.77    2.74
   2  -8  -5   13.77    2.74
   2  -8  -5   16.87    2.73
  -2   8   5   18.85    2.50
  -2   8   5   16.98    3.35
  -2   8   5   13.13    2.58
  -2   8   5   12.45    2.92
  -2   8   5   12.45    2.92
  -2   8   5   19.40    3.42
  -2   8   5   10.75    2.29
  -2   8   5   18.85    2.50
  -2   8   5   13.23    2.71
  -2   8   5   17.17    3.05
  -2   8   5   10.75    2.29
  -2   8   5   19.41    3.42
   1  -8  -5   -0.11    1.93
   1  -8  -5   -0.05    1.60
   1  -8  -5    0.86    2.14
   1  -8  -5    0.86    2.14
   1  -8  -5   -0.05    1.60
  -1   8   5   -0.41    1.82
  -1   8   5   -0.20    1.60
  -1   8   5   -0.93    2.59
  -1   8   5   -0.20    1.60
  -1   8   5   -0.07    1.60
  -1   8   5   -0.49    2.61
  -1   8   5   -0.69    1.67
  -1   8   5    2.45    1.77
  -1   8   5   -0.69    1.67
  -1   8   5   -0.07    1.52
  -1   8   5    2.45    1.77
  -1   8   5   -0.93    2.59
   0  -8  -5  106.14    3.81
   0  -8  -5  105.44    3.77
   0  -8  -5  102.38    3.34
   0  -8  -5  105.44    3.77
   0   8   5  117.75    3.74
   0   8   5  102.39    4.54
   0   8   5   96.26    4.51
   0   8   5  117.75    3.74
   0   8   5  103.13    3.80
   0   8   5  104.82    3.84
   0   8   5  103.13    3.80
   0   8   5   96.26    4.51
  -1  -8  -5    9.49    1.19
  -1  -8  -5    9.49    1.19
  -1  -8  -5   13.18    1.13
  -1  -8  -5   11.04    1.06
  -1  -8  -5   11.16    1.19
  -1  -8  -5   11.04    1.06
   1   8   5   10.29    0.96
   1   8   5   10.59    2.03
   1   8   5   10.41    1.18
   1   8   5   10.73    1.12
   1   8   5   12.38    2.69
   1   8   5   10.29    0.96
   1   8   5   10.60    2.03
   1   8   5   10.41    1.18
   1   8   5   12.37    2.69
   1   8   5    8.19    1.68
   1   8   5   13.54    2.70
   2   8   5   28.74    2.52
   2   8   5   28.73    2.52
   2   8   5   27.18    0.74
   2   8   5   28.44    2.58
   2   8   5   26.61    0.77
   2   8   5   28.44    2.58
   3   8   5   29.28    3.26
   3   8   5   25.00    2.31
   3   8   5   28.96    2.74
   3   8   5   29.29    3.26
   3   8   5   30.32    3.32
   3   8   5   28.96    2.74
   3   8   5   25.00    2.30
   4   8   5   11.45    2.57
   4   8   5   11.45    2.57
   4   8   5   12.31    2.38
   4   8   5   12.31    2.39
   5   8   5   -2.09    2.96
   5   8   5    4.46    2.78
   5   8   5   -2.09    2.96
   5   8   5    4.46    2.78
  -6  -8  -5    9.93    0.97
  -6  -8  -5    9.93    0.97
  -6  -8  -5   11.94    2.74
  -6  -8  -5   11.94    2.74
   6   8   5    9.41    3.61
   6   8   5    9.41    3.62
   6   8   5   10.18    1.34
   6   8   5    8.98    4.14
   6   8   5   10.43    1.09
   6   8   5    8.98    4.14
   1  -9  -5    5.94    2.17
   1  -9  -5    0.75    2.62
   1  -9  -5    3.50    2.19
   1  -9  -5    4.70    2.05
   1  -9  -5    0.75    2.62
   1  -9  -5    4.70    2.05
  -1   9   5    4.20    1.81
  -1   9   5   -0.29    1.95
  -1   9   5    4.73    2.44
  -1   9   5    4.20    1.81
  -1   9   5    6.71    2.12
  -1   9   5    5.94    2.29
  -1   9   5    6.63    2.01
  -1   9   5    5.94    2.29
  -1   9   5   -0.29    1.95
   0  -9  -5   -1.44    1.73
   0  -9  -5    3.54    1.65
   0  -9  -5    3.54    1.65
   0  -9  -5   -1.44    1.73
   0  -9  -5    1.81    1.71
   0   9   5    2.00    1.71
   0   9   5    1.88    1.83
   0   9   5    3.49    1.71
   0   9   5    2.00    1.71
   0   9   5    3.49    1.71
  -1  -9  -5   11.77    1.10
  -1  -9  -5   12.14    1.32
  -1  -9  -5   12.14    1.32
  -1  -9  -5   14.18    1.28
   1   9   5   11.57    2.53
   1   9   5   12.84    1.27
   1   9   5   11.21    1.01
   1   9   5   12.36    1.16
   1   9   5   11.21    1.01
   1   9   5   14.27    1.49
   1   9   5   12.36    1.16
   1   9   5   12.38    1.73
   1   9   5   12.38    1.73
   1   9   5   11.57    2.53
   2   9   5   35.36    2.99
   2   9   5   44.84    3.01
   2   9   5   35.37    3.00
   2   9   5   44.84    3.01
   3   9   5    6.93    4.06
   3   9   5   29.97    2.82
   3   9   5   31.74    2.93
   3   9   5   31.74    2.93
   3   9   5   29.97    2.83
   4   9   5   -3.08    2.29
   4   9   5    1.25    2.57
   4   9   5    1.25    2.57
   4   9   5   -3.08    2.29
   5   9   5   25.85    3.36
   5   9   5   20.92    3.46
   5   9   5   25.85    3.36
   5   9   5   20.92    3.46
   0 -10  -5   20.87    2.09
   0 -10  -5   24.45    2.29
   0 -10  -5   20.57    2.45
   0 -10  -5   20.57    2.45
   0  10   5   28.32    4.61
   0  10   5   22.15    2.05
   0  10   5   21.27    2.26
   0  10   5   22.15    2.05
   0  10   5   24.03    4.57
   0  10   5   21.53    1.85
   0  10   5   21.53    1.85
   0  10   5   20.63    2.44
   0  10   5   21.27    2.26
   0  10   5   28.32    4.61
  -1 -10  -5   12.92    1.39
  -1 -10  -5   11.09    1.29
  -1 -10  -5   11.09    1.29
  -1 -10  -5   12.92    1.39
   1  10   5   11.31    1.03
   1  10   5   13.03    1.95
   1  10   5   10.76    3.71
   1  10   5   10.98    1.35
   1  10   5   11.31    1.03
   1  10   5   11.84    1.49
   1  10   5   12.95    2.45
   1  10   5   11.51    1.09
   1  10   5   13.03    1.95
   1  10   5   12.94    2.45
   1  10   5   10.77    3.71
   1  10   5    8.66    2.04
   1  10   5   11.51    1.09
   1  10   5   11.37    3.74
   1  10   5    8.66    2.04
   2  10   5    6.71    2.69
   2  10   5    5.26    2.02
   2  10   5    5.11    3.56
   2  10   5    7.67    3.67
   2  10   5    7.66    3.67
   2  10   5    6.71    2.69
   2  10   5    5.26    2.02
   3  10   5    8.01    2.79
   3  10   5    8.29    3.99
   3  10   5    7.12    3.95
   3  10   5    8.00    2.79
   3  10   5    7.14    3.95
   4  10   5   15.32    4.37
   4  10   5   15.32    4.37
   4  10   5   10.37    4.06
   4  10   5    8.89    3.12
   4  10   5   12.29    2.95
   4  10   5    8.89    3.12
   4  10   5   12.29    2.95
   2   8  -6   25.82    2.75
   2   8  -6   22.46    2.81
   2   8  -6   21.54    2.56
   2   8  -6   22.46    2.81
   2   8  -6   21.54    2.56
   2   8  -6   18.03    2.84
  -2  -8   6   17.23    2.68
  -2  -8   6   26.17    2.59
  -2  -8   6   20.44    2.91
  -2  -8   6   20.44    2.91
  -2  -8   6   29.00    2.81
  -2  -8   6   19.12    2.32
  -2  -8   6   19.12    2.32
  -2  -8   6   29.00    2.81
   1   8  -6    7.95    2.95
   1   8  -6    7.95    2.95
   1   8  -6   10.55    2.31
   1   8  -6   13.23    2.37
   1   8  -6   12.38    2.96
   1   8  -6   10.55    2.31
  -1  -8   6   11.45    2.28
  -1  -8   6    6.07    1.74
  -1  -8   6   10.67    2.90
  -1  -8   6    6.07    1.74
  -1  -8   6    5.28    2.71
  -1  -8   6   10.67    2.90
  -1  -8   6   11.45    2.28
   4   7  -6    0.11    2.47
   4   7  -6    2.22    2.10
   4   7  -6    1.14    2.38
   4   7  -6   -0.08    1.84
   4   7  -6    5.34    3.23
   4   7  -6    0.11    2.47
   4   7  -6    1.16    2.53
   4   7  -6    5.34    3.23
   4   7  -6   -0.08    1.84
  -4  -7   6    1.54    2.21
  -4  -7   6   -1.23    2.35
  -4  -7   6    0.99    2.53
  -4  -7   6    2.15    1.95
  -4  -7   6    1.54    2.21
  -4  -7   6    0.99    2.53
  -4  -7   6   -0.01    2.37
  -4  -7   6   -0.01    2.37
   3   7  -6    0.10    2.04
   3   7  -6    5.36    2.12
   3   7  -6    1.65    1.70
   3   7  -6    5.36    2.12
  -3  -7   6    0.70    2.09
  -3  -7   6   -2.99    1.66
  -3  -7   6   -2.99    1.66
  -3  -7   6    0.85    2.45
  -3  -7   6    0.85    2.45
  -3  -7   6   -1.37    1.89
  -3  -7   6   -1.37    1.89
  -3  -7   6    0.32    1.66
   2   7  -6   40.92    3.05
   2   7  -6   39.05    3.02
   2   7  -6   36.55    3.00
   2   7  -6   36.03    3.33
   2   7  -6   40.92    3.05
   2   7  -6   36.55    3.00
  -2  -7   6   48.76    3.32
  -2  -7   6   43.74    3.27
  -2  -7   6   37.40    2.74
  -2  -7   6   43.74    3.27
  -2  -7   6   48.76    3.32
  -2  -7   6   37.40    2.74
   1   7  -6   40.42    3.33
   1   7  -6   38.66    2.98
   1   7  -6   34.38    2.65
   1   7  -6   34.38    2.65
   1   7  -6   40.42    3.33
   1   7  -6   38.44    3.49
  -1  -7   6   34.33    2.96
  -1  -7   6   42.10    2.81
  -1  -7   6   35.55    3.11
  -1  -7   6   36.25    2.96
  -1  -7   6   42.10    2.81
  -1  -7   6   35.55    3.11
  -1  -7   6   34.33    2.96
   0   7  -6    3.55    1.84
   0   7  -6    2.65    2.56
   0   7  -6   -0.63    2.23
   0   7  -6    6.62    1.88
   0   7  -6   -0.63    2.23
   0   7  -6    6.62    1.88
   0  -7   6    6.00    1.60
   0  -7   6    0.86    2.48
   0  -7   6    4.02    1.72
   0  -7   6    6.00    1.60
   0  -7   6    3.40    2.58
   0  -7   6    2.37    1.92
   0  -7   6    4.02    1.72
   0  -7   6    0.86    2.48
  -1   7  -6   25.73    2.83
  -1   7  -6   20.93    3.38
  -1   7  -6   18.29    2.47
  -1   7  -6   20.93    3.38
  -1   7  -6   18.66    3.52
  -1   7  -6   18.29    2.47
   1  -7   6   22.06    1.37
   1  -7   6   27.07    3.44
   1  -7   6   22.06    1.37
   1  -7   6   27.07    3.44
   1  -7   6   21.32    3.55
   1  -7   6   21.48    1.56
   1  -7   6   21.42    2.53
   1  -7   6   25.10    2.81
   1  -7   6   21.42    2.53
   1  -7   6   21.48    1.56
   5   6  -6   38.32    3.42
   5   6  -6   23.24    4.35
   5   6  -6   38.32    3.42
   5   6  -6   36.08    3.47
   5   6  -6   36.00    3.33
   5   6  -6   33.46    2.87
   5   6  -6   36.78    3.09
   5   6  -6   36.78    3.09
   5   6  -6   23.24    4.35
  -5  -6   6   29.58    2.77
  -5  -6   6   35.07    3.42
  -5  -6   6   37.57    3.24
  -5  -6   6   43.88    4.35
  -5  -6   6   35.07    3.42
  -5  -6   6   37.57    3.24
  -5  -6   6   43.88    4.35
   4   6  -6   11.43    2.27
   4   6  -6   11.99    2.17
   4   6  -6    7.05    1.79
   4   6  -6   10.02    2.09
   4   6  -6   11.43    2.27
   4   6  -6   11.86    3.05
   4   6  -6   11.86    3.05
   4   6  -6   12.18    2.30
   4   6  -6    7.05    1.79
  -4  -6   6   11.58    2.30
  -4  -6   6   10.63    2.28
  -4  -6   6    9.85    2.82
  -4  -6   6    9.85    2.82
  -4  -6   6   10.63    2.28
  -4  -6   6   11.58    2.30
   3   6  -6   12.35    1.93
   3   6  -6   11.29    1.95
   3   6  -6   12.35    1.93
   3   6  -6   10.80    1.91
  -3  -6   6   11.12    2.17
  -3  -6   6   10.82    2.41
  -3  -6   6   10.82    2.41
  -3  -6   6   11.12    2.17
   2   6  -6   20.37    2.28
   2   6  -6   20.01    2.01
   2   6  -6   14.39    1.91
   2   6  -6   20.70    2.15
   2   6  -6   20.01    2.01
   2   6  -6   20.70    2.15
  -2  -6   6   17.45    1.97
  -2  -6   6   19.46    2.29
  -2  -6   6   17.85    2.22
  -2  -6   6   18.74    2.12
  -2  -6   6   18.74    2.12
  -2  -6   6   19.46    2.29
  -2  -6   6   17.45    1.97
   1   6  -6   75.21    2.36
   1   6  -6   80.55    3.62
   1   6  -6   81.36    3.44
   1   6  -6   81.05    3.74
   1   6  -6   87.28    3.29
   1   6  -6   80.55    3.62
   1   6  -6   75.21    2.36
   1   6  -6   87.28    3.29
  -1  -6   6   64.01    4.85
  -1  -6   6   78.37    3.24
  -1  -6   6   79.38    3.58
  -1  -6   6   78.37    3.24
  -1  -6   6   82.82    3.74
  -1  -6   6   80.67    3.42
  -1  -6   6   82.82    3.74
  -1  -6   6   79.38    3.58
   0   6  -6    4.50    1.56
   0   6  -6    3.31    2.08
   0   6  -6    4.50    1.56
   0   6  -6    5.21    2.01
   0   6  -6    6.22    1.64
   0   6  -6    5.21    2.01
   0  -6   6    3.08    1.50
   0  -6   6    2.81    1.68
   0  -6   6    3.08    1.50
   0  -6   6    2.63    1.64
   0  -6   6    4.41    2.09
   0  -6   6    2.81    1.68
  -1   6  -6    0.54    2.34
  -1   6  -6    0.65    1.61
  -1   6  -6    0.05    2.43
  -1   6  -6    1.58    1.77
  -1   6  -6    0.65    1.61
  -1   6  -6    0.05    2.43
   1  -6   6    0.62    1.56
   1  -6   6   -1.45    1.45
   1  -6   6    1.42    1.91
   1  -6   6   -1.45    1.45
   1  -6   6    0.62    1.56
   1  -6   6    1.59    2.50
  -2   6  -6   27.26    3.57
  -2   6  -6   29.58    2.75
  -2   6  -6   27.26    3.57
  -2   6  -6   35.69    3.04
  -2   6  -6   29.58    2.75
  -2   6  -6   27.87    3.69
   2  -6   6   32.56    2.86
   2  -6   6   32.56    2.86
   2  -6   6   41.37    4.13
   2  -6   6   30.12    3.56
   2  -6   6   30.69    2.53
   2  -6   6   30.60    2.60
   2  -6   6   30.69    2.53
   2  -6   6   30.12    3.56
   2  -6   6   35.31    3.04
   2  -6   6   30.60    2.60
   5   5  -6   23.32    3.05
   5   5  -6   26.15    2.44
   5   5  -6   28.81    4.10
   5   5  -6   23.32    3.05
   5   5  -6   26.15    2.44
   5   5  -6   27.74    3.20
   5   5  -6   25.95    2.60
   5   5  -6   28.81    4.10
   5   5  -6   27.61    3.07
  -5  -5   6   32.36    3.77
  -5  -5   6   20.19    2.90
  -5  -5   6   20.19    2.90
  -5  -5   6   24.08    2.58
  -5  -5   6   26.72    3.45
  -5  -5   6   32.36    3.77
  -5  -5   6   24.08    2.58
  -5  -5   6   27.42    2.69
   4   5  -6   14.00    2.05
   4   5  -6   12.36    1.93
   4   5  -6   14.04    2.16
   4   5  -6   16.43    3.09
   4   5  -6   13.90    2.06
   4   5  -6   16.43    3.09
   4   5  -6    9.51    2.11
   4   5  -6    9.51    2.11
   4   5  -6   14.00    2.05
  -4  -5   6    8.88    2.14
  -4  -5   6   17.50    3.05
  -4  -5   6    8.88    2.14
  -4  -5   6   17.50    3.05
  -4  -5   6   12.34    2.33
   3   5  -6   15.39    1.93
   3   5  -6   17.58    2.53
   3   5  -6   17.58    2.53
   3   5  -6   20.52    1.95
   3   5  -6   14.83    1.91
   3   5  -6   20.52    1.95
  -3  -5   6   20.60    2.83
  -3  -5   6   17.25    1.99
  -3  -5   6   17.86    2.17
  -3  -5   6   20.60    2.83
  -3  -5   6   20.46    1.94
  -3  -5   6   20.46    1.94
  -3  -5   6   17.25    1.99
   2   5  -6   78.27    3.28
   2   5  -6   78.27    3.28
   2   5  -6   80.22    3.40
   2   5  -6   78.77    3.14
   2   5  -6   78.77    3.14
   2   5  -6   80.09    3.21
  -2  -5   6   75.54    3.06
  -2  -5   6   79.04    3.30
  -2  -5   6   79.14    3.16
  -2  -5   6   79.14    3.16
  -2  -5   6   77.08    3.57
  -2  -5   6   81.16    3.31
  -2  -5   6   75.54    3.06
  -2  -5   6   77.08    3.57
   1   5  -6   59.63    2.99
   1   5  -6   59.63    2.99
   1   5  -6   58.17    1.75
   1   5  -6   60.22    3.05
   1   5  -6   62.74    2.81
   1   5  -6   58.01    2.65
   1   5  -6   58.18    1.75
   1   5  -6   58.01    2.65
  -1  -5   6   61.17    2.72
  -1  -5   6   61.11    3.23
  -1  -5   6   63.73    3.00
  -1  -5   6   61.17    2.72
  -1  -5   6   61.11    3.23
  -1  -5   6   63.73    3.00
  -1  -5   6   59.31    3.18
  -1  -5   6   61.08    2.84
   0   5  -6    0.79    1.15
   0   5  -6    0.79    1.15
   0   5  -6   -0.45    1.57
   0   5  -6    0.31    1.33
   0   5  -6    2.66    1.78
   0   5  -6   -0.45    1.57
   0   5  -6    1.25    1.14
   0   5  -6    1.25    1.14
   0  -5   6    1.33    1.39
   0  -5   6    0.56    1.27
   0  -5   6    0.69    1.20
   0  -5   6    0.69    1.20
   0  -5   6    0.55    1.43
   0  -5   6    0.55    1.43
   0  -5   6   -0.31    1.66
   0  -5   6    0.56    1.27
  -1   5  -6   54.18    3.73
  -1   5  -6   56.63    3.55
  -1   5  -6   54.94    2.79
  -1   5  -6   54.94    2.79
  -1   5  -6   56.63    3.55
  -1   5  -6   52.24    2.89
   1  -5   6   48.04    2.72
   1  -5   6   48.04    2.72
   1  -5   6   53.88    2.79
   1  -5   6   49.98    3.74
   1  -5   6   53.88    2.79
   1  -5   6   59.14    3.04
  -2   5  -6   25.08    3.16
  -2   5  -6   24.94    3.08
  -2   5  -6   24.95    2.33
  -2   5  -6   24.95    2.33
  -2   5  -6   21.34    2.45
  -2   5  -6   24.94    3.08
   2  -5   6   22.43    2.01
   2  -5   6   25.71    2.15
   2  -5   6   22.43    2.01
   2  -5   6   24.08    3.11
   2  -5   6   25.71    2.15
   2  -5   6   20.18    2.41
  -3   5  -6    0.08    1.43
  -3   5  -6   -0.82    3.03
  -3   5  -6   -0.82    3.03
  -3   5  -6    1.46    3.04
  -3   5  -6    0.49    1.68
  -3   5  -6    0.08    1.43
   3  -5   6    3.48    2.13
   3  -5   6   -2.11    1.94
   3  -5   6   -1.20    2.02
   3  -5   6    3.48    2.13
   3  -5   6   -0.11    2.28
   3  -5   6   -2.11    1.94
   3  -5   6   -0.11    2.28
   3  -5   6   -1.38    2.76
   5   4  -6    0.81    2.26
   5   4  -6    0.82    2.37
   5   4  -6    1.37    2.27
   5   4  -6    0.40    3.33
   5   4  -6    3.27    1.80
   5   4  -6    0.40    3.33
   5   4  -6    1.37    2.27
   5   4  -6   -0.55    1.86
   5   4  -6    3.27    1.80
  -5  -4   6    2.24    2.28
  -5  -4   6    0.81    1.94
  -5  -4   6    3.10    3.17
  -5  -4   6    0.26    2.07
  -5  -4   6    0.77    2.62
  -5  -4   6    3.10    3.17
  -5  -4   6    0.26    2.07
  -5  -4   6    2.24    2.28
   4   4  -6   81.92    3.27
   4   4  -6   85.29    3.82
   4   4  -6   81.92    3.27
   4   4  -6   73.80    3.37
   4   4  -6   79.83    3.85
   4   4  -6   79.69    3.98
   4   4  -6   76.59    4.75
   4   4  -6   76.59    4.75
   4   4  -6   85.29    3.82
  -4  -4   6   71.00    3.75
  -4  -4   6   83.32    3.34
  -4  -4   6   78.78    4.01
  -4  -4   6   83.32    3.34
  -4  -4   6   77.37    3.37
  -4  -4   6   71.00    3.75
  -4  -4   6   80.01    4.65
  -4  -4   6   80.01    4.65
   3   4  -6   25.80    2.13
   3   4  -6   21.70    2.63
   3   4  -6   25.96    2.28
   3   4  -6   25.65    2.21
   3   4  -6   25.96    2.28
   3   4  -6   25.80    2.13
   3   4  -6   21.70    2.63
  -3  -4   6   26.79    2.45
  -3  -4   6   25.63    2.75
  -3  -4   6   21.44    1.92
  -3  -4   6   21.44    1.92
  -3  -4   6   22.57    2.12
  -3  -4   6   25.63    2.75
  -3  -4   6   22.57    2.12
  -3  -4   6   23.00    2.02
   2   4  -6   13.65    1.58
   2   4  -6   16.07    1.68
   2   4  -6   17.90    1.70
   2   4  -6   16.07    1.68
   2   4  -6   13.65    1.58
   2   4  -6   15.08    1.75
  -2  -4   6   16.42    1.77
  -2  -4   6   15.01    1.60
  -2  -4   6   14.47    1.71
  -2  -4   6   14.47    1.71
  -2  -4   6   15.01    1.60
  -2  -4   6   19.99    1.86
  -2  -4   6   13.59    2.00
  -2  -4   6   13.59    2.00
   1   4  -6   32.65    1.80
   1   4  -6   34.62    2.20
   1   4  -6   32.65    1.80
   1   4  -6   34.73    2.22
   1   4  -6   35.10    1.08
   1   4  -6   34.01    2.30
   1   4  -6   35.10    1.08
   1   4  -6   34.73    2.22
  -1  -4   6   33.18    2.07
  -1  -4   6   33.20    2.48
  -1  -4   6   33.10    2.28
  -1  -4   6   31.65    2.12
  -1  -4   6   34.03    2.19
  -1  -4   6   31.65    2.12
  -1  -4   6   33.18    2.07
  -1  -4   6   33.20    2.48
   0   4  -6   57.16    2.29
   0   4  -6   61.20    2.94
   0   4  -6   57.79    3.02
   0   4  -6   57.15    2.29
   0   4  -6   57.24    2.61
   0   4  -6   59.08    2.69
   0   4  -6   57.24    2.61
   0   4  -6   61.20    2.94
   0  -4   6   62.90    2.96
   0  -4   6   63.07    2.68
   0  -4   6   65.17    2.69
   0  -4   6   62.90    2.96
   0  -4   6   63.07    2.68
   0  -4   6   65.17    2.69
   0  -4   6   59.87    3.02
   0  -4   6   63.85    2.74
  -1   4  -6   52.46    2.74
  -1   4  -6   54.44    3.16
  -1   4  -6   54.44    3.16
  -1   4  -6   50.76    3.21
  -1   4  -6   57.11    2.74
  -1   4  -6   52.47    2.73
  -1   4  -6   48.09    2.37
  -1   4  -6   48.09    2.37
   1  -4   6   52.06    3.01
   1  -4   6   52.06    3.01
   1  -4   6   53.13    2.79
   1  -4   6   51.85    2.61
   1  -4   6   51.85    2.61
   1  -4   6   53.35    3.20
  -2   4  -6   51.56    3.64
  -2   4  -6   49.27    3.22
  -2   4  -6   57.50    2.66
  -2   4  -6   51.56    3.64
  -2   4  -6   52.96    3.72
  -2   4  -6   57.50    2.66
   2  -4   6   50.86    3.05
   2  -4   6   50.86    3.05
   2  -4   6   57.38    3.14
   2  -4   6   59.36    3.03
   2  -4   6   59.36    3.03
   2  -4   6   50.81    3.67
  -3   4  -6   26.94    3.23
  -3   4  -6   23.57    2.46
  -3   4  -6   26.94    3.23
  -3   4  -6   26.58    3.01
  -3   4  -6   25.15    2.60
  -3   4  -6   23.57    2.46
   3  -4   6   22.85    2.43
   3  -4   6   27.04    2.50
   3  -4   6   25.17    2.28
   3  -4   6   22.32    3.23
   3  -4   6   25.17    2.28
   3  -4   6   27.04    2.50
   3  -4   6   22.32    3.23
   3  -4   6   22.54    3.28
  -4   4  -6    2.89    3.45
  -4   4  -6    5.03    2.54
  -4   4  -6    2.19    2.53
  -4   4  -6    4.79    2.50
  -4   4  -6    2.31    2.63
  -4   4  -6    5.03    2.54
  -4   4  -6    2.89    3.45
   4  -4   6    4.52    3.36
   4  -4   6    3.43    2.80
   4  -4   6    4.34    2.36
   4  -4   6    5.07    2.29
   4  -4   6    1.70    3.35
   4  -4   6    5.07    2.29
   4  -4   6    3.43    2.80
   4  -4   6    1.70    3.35
   6   3  -6   11.12    4.23
   6   3  -6   16.55    2.70
   6   3  -6   11.12    4.23
   6   3  -6   16.55    2.70
   6   3  -6   19.55    3.42
   6   3  -6   19.55    3.42
   6   3  -6   16.61    3.65
   6   3  -6   16.62    3.51
   6   3  -6   13.80    2.93
  -6  -3   6   13.07    2.67
  -6  -3   6   13.07    2.67
  -6  -3   6   16.02    1.98
  -6  -3   6   15.57    3.40
  -6  -3   6   13.46    3.55
  -6  -3   6   10.74    2.89
  -6  -3   6   13.46    3.55
  -6  -3   6   16.02    1.98
  -6  -3   6   15.57    3.40
  -6  -3   6   15.62    3.72
   5   3  -6   34.85    4.05
   5   3  -6   36.19    3.55
   5   3  -6   40.67    3.61
   5   3  -6   36.15    3.08
   5   3  -6   34.85    4.05
   5   3  -6   40.67    3.61
   5   3  -6   44.33    3.06
   5   3  -6   44.33    3.06
   5   3  -6   36.01    3.40
  -5  -3   6   38.05    3.20
  -5  -3   6   35.24    3.50
  -5  -3   6   42.50    4.15
  -5  -3   6   38.10    3.33
  -5  -3   6   38.89    2.11
  -5  -3   6   38.89    2.10
  -5  -3   6   42.50    4.15
  -5  -3   6   38.10    3.33
   4   3  -6   39.86    3.27
   4   3  -6   39.66    2.60
   4   3  -6   39.86    3.27
   4   3  -6   43.39    2.63
   4   3  -6   43.09    2.59
   4   3  -6   46.25    3.24
   4   3  -6   43.09    2.59
   4   3  -6   46.10    3.11
   4   3  -6   39.66    2.60
  -4  -3   6   44.24    3.08
  -4  -3   6   48.20    3.88
  -4  -3   6   39.71    1.23
  -4  -3   6   46.56    2.92
  -4  -3   6   39.99    3.26
  -4  -3   6   39.71    1.23
  -4  -3   6   44.24    3.08
  -4  -3   6   48.20    3.88
   3   3  -6   17.45    1.70
   3   3  -6   19.17    2.58
   3   3  -6   16.75    1.96
   3   3  -6   16.75    1.96
   3   3  -6   17.08    1.69
   3   3  -6   17.45    1.70
   3   3  -6   19.17    2.58
  -3  -3   6   18.73    2.64
  -3  -3   6   17.93    1.77
  -3  -3   6   15.47    2.03
  -3  -3   6   18.50    1.69
  -3  -3   6   16.31    1.64
  -3  -3   6   17.93    1.77
  -3  -3   6   16.31    1.64
  -3  -3   6   18.73    2.64
   2   3  -6   78.71    3.08
   2   3  -6   76.63    2.99
   2   3  -6   79.50    3.00
   2   3  -6   82.04    2.92
   2   3  -6   76.63    2.99
   2   3  -6   82.04    2.92
  -2  -3   6   78.22    3.63
  -2  -3   6   78.73    2.95
  -2  -3   6   83.64    3.17
  -2  -3   6   78.22    3.63
  -2  -3   6   80.57    2.86
  -2  -3   6   80.57    2.86
   1   3  -6   74.62    2.67
   1   3  -6   74.42    2.72
   1   3  -6   73.51    2.82
   1   3  -6   73.51    2.82
   1   3  -6   77.72    2.95
   1   3  -6   74.42    2.72
  -1  -3   6   79.84    2.84
  -1  -3   6   72.90    2.75
  -1  -3   6   72.90    2.75
  -1  -3   6   79.84    2.84
  -1  -3   6   78.68    3.34
  -1  -3   6   74.27    2.84
  -1  -3   6   78.68    3.34
  -1  -3   6   73.46    2.92
   0   3  -6    4.25    1.22
   0   3  -6    4.57    0.85
   0   3  -6    4.69    1.07
   0   3  -6    4.57    0.85
   0   3  -6    5.25    1.32
   0   3  -6    4.69    1.07
   0   3  -6    5.72    1.11
   0   3  -6    4.25    1.22
   0  -3   6    4.32    1.17
   0  -3   6    5.15    1.04
   0  -3   6    5.15    1.04
   0  -3   6    3.28    1.41
   0  -3   6    3.69    1.19
   0  -3   6    4.68    1.23
   0  -3   6    3.28    1.41
   0  -3   6    4.32    1.17
  -1   3  -6   96.95    3.65
  -1   3  -6   96.05    3.30
  -1   3  -6   97.39    3.75
  -1   3  -6   96.05    3.30
  -1   3  -6   95.02    3.26
  -1   3  -6   96.95    3.65
  -1   3  -6   89.98    3.36
  -1   3  -6   95.02    3.27
   1  -3   6   99.21    4.28
   1  -3   6   99.21    4.28
   1  -3   6   98.72    3.41
   1  -3   6   94.45    3.14
   1  -3   6   95.93    3.71
   1  -3   6   94.45    3.14
  -2   3  -6   70.04    3.11
  -2   3  -6   63.87    3.39
  -2   3  -6   58.55    2.83
  -2   3  -6   64.51    2.79
  -2   3  -6   66.61    3.65
  -2   3  -6   58.55    2.83
  -2   3  -6   63.87    3.39
  -2   3  -6   70.03    3.11
   2  -3   6   67.98    3.61
   2  -3   6   60.70    3.01
   2  -3   6   64.39    2.93
   2  -3   6   60.70    3.01
   2  -3   6   64.39    2.93
   2  -3   6   65.25    3.09
  -3   3  -6   34.86    3.21
  -3   3  -6   34.63    2.45
  -3   3  -6   32.13    3.25
  -3   3  -6   34.86    3.21
  -3   3  -6   32.21    2.64
  -3   3  -6   32.21    2.64
   3  -3   6   32.81    2.70
   3  -3   6   29.16    2.50
   3  -3   6   29.16    2.50
   3  -3   6   31.42    3.18
   3  -3   6   35.18    2.88
   3  -3   6   35.18    2.88
   3  -3   6   34.57    2.98
   3  -3   6   34.57    2.98
  -4   3  -6   30.97    2.93
  -4   3  -6   31.38    3.81
  -4   3  -6   30.97    2.93
  -4   3  -6   24.69    2.77
  -4   3  -6   24.69    2.77
  -4   3  -6   25.77    3.46
  -4   3  -6   31.38    3.81
   4  -3   6   27.54    3.68
   4  -3   6   28.12    3.59
   4  -3   6   26.08    2.76
   4  -3   6   32.18    3.07
   4  -3   6   31.92    3.46
   4  -3   6   27.54    3.68
   4  -3   6   28.12    3.59
   4  -3   6   26.08    2.76
   6   2  -6   27.58    3.82
   6   2  -6   24.21    3.51
   6   2  -6   26.12    3.12
   6   2  -6   26.12    3.12
   6   2  -6   25.90    3.27
   6   2  -6   27.58    3.82
   6   2  -6   24.35    3.67
   6   2  -6   21.75    4.47
   6   2  -6   21.75    4.47
  -6  -2   6   28.61    3.30
  -6  -2   6   27.23    3.76
  -6  -2   6   25.82    4.40
  -6  -2   6   33.56    3.94
  -6  -2   6   25.82    4.40
  -6  -2   6   27.23    3.76
  -6  -2   6   21.64    2.93
  -6  -2   6   21.64    2.93
   5   2  -6    9.60    2.51
   5   2  -6    7.96    2.03
   5   2  -6    9.60    2.51
   5   2  -6    7.96    2.03
   5   2  -6    7.67    2.20
   5   2  -6    4.92    2.47
   5   2  -6    4.95    2.59
  -5  -2   6    4.51    2.32
  -5  -2   6    8.54    2.19
  -5  -2   6    4.08    2.47
  -5  -2   6   13.75    2.95
  -5  -2   6    4.08    2.47
  -5  -2   6    4.51    2.32
   4   2  -6   24.44    2.46
   4   2  -6   22.43    1.84
   4   2  -6   19.44    2.90
   4   2  -6   23.47    2.22
   4   2  -6   22.43    1.84
   4   2  -6   24.44    2.46
   4   2  -6   19.44    2.90
  -4  -2   6   23.49    2.47
  -4  -2   6   21.07    2.15
  -4  -2   6   21.55    2.93
  -4  -2   6   23.49    2.47
  -4  -2   6   20.75    2.63
  -4  -2   6   21.55    2.93
   3   2  -6   32.98    2.07
   3   2  -6   33.12    2.24
   3   2  -6   27.90    2.36
   3   2  -6   31.54    2.94
   3   2  -6   27.90    2.36
   3   2  -6   31.64    2.56
   3   2  -6   31.38    2.44
   3   2  -6   31.54    2.94
   3   2  -6   32.98    2.07
  -3  -2   6   25.05    2.32
  -3  -2   6   30.86    2.39
  -3  -2   6   30.52    2.88
  -3  -2   6   27.49    2.35
  -3  -2   6   28.71    1.73
  -3  -2   6   28.71    1.73
  -3  -2   6   30.52    2.88
  -3  -2   6   27.49    2.35
   2   2  -6  113.19    3.80
   2   2  -6  125.52    3.65
   2   2  -6  125.52    3.65
   2   2  -6  124.94    3.76
  -2  -2   6  117.84    3.48
  -2  -2   6  120.20    4.44
  -2  -2   6  123.56    3.83
  -2  -2   6  119.94    3.90
  -2  -2   6  120.20    4.44
  -2  -2   6  117.84    3.48
  -2  -2   6  129.87    3.75
  -2  -2   6  123.56    3.83
   1   2  -6  139.16    3.83
   1   2  -6  139.16    3.83
   1   2  -6  136.76    3.83
   1   2  -6  136.76    3.83
   1   2  -6  133.77    3.91
   1   2  -6  138.57    3.98
  -1  -2   6  142.31    3.92
  -1  -2   6  142.31    3.92
  -1  -2   6  140.27    4.55
  -1  -2   6  140.71    3.98
  -1  -2   6  134.74    4.03
  -1  -2   6  140.27    4.55
  -1  -2   6  140.92    4.00
  -1  -2   6  140.71    3.98
   0   2  -6   95.03    3.05
   0   2  -6   94.43    3.17
   0   2  -6   95.19    2.63
   0   2  -6   95.52    3.04
   0   2  -6   95.03    3.05
   0   2  -6   93.70    3.21
   0   2  -6   95.52    3.04
   0   2  -6   95.18    2.63
   0  -2   6   98.64    3.19
   0  -2   6  100.27    3.13
   0  -2   6   97.08    3.55
   0  -2   6  100.27    3.13
   0  -2   6   97.08    3.55
   0  -2   6   98.64    3.19
   0  -2   6   92.51    3.24
   0  -2   6   93.00    3.02
  -1   2  -6   45.26    1.98
  -1   2  -6   45.26    1.98
  -1   2  -6   49.49    2.58
  -1   2  -6   48.79    2.24
  -1   2  -6   47.00    2.11
  -1   2  -6   48.79    2.24
  -1   2  -6   48.50    2.33
  -1   2  -6   47.00    2.11
   1  -2   6   48.36    2.45
   1  -2   6   46.21    2.23
   1  -2   6   45.53    2.58
   1  -2   6   50.48    2.37
   1  -2   6   48.36    2.45
   1  -2   6   46.21    2.23
  -2   2  -6  166.74    4.88
  -2   2  -6  171.19    4.70
  -2   2  -6  166.74    4.88
  -2   2  -6  172.93    5.21
  -2   2  -6  172.93    5.21
  -2   2  -6  174.23    4.98
  -2   2  -6  173.78    5.36
  -2   2  -6  171.19    4.70
   2  -2   6  170.43    4.69
   2  -2   6  170.43    4.69
   2  -2   6  165.69    4.92
   2  -2   6  166.89    5.00
   2  -2   6  166.89    5.00
   2  -2   6  174.03    5.36
  -3   2  -6   39.50    2.36
  -3   2  -6   44.41    2.74
  -3   2  -6   53.91    3.45
  -3   2  -6   53.91    3.45
  -3   2  -6   45.28    3.10
  -3   2  -6   45.33    3.10
  -3   2  -6   46.49    3.44
  -3   2  -6   44.41    2.74
   3  -2   6   41.38    2.37
   3  -2   6   45.82    2.77
   3  -2   6   44.76    3.34
   3  -2   6   44.30    2.77
   3  -2   6   44.30    2.77
   3  -2   6   45.82    2.77
   3  -2   6   49.18    3.36
   3  -2   6   49.18    3.36
  -4   2  -6   29.79    2.76
  -4   2  -6   34.53    3.20
  -4   2  -6   40.94    3.65
  -4   2  -6   32.23    2.77
  -4   2  -6   29.93    3.07
  -4   2  -6   32.23    2.77
  -4   2  -6   34.54    3.20
  -4   2  -6   40.94    3.65
   4  -2   6   31.69    2.96
   4  -2   6   32.02    2.81
   4  -2   6   33.26    3.42
   4  -2   6   35.79    3.57
   4  -2   6   32.02    2.81
   4  -2   6   31.69    2.96
   4  -2   6   35.24    3.10
   4  -2   6   33.26    3.42
  -5   2  -6    5.67    3.21
  -5   2  -6    9.72    2.09
  -5   2  -6    9.75    2.74
  -5   2  -6   10.12    3.66
  -5   2  -6    9.72    2.09
  -5   2  -6   13.62    3.26
  -5   2  -6    5.25    3.08
  -5   2  -6   10.12    3.66
  -5   2  -6   13.46    3.26
   5  -2   6   13.76    3.34
   5  -2   6    4.58    1.95
   5  -2   6    4.58    1.95
   5  -2   6    9.90    3.26
   5  -2   6    3.50    3.33
   5  -2   6   13.76    3.34
   5  -2   6    3.50    3.33
   5  -2   6    9.84    2.65
   6   1  -6   34.92    3.08
   6   1  -6   23.49    3.92
   6   1  -6   36.20    3.42
   6   1  -6   31.40    4.01
   6   1  -6   23.53    4.09
   6   1  -6   34.92    3.08
   6   1  -6   31.40    4.01
   6   1  -6   21.11    3.65
   6   1  -6   21.11    3.65
  -6  -1   6   34.36    4.06
  -6  -1   6   35.97    4.06
  -6  -1   6   30.27    4.11
  -6  -1   6   35.97    4.06
  -6  -1   6   28.87    3.64
  -6  -1   6   34.36    4.06
   5   1  -6   18.39    2.07
   5   1  -6    8.68    2.62
   5   1  -6   18.39    2.07
   5   1  -6   13.75    2.67
   5   1  -6   14.78    2.10
   5   1  -6   13.75    2.67
   5   1  -6    8.70    2.74
  -5  -1   6   14.52    3.28
  -5  -1   6   12.48    2.49
  -5  -1   6   14.52    3.28
  -5  -1   6   13.53    2.51
   4   1  -6   33.74    3.00
   4   1  -6   35.53    3.10
   4   1  -6   33.74    3.00
   4   1  -6   31.15    2.13
   4   1  -6   35.59    3.22
   4   1  -6   31.81    2.55
   4   1  -6   31.15    2.13
   4   1  -6   34.84    3.03
   4   1  -6   34.84    3.03
  -4  -1   6   32.03    3.33
  -4  -1   6   32.73    2.73
  -4  -1   6   33.51    2.94
  -4  -1   6   39.47    2.64
  -4  -1   6   33.51    2.94
  -4  -1   6   32.03    3.33
  -4  -1   6   35.05    3.06
  -4  -1   6   39.47    2.64
   3   1  -6    5.70    1.09
   3   1  -6    5.70    1.09
   3   1  -6    5.37    2.37
   3   1  -6    5.43    1.24
   3   1  -6    5.37    2.37
   3   1  -6    5.50    1.29
   3   1  -6    5.50    1.29
   3   1  -6    5.27    1.34
   3   1  -6    5.24    1.28
  -3  -1   6    1.52    1.46
  -3  -1   6    4.47    1.61
  -3  -1   6    4.88    1.64
  -3  -1   6    4.88    1.64
  -3  -1   6    1.52    1.46
  -3  -1   6    3.30    1.70
  -3  -1   6    4.47    1.61
  -3  -1   6    5.13    1.38
   2   1  -6  139.84    3.87
   2   1  -6  128.80    3.91
   2   1  -6  132.57    3.91
   2   1  -6  128.80    3.91
   2   1  -6  139.84    3.87
  -2  -1   6  129.58    4.64
  -2  -1   6  129.58    4.64
  -2  -1   6  135.47    3.84
  -2  -1   6  139.07    4.21
  -2  -1   6  132.09    3.94
  -2  -1   6  136.84    3.13
  -2  -1   6  135.47    3.84
  -2  -1   6  136.85    3.13
  -2  -1   6  132.09    3.94
  -2  -1   6  138.59    3.94
   1   1  -6  120.81    3.52
   1   1  -6  119.04    3.50
   1   1  -6  117.31    3.60
   1   1  -6  118.95    3.34
   1   1  -6  118.95    3.34
   1   1  -6  119.04    3.50
  -1  -1   6  116.49    3.48
  -1  -1   6  113.13    3.36
  -1  -1   6  118.91    3.51
  -1  -1   6  117.58    3.48
  -1  -1   6  113.13    3.36
  -1  -1   6  115.13    4.07
  -1  -1   6  118.91    3.51
  -1  -1   6  115.13    4.07
   0   1  -6   15.23    1.34
   0   1  -6   16.46    1.45
   0   1  -6   15.63    1.10
   0   1  -6   15.23    1.34
   0   1  -6   16.36    1.44
   0   1  -6   16.46    1.45
   0   1  -6   17.28    1.53
   0   1  -6   15.63    1.10
   0  -1   6   18.21    1.48
   0  -1   6   18.21    1.48
   0  -1   6   16.19    1.43
   0  -1   6   16.49    1.33
   0  -1   6   15.00    1.37
   0  -1   6   15.00    1.37
  -1   1  -6  115.35    3.32
  -1   1  -6  115.37    3.32
  -1   1  -6  120.95    3.60
  -1   1  -6  120.95    3.60
  -1   1  -6  106.79    3.26
  -1   1  -6  106.79    3.26
  -1   1  -6  118.36    3.69
  -1   1  -6  115.03    3.50
   1  -1   6  116.05    3.67
   1  -1   6  113.73    3.30
   1  -1   6  113.73    3.30
   1  -1   6  108.97    3.41
   1  -1   6  108.97    3.41
   1  -1   6  118.79    3.53
  -2   1  -6  137.18    4.17
  -2   1  -6  141.31    4.44
  -2   1  -6  134.56    4.03
  -2   1  -6  135.28    4.32
  -2   1  -6  137.18    4.17
  -2   1  -6  135.28    4.32
  -2   1  -6  132.49    4.10
  -2   1  -6  134.56    4.03
   2  -1   6  138.69    4.02
   2  -1   6  138.69    4.02
   2  -1   6  136.00    4.01
   2  -1   6  144.34    4.51
   2  -1   6  143.59    4.37
   2  -1   6  143.59    4.37
  -3   1  -6   15.20    1.91
  -3   1  -6   15.11    1.89
  -3   1  -6   13.45    1.97
  -3   1  -6   15.11    1.90
  -3   1  -6   13.45    1.97
  -3   1  -6   12.44    1.71
  -3   1  -6   12.44    1.71
  -3   1  -6   12.87    1.81
   3  -1   6   15.69    2.16
   3  -1   6   16.23    1.90
   3  -1   6   15.69    2.16
   3  -1   6   12.91    1.53
   3  -1   6   13.69    1.67
   3  -1   6   16.23    1.90
   3  -1   6   14.58    2.19
   3  -1   6   13.69    1.67
  -4   1  -6   13.59    2.56
  -4   1  -6   14.19    2.22
  -4   1  -6   17.19    2.56
  -4   1  -6   13.59    2.56
  -4   1  -6   14.94    1.81
  -4   1  -6   14.94    1.81
  -4   1  -6   14.72    2.43
  -4   1  -6   14.77    2.44
   4  -1   6   14.36    2.00
   4  -1   6   14.22    2.41
   4  -1   6   14.22    2.41
   4  -1   6   16.79    2.43
   4  -1   6   14.36    2.00
   4  -1   6   13.19    2.54
   4  -1   6   16.79    2.43
   4  -1   6   11.91    2.10
  -5   1  -6   27.43    3.39
  -5   1  -6   28.26    3.56
  -5   1  -6   28.26    3.56
  -5   1  -6   25.42    3.50
  -5   1  -6   29.12    2.93
  -5   1  -6   28.08    2.97
  -5   1  -6   29.12    2.93
  -5   1  -6   25.93    3.64
  -5   1  -6   27.44    3.39
   5  -1   6   27.18    2.90
   5  -1   6   25.46    3.48
   5  -1   6   27.18    2.90
   5  -1   6   22.94    2.93
   5  -1   6   19.41    3.26
   5  -1   6   22.94    2.93
   5  -1   6   19.41    3.26
   5  -1   6   28.12    2.87
   6   0  -6    0.23    3.07
   6   0  -6    0.23    3.23
   6   0  -6    1.51    4.01
   6   0  -6    1.51    4.01
   6   0  -6    1.72    2.81
   6   0  -6    1.72    2.81
   6   0  -6    0.67    2.89
   6   0  -6    0.42    2.48
   6   0  -6    0.42    2.48
  -6   0   6    7.67    3.49
  -6   0   6    3.21    3.05
  -6   0   6   -2.36    2.85
  -6   0   6   -2.36    2.85
  -6   0   6    1.87    3.45
  -6   0   6    7.67    3.49
   5   0  -6   14.51    2.17
   5   0  -6   12.10    2.38
   5   0  -6   20.23    2.93
   5   0  -6   20.28    3.06
   5   0  -6   13.76    2.38
   5   0  -6   12.10    2.38
   5   0  -6   13.76    2.38
  -5   0   6   12.51    2.33
  -5   0   6   16.79    3.12
  -5   0   6   12.51    2.33
  -5   0   6   13.98    2.55
  -5   0   6   11.72    3.30
  -5   0   6   11.72    3.30
   4   0  -6   51.64    3.43
   4   0  -6   56.43    4.05
   4   0  -6   51.64    3.43
   4   0  -6   55.28    3.18
   4   0  -6   51.40    1.78
   4   0  -6   56.45    3.04
   4   0  -6   51.41    1.78
   4   0  -6   54.79    3.52
   4   0  -6   56.45    3.04
   4   0  -6   54.88    3.66
   4   0  -6   50.38    1.77
   4   0  -6   56.43    4.05
  -4   0   6   45.03    3.53
  -4   0   6   57.36    3.74
  -4   0   6   55.50    3.56
  -4   0   6   48.80    2.57
  -4   0   6   55.50    3.56
  -4   0   6   58.94    4.14
  -4   0   6   58.94    4.14
  -4   0   6   48.80    2.57
   3   0  -6  310.34    8.17
   3   0  -6  319.88    8.04
   3   0  -6  315.27    7.55
   3   0  -6  315.27    7.55
   3   0  -6  280.75    9.31
   3   0  -6  280.75    9.31
   3   0  -6  319.30    7.74
   3   0  -6  319.88    8.04
   3   0  -6  311.20    8.04
  -3   0   6  334.44    7.71
  -3   0   6  311.63    8.00
  -3   0   6  311.63    8.00
  -3   0   6  314.75    8.15
  -3   0   6  326.54    8.77
  -3   0   6  326.54    8.77
  -3   0   6  334.44    7.71
  -3   0   6  330.16    7.80
   2   0  -6    9.93    1.11
   2   0  -6    9.93    1.11
   2   0  -6   11.19    1.36
   2   0  -6    9.98    1.30
   2   0  -6    9.99    1.50
   2   0  -6   10.18    1.59
   2   0  -6    9.98    1.30
  -2   0   6    9.88    1.14
  -2   0   6   10.88    1.40
  -2   0   6    8.31    1.66
  -2   0   6   11.14    1.34
  -2   0   6    9.15    1.55
  -2   0   6   11.14    1.34
  -2   0   6    9.88    1.14
  -2   0   6    8.31    1.66
   1   0  -6   36.72    1.60
   1   0  -6   32.49    1.81
   1   0  -6   35.08    1.88
   1   0  -6   36.72    1.60
   1   0  -6   35.27    1.96
   1   0  -6   35.08    1.88
  -1   0   6   36.08    1.91
  -1   0   6   36.04    1.44
  -1   0   6   36.08    1.91
  -1   0   6   37.07    2.54
  -1   0   6   36.04    1.43
  -1   0   6   33.79    1.56
  -1   0   6   33.08    1.82
  -1   0   6   33.79    1.56
  -1   0   6   37.07    2.54
  -1   0   6   32.95    1.93
   0   0  -6   44.66    1.81
   0   0  -6   45.53    1.66
   0   0  -6   43.10    2.03
   0   0  -6   49.17    1.84
   0   0  -6   44.66    1.81
   0   0  -6   45.54    1.66
   0   0  -6   49.17    1.84
   0   0  -6   50.03    2.06
   0   0   6   46.43    1.82
   0   0   6   44.98    2.04
   0   0   6   46.93    1.83
   0   0   6   51.02    2.07
   0   0   6   46.43    1.82
   0   0   6   47.25    1.82
   0   0   6   46.93    1.84
   0   0   6   47.25    1.82
  -1   0  -6  151.61    4.04
  -1   0  -6  150.23    4.02
  -1   0  -6  147.51    3.86
  -1   0  -6  147.51    3.86
  -1   0  -6  147.00    3.86
  -1   0  -6  150.98    4.10
  -1   0  -6  147.00    3.85
  -1   0  -6  151.61    4.04
   1   0   6  145.04    4.06
   1   0   6  147.83    4.04
   1   0   6  146.65    4.01
   1   0   6  140.77    3.89
   1   0   6  145.04    4.06
   1   0   6  140.77    3.89
   1   0   6  147.83    4.04
   1   0   6  144.91    4.10
  -2   0  -6  173.51    4.73
  -2   0  -6  160.54    4.40
  -2   0  -6  163.20    4.38
  -2   0  -6  160.55    4.40
  -2   0  -6  164.18    4.59
  -2   0  -6  164.18    4.59
  -2   0  -6  162.11    4.47
  -2   0  -6  163.20    4.38
   2   0   6  153.59    4.22
   2   0   6  153.59    4.22
   2   0   6  159.78    4.69
   2   0   6  161.21    4.35
   2   0   6  164.86    4.62
   2   0   6  164.86    4.62
  -3   0  -6   53.59    2.56
  -3   0  -6   53.95    2.42
  -3   0  -6   54.85    3.04
  -3   0  -6   53.58    2.56
  -3   0  -6   54.85    3.04
  -3   0  -6   57.26    2.94
  -3   0  -6   51.69    2.31
  -3   0  -6   51.69    2.31
   3   0   6   57.54    2.56
   3   0   6   57.54    2.56
   3   0   6   52.56    2.55
   3   0   6   54.62    2.90
   3   0   6   54.62    2.90
   3   0   6   51.75    3.03
  -4   0  -6    1.08    1.80
  -4   0  -6   -1.77    1.75
  -4   0  -6    2.06    1.07
  -4   0  -6   -0.17    1.35
  -4   0  -6    1.15    1.87
  -4   0  -6    1.12    1.81
  -4   0  -6   -1.77    1.75
  -4   0  -6    2.06    1.07
   4   0   6    0.93    1.46
   4   0   6    0.43    1.44
   4   0   6    1.43    1.37
   4   0   6   -0.47    1.66
   4   0   6    1.99    1.86
   4   0   6    1.99    1.86
   4   0   6    0.43    1.44
   4   0   6    1.43    1.37
  -5   0  -6   43.10    3.68
  -5   0  -6   43.84    3.83
  -5   0  -6   41.60    3.24
  -5   0  -6   52.05    3.57
  -5   0  -6   41.60    3.24
  -5   0  -6   49.81    3.89
  -5   0  -6   49.81    3.89
   5   0   6   49.63    3.20
   5   0   6   51.97    4.32
   5   0   6   53.69    4.40
   5   0   6   40.19    3.68
   5   0   6   40.19    3.68
   5   0   6   47.22    3.37
   5   0   6   49.63    3.20
   5   0   6   51.97    4.32
  -6   0  -6   48.51    4.69
  -6   0  -6   54.42    4.94
  -6   0  -6   46.83    4.06
  -6   0  -6   54.46    4.94
  -6   0  -6   48.51    4.69
  -6   0  -6   46.83    4.06
  -6   0  -6   69.26    4.48
  -6   0  -6   55.98    4.83
  -6   0  -6   55.68    5.03
   6   0   6   52.24    4.67
   6   0   6   52.24    4.67
   6   0   6   57.97    5.08
   6   0   6   53.52    3.39
   6   0   6   64.98    4.30
   6   0   6   53.52    3.39
   6   0   6   57.97    5.08
   6   0   6   53.20    4.92
   5  -1  -6    6.37    2.19
   5  -1  -6   10.00    2.02
   5  -1  -6    4.22    2.86
   5  -1  -6   10.00    2.02
   5  -1  -6    9.02    2.86
   5  -1  -6    9.00    2.74
   5  -1  -6    6.37    2.19
  -5   1   6   10.64    3.46
  -5   1   6    7.39    3.01
  -5   1   6    4.87    2.65
  -5   1   6   10.64    3.46
  -5   1   6    5.70    1.92
  -5   1   6    5.70    1.92
  -5   1   6    4.87    2.65
   4  -1  -6   81.85    3.34
   4  -1  -6   74.69    4.01
   4  -1  -6   80.68    3.71
   4  -1  -6   84.95    4.32
   4  -1  -6   85.63    3.88
   4  -1  -6   80.68    3.71
   4  -1  -6   85.33    4.19
   4  -1  -6   81.85    3.34
   4  -1  -6   74.69    4.01
  -4   1   6   86.33    4.64
  -4   1   6   86.33    4.64
  -4   1   6   79.22    4.27
  -4   1   6   77.81    3.80
  -4   1   6   79.22    4.27
  -4   1   6   81.70    4.24
   3  -1  -6  102.71    3.55
   3  -1  -6   92.50    2.96
   3  -1  -6   94.97    3.61
   3  -1  -6  100.07    3.62
   3  -1  -6   92.51    2.96
   3  -1  -6   96.76    4.39
   3  -1  -6  101.68    2.98
   3  -1  -6   94.97    3.61
   3  -1  -6   96.76    4.39
   3  -1  -6  102.71    3.55
   3  -1  -6   98.81    4.00
   3  -1  -6   98.96    4.13
  -3   1   6   96.40    3.62
  -3   1   6   93.46    3.45
  -3   1   6   92.70    4.05
  -3   1   6   93.46    3.45
  -3   1   6   98.70    4.10
  -3   1   6   92.70    4.05
  -3   1   6   96.40    3.62
  -3   1   6   94.24    3.58
   2  -1  -6   61.42    2.29
   2  -1  -6   61.42    2.29
   2  -1  -6   60.24    2.54
   2  -1  -6   60.24    2.54
   2  -1  -6   59.83    2.53
   2  -1  -6   59.60    2.79
   2  -1  -6   59.50    2.88
  -2   1   6   59.13    2.91
  -2   1   6   59.13    2.91
  -2   1   6   56.82    2.52
  -2   1   6   56.80    2.24
  -2   1   6   56.80    2.24
  -2   1   6   56.23    2.72
  -2   1   6   57.76    2.85
  -2   1   6   56.23    2.72
   1  -1  -6   36.54    1.74
   1  -1  -6   37.17    1.81
   1  -1  -6   36.54    1.74
   1  -1  -6   32.11    1.97
  -1   1   6   31.51    1.65
  -1   1   6   35.14    1.72
  -1   1   6   35.14    1.72
  -1   1   6   31.51    1.65
  -1   1   6   35.01    1.78
  -1   1   6   36.79    2.49
  -1   1   6   36.79    2.49
  -1   1   6   33.58    1.57
  -1   1   6   36.14    2.01
  -1   1   6   33.58    1.57
   0  -1  -6   17.77    1.38
   0  -1  -6   15.67    1.45
   0  -1  -6   17.77    1.38
   0  -1  -6   19.55    1.35
   0  -1  -6   17.90    1.30
   0  -1  -6   17.90    1.30
   0   1   6   17.23    1.24
   0   1   6   19.29    1.33
   0   1   6   16.19    1.35
   0   1   6   17.88    1.34
   0   1   6   16.97    1.36
   0   1   6   17.23    1.24
   0   1   6   17.88    1.34
   0   1   6   19.29    1.33
  -1  -1  -6  205.96    4.99
  -1  -1  -6  206.33    4.96
  -1  -1  -6  206.34    4.96
  -1  -1  -6  205.21    4.96
  -1  -1  -6  199.49    5.02
  -1  -1  -6  205.21    4.96
  -1  -1  -6  199.52    4.90
  -1  -1  -6  199.52    4.90
   1   1   6  191.91    4.87
   1   1   6  191.91    4.87
   1   1   6  195.97    5.02
   1   1   6  202.99    4.98
   1   1   6  205.51    5.08
   1   1   6  210.82    5.00
   1   1   6  210.82    5.00
   1   1   6  205.52    5.07
  -2  -1  -6   69.71    2.72
  -2  -1  -6   71.30    2.49
  -2  -1  -6   69.42    2.71
  -2  -1  -6   74.27    2.65
  -2  -1  -6   71.30    2.49
  -2  -1  -6   68.94    2.54
  -2  -1  -6   69.72    2.72
  -2  -1  -6   74.27    2.65
   2   1   6   76.22    2.70
   2   1   6   71.16    2.35
   2   1   6   71.16    2.35
   2   1   6   72.69    2.73
   2   1   6   72.16    2.75
   2   1   6   76.22    2.70
   2   1   6   72.69    2.73
   2   1   6   72.67    2.55
  -3  -1  -6    6.08    1.39
  -3  -1  -6    5.80    1.26
  -3  -1  -6    5.77    1.46
  -3  -1  -6    5.74    1.04
  -3  -1  -6    6.63    1.37
  -3  -1  -6    6.63    1.37
  -3  -1  -6    5.77    1.46
  -3  -1  -6    5.74    1.04
   3   1   6    4.84    1.48
   3   1   6    7.49    1.16
   3   1   6    4.84    1.48
   3   1   6    7.49    1.16
   3   1   6    7.58    1.25
   3   1   6    8.93    1.52
  -4  -1  -6   11.87    2.36
  -4  -1  -6   12.11    1.70
  -4  -1  -6   11.87    2.36
  -4  -1  -6   11.72    1.69
  -4  -1  -6   12.65    1.78
  -4  -1  -6   12.11    1.70
  -4  -1  -6   13.41    2.09
  -4  -1  -6   11.72    1.69
   4   1   6   12.53    2.27
   4   1   6   12.53    2.27
   4   1   6   13.83    2.06
   4   1   6   13.83    2.06
   4   1   6   15.57    1.79
   4   1   6   14.11    2.16
  -5  -1  -6  108.76    4.79
  -5  -1  -6  106.23    4.33
  -5  -1  -6  101.34    4.75
  -5  -1  -6  100.76    4.90
  -5  -1  -6  102.24    4.08
  -5  -1  -6  102.24    4.08
  -5  -1  -6  108.74    4.79
   5   1   6  103.38    4.73
   5   1   6  115.34    5.24
   5   1   6  105.88    5.01
   5   1   6  101.56    3.77
   5   1   6  101.91    4.20
   5   1   6  101.56    3.77
   5   1   6  103.38    4.73
   5   1   6  115.34    5.24
  -6  -1  -6   25.94    3.05
  -6  -1  -6   22.79    3.53
  -6  -1  -6   21.93    2.95
  -6  -1  -6   21.91    3.71
  -6  -1  -6   21.56    2.85
  -6  -1  -6   21.56    2.85
  -6  -1  -6   22.79    3.53
  -6  -1  -6   25.95    3.05
  -6  -1  -6   22.23    3.56
   6   1   6   21.80    4.11
   6   1   6   20.51    3.63
   6   1   6   28.75    3.61
   6   1   6   24.24    3.00
   6   1   6   17.51    2.27
   6   1   6   21.80    4.11
   6   1   6   17.51    2.27
   6   1   6   28.75    3.61
   5  -2  -6    3.68    3.17
   5  -2  -6    0.74    2.59
   5  -2  -6   -1.83    1.87
   5  -2  -6    3.68    3.17
   5  -2  -6   -5.12    1.89
   5  -2  -6   -5.12    1.89
   5  -2  -6    0.74    2.59
  -5   2   6    2.94    2.94
  -5   2   6    0.46    2.51
  -5   2   6    0.80    2.19
  -5   2   6    0.46    2.51
  -5   2   6    2.94    2.94
  -5   2   6    0.80    2.19
   4  -2  -6   40.53    3.18
   4  -2  -6   36.43    3.24
   4  -2  -6   36.43    3.24
   4  -2  -6   36.97    3.65
   4  -2  -6   40.53    3.18
   4  -2  -6   36.92    3.26
   4  -2  -6   37.13    3.40
   4  -2  -6   36.97    3.65
  -4   2   6   37.20    3.69
  -4   2   6   40.69    3.14
  -4   2   6   40.69    3.14
  -4   2   6   32.77    3.18
  -4   2   6   37.20    3.69
  -4   2   6   32.77    3.18
  -4   2   6   37.93    3.47
   3  -2  -6   31.04    1.84
   3  -2  -6   31.06    1.84
   3  -2  -6   29.86    2.78
   3  -2  -6   29.86    2.78
   3  -2  -6   30.51    2.01
   3  -2  -6   37.57    2.84
   3  -2  -6   29.69    2.67
   3  -2  -6   29.89    2.79
   3  -2  -6   32.27    2.51
   3  -2  -6   37.57    2.84
   3  -2  -6   30.51    2.01
   3  -2  -6   31.35    1.84
  -3   2   6   34.35    3.15
  -3   2   6   29.73    2.51
  -3   2   6   27.41    2.26
  -3   2   6   32.50    2.77
  -3   2   6   27.41    2.26
  -3   2   6   34.35    3.15
   2  -2  -6   15.19    1.52
   2  -2  -6   15.19    1.52
   2  -2  -6   15.51    1.38
   2  -2  -6   15.51    1.38
   2  -2  -6   15.28    1.85
   2  -2  -6   15.31    1.93
   2  -2  -6   15.53    1.83
   2  -2  -6   14.89    1.47
   2  -2  -6   15.53    1.83
   2  -2  -6   16.50    1.64
  -2   2   6   16.54    1.82
  -2   2   6   19.50    1.69
  -2   2   6   14.37    1.80
  -2   2   6   14.37    1.80
  -2   2   6   17.51    1.71
  -2   2   6   19.50    1.69
  -2   2   6   16.54    1.82
  -2   2   6   16.35    1.73
   1  -2  -6  127.34    3.71
   1  -2  -6  127.34    3.71
   1  -2  -6  126.43    3.92
   1  -2  -6  128.89    3.63
   1  -2  -6  129.12    3.51
   1  -2  -6  129.12    3.51
   1  -2  -6  125.05    3.80
  -1   2   6  132.82    3.61
  -1   2   6  126.74    3.88
  -1   2   6  127.47    3.81
  -1   2   6  129.32    4.43
  -1   2   6  129.32    4.43
  -1   2   6  132.82    3.61
  -1   2   6  127.47    3.81
  -1   2   6  136.35    3.73
   0  -2  -6  273.32    6.45
   0  -2  -6  282.83    6.45
   0  -2  -6  275.97    6.32
   0  -2  -6  282.83    6.45
   0  -2  -6  281.30    6.39
   0  -2  -6  275.97    6.32
   0   2   6  281.53    6.33
   0   2   6  271.97    6.42
   0   2   6  282.29    6.52
   0   2   6  269.57    6.34
   0   2   6  287.99    6.41
   0   2   6  281.53    6.33
   0   2   6  271.97    6.42
   0   2   6  287.99    6.41
  -1  -2  -6    1.78    0.74
  -1  -2  -6    2.75    0.91
  -1  -2  -6    1.57    0.76
  -1  -2  -6    1.57    0.76
  -1  -2  -6    1.74    0.70
  -1  -2  -6    2.27    0.77
  -1  -2  -6    2.75    0.91
  -1  -2  -6    1.74    0.70
   1   2   6    2.42    0.92
   1   2   6    2.78    0.76
   1   2   6    1.81    0.77
   1   2   6    2.45    0.73
   1   2   6    2.50    0.77
   1   2   6    2.45    0.73
   1   2   6    2.50    0.77
   1   2   6    2.42    0.92
  -2  -2  -6   59.14    2.21
  -2  -2  -6   57.20    2.08
  -2  -2  -6   57.20    2.08
  -2  -2  -6   55.94    2.43
  -2  -2  -6   59.57    2.27
  -2  -2  -6   59.14    2.21
  -2  -2  -6   55.94    2.43
  -2  -2  -6   59.39    2.17
   2   2   6   55.27    2.37
   2   2   6   55.51    2.05
   2   2   6   61.60    2.28
   2   2   6   62.11    2.35
   2   2   6   55.27    2.36
   2   2   6   56.16    2.14
   2   2   6   55.51    2.05
   2   2   6   61.60    2.28
  -3  -2  -6  123.83    3.53
  -3  -2  -6  118.25    3.78
  -3  -2  -6  123.83    3.53
  -3  -2  -6  119.06    3.85
  -3  -2  -6  121.66    3.58
  -3  -2  -6  125.18    3.77
  -3  -2  -6  125.18    3.77
  -3  -2  -6  118.30    3.78
   3   2   6  115.83    3.94
   3   2   6  116.23    3.56
   3   2   6  118.28    3.45
   3   2   6  122.43    3.90
   3   2   6  123.72    3.81
   3   2   6  118.28    3.45
   3   2   6  115.82    3.94
   3   2   6  123.72    3.81
  -4  -2  -6    7.49    1.43
  -4  -2  -6    5.88    1.74
  -4  -2  -6    8.91    1.69
  -4  -2  -6    8.91    1.69
  -4  -2  -6    4.58    1.59
  -4  -2  -6    5.88    1.74
  -4  -2  -6    7.49    1.43
  -4  -2  -6    7.25    1.42
   4   2   6    8.21    1.39
   4   2   6    5.71    1.59
   4   2   6    7.22    2.01
   4   2   6    4.25    1.63
   4   2   6    8.21    1.39
   4   2   6    5.82    1.39
   4   2   6    4.25    1.63
   4   2   6    7.22    2.01
  -5  -2  -6   13.77    2.03
  -5  -2  -6   15.53    2.40
  -5  -2  -6   10.13    2.26
  -5  -2  -6   10.35    2.35
  -5  -2  -6   11.77    2.31
  -5  -2  -6   15.53    2.40
  -5  -2  -6   11.77    2.31
  -5  -2  -6    9.86    1.77
  -5  -2  -6    9.86    1.77
   5   2   6   14.19    2.50
   5   2   6   13.13    2.28
   5   2   6    8.29    2.76
   5   2   6   10.95    1.80
   5   2   6   10.95    1.80
   5   2   6    8.29    2.76
   5   2   6   13.13    2.28
   5   2   6    9.40    1.83
  -6  -2  -6   37.57    3.69
  -6  -2  -6   32.31    3.61
  -6  -2  -6   29.80    2.83
  -6  -2  -6   38.30    3.44
  -6  -2  -6   37.79    3.72
  -6  -2  -6   37.96    3.88
  -6  -2  -6   37.57    3.69
  -6  -2  -6   32.28    3.61
  -6  -2  -6   29.80    2.83
   6   2   6   35.97    4.42
   6   2   6   34.05    2.93
   6   2   6   34.05    2.93
   6   2   6   39.99    3.59
   6   2   6   38.58    3.69
   6   2   6   35.97    4.42
   6   2   6   38.58    3.69
   6   2   6   34.22    3.75
   5  -3  -6   17.31    2.91
   5  -3  -6   25.25    3.85
   5  -3  -6   25.37    4.02
   5  -3  -6   34.14    3.33
   5  -3  -6   17.31    2.91
   5  -3  -6   30.57    3.65
   5  -3  -6   30.57    3.65
   5  -3  -6   30.59    4.30
   5  -3  -6   30.59    4.30
  -5   3   6   34.76    4.18
  -5   3   6   28.98    3.46
  -5   3   6   21.16    3.78
  -5   3   6   22.20    3.36
  -5   3   6   28.98    3.46
  -5   3   6   28.77    3.39
  -5   3   6   28.21    3.20
  -5   3   6   22.20    3.36
  -5   3   6   21.16    3.78
   4  -3  -6   43.17    3.93
   4  -3  -6   39.41    3.64
   4  -3  -6   39.03    3.45
   4  -3  -6   41.45    2.86
   4  -3  -6   39.72    3.52
   4  -3  -6   39.03    3.45
   4  -3  -6   39.41    3.64
   4  -3  -6   41.45    2.86
   4  -3  -6   43.36    3.79
  -4   3   6   42.06    3.72
  -4   3   6   44.91    2.91
  -4   3   6   35.83    3.28
  -4   3   6   42.06    3.72
  -4   3   6   44.30    3.82
  -4   3   6   44.91    2.91
  -4   3   6   44.30    3.82
   3  -3  -6   10.37    2.11
   3  -3  -6    7.11    1.71
   3  -3  -6    7.11    1.71
   3  -3  -6   10.14    2.26
   3  -3  -6   10.77    2.08
   3  -3  -6   10.77    2.08
   3  -3  -6   10.37    2.11
   3  -3  -6   10.14    2.35
  -3   3   6    7.61    1.78
  -3   3   6   10.98    2.41
  -3   3   6   10.98    2.41
  -3   3   6    9.99    2.15
  -3   3   6    7.61    1.78
   2  -3  -6   52.75    2.49
   2  -3  -6   57.56    2.64
   2  -3  -6   60.22    2.59
   2  -3  -6   56.31    3.03
   2  -3  -6   52.75    2.50
   2  -3  -6   53.36    2.59
   2  -3  -6   56.49    2.93
   2  -3  -6   60.22    2.59
   2  -3  -6   52.75    2.48
   2  -3  -6   53.36    2.59
  -2   3   6   54.31    2.86
  -2   3   6   53.44    2.58
  -2   3   6   54.31    2.86
  -2   3   6   58.14    3.28
  -2   3   6   58.14    3.28
  -2   3   6   57.58    2.98
   1  -3  -6   57.61    2.20
   1  -3  -6   53.31    2.50
   1  -3  -6   52.45    2.45
   1  -3  -6   53.42    2.54
   1  -3  -6   56.40    2.56
   1  -3  -6   57.61    2.20
   1  -3  -6   53.50    2.59
   1  -3  -6   53.25    2.23
   1  -3  -6   53.42    2.54
   1  -3  -6   52.45    2.45
  -1   3   6   56.32    2.33
  -1   3   6   52.02    2.39
  -1   3   6   56.15    2.57
  -1   3   6   56.11    2.95
  -1   3   6   52.02    2.39
  -1   3   6   53.48    2.18
  -1   3   6   56.11    2.95
  -1   3   6   53.48    2.18
   0  -3  -6   98.88    2.88
   0  -3  -6   99.80    3.59
   0  -3  -6   99.80    3.59
   0  -3  -6  103.98    2.87
   0  -3  -6  103.98    2.87
   0  -3  -6   98.71    3.53
   0   3   6  101.85    2.86
   0   3   6  103.66    2.95
   0   3   6   99.76    3.04
   0   3   6   96.28    2.96
   0   3   6  103.51    3.15
   0   3   6   96.26    2.95
   0   3   6   99.76    3.04
   0   3   6  101.85    2.86
  -1  -3  -6   27.75    1.46
  -1  -3  -6   28.38    1.44
  -1  -3  -6   28.38    1.44
  -1  -3  -6   27.74    1.37
  -1  -3  -6   27.74    1.37
   1   3   6   31.52    1.43
   1   3   6   27.88    1.47
   1   3   6   25.06    1.40
   1   3   6   28.29    1.57
   1   3   6   31.52    1.45
   1   3   6   28.29    1.57
   1   3   6   31.52    1.43
   1   3   6   25.06    1.40
  -2  -3  -6   89.21    2.70
  -2  -3  -6   88.32    2.90
  -2  -3  -6   83.08    2.58
  -2  -3  -6   88.32    2.91
  -2  -3  -6   86.04    2.63
  -2  -3  -6   86.04    2.63
  -2  -3  -6   83.08    2.58
   2   3   6   86.83    2.66
   2   3   6   86.83    2.66
   2   3   6   90.00    2.57
   2   3   6   83.65    2.69
   2   3   6   88.86    3.16
   2   3   6   86.48    2.60
   2   3   6   90.00    2.57
   2   3   6   88.86    3.16
  -3  -3  -6   89.77    2.76
  -3  -3  -6   95.28    3.07
  -3  -3  -6   93.49    3.19
  -3  -3  -6   92.76    3.20
  -3  -3  -6   89.77    2.76
  -3  -3  -6   95.28    3.07
  -3  -3  -6   92.72    3.20
   3   3   6   90.18    3.12
   3   3   6   91.18    3.37
   3   3   6   90.11    2.74
   3   3   6   91.18    3.37
   3   3   6   90.33    2.82
   3   3   6   92.22    3.04
   3   3   6   90.11    2.74
   3   3   6   92.22    3.04
  -4  -3  -6   30.95    2.60
  -4  -3  -6   30.95    2.60
  -4  -3  -6   32.07    2.11
  -4  -3  -6   30.54    2.35
  -4  -3  -6   31.26    2.26
  -4  -3  -6   32.07    2.11
  -4  -3  -6   28.09    2.96
  -4  -3  -6   31.26    2.26
   4   3   6   29.56    1.87
   4   3   6   33.38    2.58
   4   3   6   31.83    2.51
   4   3   6   27.45    2.69
   4   3   6   36.26    2.04
   4   3   6   33.38    2.58
   4   3   6   27.45    2.69
   4   3   6   29.56    1.87
  -5  -3  -6   56.48    3.02
  -5  -3  -6   54.34    3.53
  -5  -3  -6   51.95    3.29
  -5  -3  -6   51.95    3.29
  -5  -3  -6   54.34    3.53
  -5  -3  -6   56.48    3.02
  -5  -3  -6   54.54    3.08
   5   3   6   56.42    2.93
   5   3   6   49.61    3.42
   5   3   6   49.61    3.42
   5   3   6   56.58    3.34
   5   3   6   56.58    3.34
   5   3   6   55.73    2.97
   5   3   6   50.55    3.42
   5   3   6   56.42    2.93
  -6  -3  -6    4.02    2.58
  -6  -3  -6    3.86    2.54
  -6  -3  -6    3.88    2.66
  -6  -3  -6    4.02    2.58
  -6  -3  -6    1.89    2.48
  -6  -3  -6    1.89    2.48
  -6  -3  -6    0.65    1.84
  -6  -3  -6    4.15    2.17
  -6  -3  -6    0.65    1.84
   6   3   6    1.99    1.70
   6   3   6    2.38    2.29
   6   3   6    3.15    2.55
   6   3   6    2.38    2.29
   6   3   6    1.74    1.80
   6   3   6    1.99    1.70
   6   3   6   -0.86    2.53
   6   3   6   -0.86    2.53
   5  -4  -6    8.60    3.46
   5  -4  -6    4.22    3.42
   5  -4  -6    8.22    3.80
   5  -4  -6    4.66    3.57
   5  -4  -6    4.14    2.61
   5  -4  -6    8.60    3.46
   5  -4  -6    8.22    3.80
   5  -4  -6    7.55    3.37
   5  -4  -6    4.14    2.61
  -5   4   6    1.83    3.37
  -5   4   6    1.83    3.37
  -5   4   6    3.17    2.35
  -5   4   6    4.40    3.67
  -5   4   6    8.52    3.77
  -5   4   6    3.22    2.49
  -5   4   6    8.52    3.77
  -5   4   6    3.70    3.13
  -5   4   6    3.70    3.13
   4  -4  -6   25.18    2.87
   4  -4  -6   23.92    3.19
   4  -4  -6   31.62    3.17
   4  -4  -6   32.06    3.36
   4  -4  -6   32.25    3.55
   4  -4  -6   25.18    2.87
   4  -4  -6   31.62    3.17
   4  -4  -6   32.25    3.55
   4  -4  -6   32.35    3.52
  -4   4   6   31.19    3.62
  -4   4   6   27.63    3.44
  -4   4   6   31.37    3.24
  -4   4   6   28.20    3.35
  -4   4   6   21.66    2.50
  -4   4   6   27.63    3.44
  -4   4   6   28.20    3.35
  -4   4   6   30.78    3.06
  -4   4   6   21.66    2.50
   3  -4  -6  138.87    5.08
   3  -4  -6  134.18    5.34
   3  -4  -6  130.32    4.73
   3  -4  -6  138.87    5.08
   3  -4  -6  134.95    5.21
   3  -4  -6  130.32    4.73
   3  -4  -6  142.14    4.86
  -3   4   6  129.26    4.73
  -3   4   6  129.26    4.73
  -3   4   6  110.99    6.65
  -3   4   6  129.44    5.23
  -3   4   6  129.44    5.23
  -3   4   6  138.08    4.67
  -3   4   6  138.08    4.67
   2  -4  -6   10.89    1.64
   2  -4  -6   10.21    1.53
   2  -4  -6   10.21    1.53
   2  -4  -6    6.84    1.77
   2  -4  -6   10.08    1.86
   2  -4  -6    7.36    1.81
   2  -4  -6    9.98    1.59
   2  -4  -6   10.06    1.79
   2  -4  -6    7.36    1.81
   2  -4  -6   10.89    1.64
  -2   4   6   10.83    1.98
  -2   4   6   10.39    1.88
  -2   4   6   12.18    1.92
  -2   4   6   10.83    1.98
  -2   4   6   10.39    1.88
   1  -4  -6   23.15    2.05
   1  -4  -6   27.03    1.71
   1  -4  -6   31.83    2.21
   1  -4  -6   30.38    2.14
   1  -4  -6   23.15    2.13
   1  -4  -6   27.03    1.71
   1  -4  -6   30.38    2.14
   1  -4  -6   24.76    2.16
   1  -4  -6   25.10    1.77
   1  -4  -6   24.76    2.16
  -1   4   6   21.82    1.97
  -1   4   6   25.62    1.98
  -1   4   6   25.94    2.37
  -1   4   6   25.62    1.98
  -1   4   6   23.43    1.71
  -1   4   6   23.43    1.71
  -1   4   6   25.94    2.37
  -1   4   6   26.62    1.93
   0  -4  -6  123.62    3.59
   0  -4  -6  118.44    4.19
   0  -4  -6  115.70    4.14
   0  -4  -6  125.91    3.36
   0  -4  -6  126.03    3.41
   0  -4  -6  118.44    4.19
   0  -4  -6  123.62    3.59
   0  -4  -6  125.91    3.36
   0   4   6  129.98    3.77
   0   4   6  127.51    3.44
   0   4   6  129.25    3.37
   0   4   6  130.41    3.64
   0   4   6  119.73    3.61
   0   4   6  130.41    3.64
   0   4   6  129.98    3.77
   0   4   6  129.25    3.37
  -1  -4  -6   29.90    1.35
  -1  -4  -6   29.95    2.40
  -1  -4  -6   29.90    1.35
  -1  -4  -6   26.25    1.42
  -1  -4  -6   26.25    1.42
  -1  -4  -6   29.94    2.40
  -1  -4  -6   27.99    1.51
  -1  -4  -6   29.09    1.41
  -1  -4  -6   30.98    2.40
   1   4   6   29.72    1.56
   1   4   6   26.56    1.39
   1   4   6   26.56    1.39
   1   4   6   29.71    1.91
   1   4   6   26.91    1.55
   1   4   6   29.74    1.91
   1   4   6   29.72    1.56
  -2  -4  -6   26.29    1.29
  -2  -4  -6   26.29    1.29
  -2  -4  -6   21.05    2.20
  -2  -4  -6   24.40    1.60
  -2  -4  -6   25.76    2.30
  -2  -4  -6   26.06    1.37
  -2  -4  -6   29.00    1.45
  -2  -4  -6   24.40    1.61
  -2  -4  -6   29.00    1.45
  -2  -4  -6   26.06    1.43
  -2  -4  -6   21.04    2.20
   2   4   6   26.23    1.37
   2   4   6   26.23    1.37
   2   4   6   27.55    1.37
   2   4   6   25.73    1.35
   2   4   6   24.19    1.96
   2   4   6   24.19    1.97
   2   4   6   27.55    1.37
   2   4   6   25.77    1.48
  -3  -4  -6   50.06    1.95
  -3  -4  -6   52.33    2.38
  -3  -4  -6   52.33    2.38
  -3  -4  -6   51.37    2.21
  -3  -4  -6   52.56    1.94
  -3  -4  -6   52.56    1.94
  -3  -4  -6   53.38    2.19
  -3  -4  -6   49.29    3.02
  -3  -4  -6   51.37    2.21
  -3  -4  -6   54.59    3.01
  -3  -4  -6   49.29    3.01
   3   4   6   53.29    2.22
   3   4   6   51.48    1.93
   3   4   6   49.45    1.93
   3   4   6   53.29    2.22
   3   4   6   49.53    2.83
   3   4   6   51.48    1.93
   3   4   6   49.52    2.84
   3   4   6   52.66    2.33
  -4  -4  -6   27.49    2.25
  -4  -4  -6   26.79    2.27
  -4  -4  -6   23.91    1.60
  -4  -4  -6   26.78    2.27
  -4  -4  -6   23.91    1.60
  -4  -4  -6   26.93    1.78
  -4  -4  -6   32.02    2.84
  -4  -4  -6   32.03    2.84
  -4  -4  -6   26.55    2.35
   4   4   6   28.21    2.24
   4   4   6   24.22    2.09
   4   4   6   32.66    2.73
   4   4   6   27.85    2.80
   4   4   6   26.94    1.79
   4   4   6   28.21    2.24
   4   4   6   32.66    2.73
   4   4   6   25.22    1.71
   4   4   6   27.85    2.80
   4   4   6   25.22    1.71
  -5  -4  -6   13.72    2.27
  -5  -4  -6   16.51    2.57
  -5  -4  -6   13.72    2.26
  -5  -4  -6   15.39    2.12
  -5  -4  -6   16.51    2.57
  -5  -4  -6   14.38    1.66
  -5  -4  -6   14.38    1.66
  -5  -4  -6   14.54    1.71
  -5  -4  -6   17.12    2.49
  -5  -4  -6   15.39    2.12
   5   4   6   11.85    2.16
   5   4   6   17.69    2.29
   5   4   6   14.68    1.73
   5   4   6   14.25    1.71
   5   4   6   17.69    2.29
   5   4   6   14.68    1.73
  -6  -4  -6  116.53    4.28
  -6  -4  -6  118.52    5.44
  -6  -4  -6  118.52    5.44
  -6  -4  -6  116.53    4.28
  -6  -4  -6  118.04    5.36
  -6  -4  -6  116.49    5.19
  -6  -4  -6  122.47    5.34
  -6  -4  -6  122.47    5.34
  -6  -4  -6  116.49    5.19
   6   4   6  127.79    4.91
   6   4   6  118.57    4.33
   6   4   6  112.66    5.05
   6   4   6  122.58    4.22
   6   4   6  122.58    4.22
   6   4   6  127.79    4.91
   4  -5  -6   26.61    3.24
   4  -5  -6   21.71    3.86
   4  -5  -6   21.42    2.74
   4  -5  -6   24.53    3.62
   4  -5  -6   21.66    4.02
   4  -5  -6   24.53    3.62
   4  -5  -6   21.42    2.74
  -4   5   6   28.59    3.57
  -4   5   6   22.53    3.13
  -4   5   6   21.94    3.14
  -4   5   6   20.91    3.03
  -4   5   6   21.23    3.20
  -4   5   6   24.69    3.58
  -4   5   6   22.53    3.13
  -4   5   6   21.94    3.14
  -4   5   6   28.59    3.57
   3  -5  -6   56.06    3.58
   3  -5  -6   65.73    4.28
   3  -5  -6   57.16    3.92
   3  -5  -6   57.16    3.92
   3  -5  -6   65.68    4.12
  -3   5   6   55.18    4.11
  -3   5   6   57.33    3.86
  -3   5   6   57.23    3.52
  -3   5   6   55.18    4.11
  -3   5   6   59.05    3.50
  -3   5   6   58.00    3.95
  -3   5   6   57.33    3.86
  -3   5   6   57.89    3.69
  -3   5   6   59.05    3.50
   2  -5  -6   18.31    1.98
   2  -5  -6   18.66    2.29
   2  -5  -6   18.66    2.29
   2  -5  -6   18.31    1.98
   2  -5  -6   15.92    1.96
   2  -5  -6   13.50    2.31
   2  -5  -6   13.48    2.22
  -2   5   6   13.78    2.13
  -2   5   6   16.45    1.90
  -2   5   6   13.78    2.13
  -2   5   6   15.43    2.24
  -2   5   6   15.43    2.24
  -2   5   6   16.45    1.90
   1  -5  -6    1.63    1.40
   1  -5  -6    4.87    1.57
   1  -5  -6    1.80    1.12
   1  -5  -6    1.55    1.55
   1  -5  -6    2.63    1.45
   1  -5  -6    1.55    1.62
   1  -5  -6    2.63    1.45
   1  -5  -6    4.87    1.57
  -1   5   6    4.64    1.58
  -1   5   6    2.82    1.44
  -1   5   6    0.83    1.44
  -1   5   6    4.63    1.32
  -1   5   6    4.64    1.58
  -1   5   6    2.82    1.44
   0  -5  -6  137.56    4.04
   0  -5  -6  147.63    4.76
   0  -5  -6  151.39    3.87
   0  -5  -6  146.91    3.79
   0  -5  -6  147.60    4.76
   0  -5  -6  146.91    3.79
   0  -5  -6  137.56    4.04
   0  -5  -6  138.30    4.67
   0   5   6  149.87    3.95
   0   5   6  139.54    4.03
   0   5   6  152.07    3.84
   0   5   6  139.54    4.03
   0   5   6  152.07    3.84
   0   5   6  137.74    4.10
  -1  -5  -6   80.00    2.54
  -1  -5  -6   75.02    2.52
  -1  -5  -6   67.14    3.35
  -1  -5  -6   73.82    3.44
  -1  -5  -6   79.98    2.27
  -1  -5  -6   75.14    2.46
  -1  -5  -6   79.98    2.27
  -1  -5  -6   73.81    3.44
  -1  -5  -6   80.00    2.54
  -1  -5  -6   77.67    2.34
   1   5   6   78.13    2.53
   1   5   6   78.13    2.53
   1   5   6   76.77    2.27
   1   5   6   75.95    2.37
   1   5   6   75.44    2.97
   1   5   6   76.77    2.27
   1   5   6   75.86    2.53
   1   5   6   75.46    2.96
  -2  -5  -6  108.97    2.96
  -2  -5  -6  117.04    2.94
  -2  -5  -6  115.77    4.12
  -2  -5  -6  112.34    2.94
  -2  -5  -6  105.95    3.99
  -2  -5  -6  112.34    2.94
  -2  -5  -6  111.98    2.96
  -2  -5  -6  115.76    4.11
  -2  -5  -6  117.04    2.94
   2   5   6  111.88    2.99
   2   5   6  111.45    2.93
   2   5   6  108.91    3.59
   2   5   6  109.99    2.97
   2   5   6  111.45    2.93
   2   5   6  108.91    3.59
   2   5   6  109.19    2.96
   2   5   6  109.19    2.96
  -3  -5  -6   10.29    1.00
  -3  -5  -6    9.87    1.67
  -3  -5  -6    8.62    0.95
  -3  -5  -6   10.46    1.17
  -3  -5  -6   11.51    2.15
  -3  -5  -6    9.21    1.14
  -3  -5  -6   10.91    2.04
  -3  -5  -6    9.21    1.14
  -3  -5  -6    9.87    1.67
  -3  -5  -6   10.29    1.00
  -3  -5  -6   11.52    2.15
   3   5   6    8.96    0.96
   3   5   6   10.64    2.16
   3   5   6    9.82    1.07
   3   5   6    8.96    0.96
   3   5   6   10.63    2.16
   3   5   6    9.82    1.07
   3   5   6   10.75    1.04
   3   5   6   10.75    1.23
  -4  -5  -6   22.31    1.92
  -4  -5  -6   25.72    1.57
  -4  -5  -6   24.39    2.79
  -4  -5  -6   24.39    2.78
  -4  -5  -6   24.80    1.53
  -4  -5  -6   27.05    2.03
  -4  -5  -6   22.46    1.98
  -4  -5  -6   25.72    1.57
  -4  -5  -6   27.05    2.03
  -4  -5  -6   25.84    2.78
   4   5   6   22.89    2.72
   4   5   6   24.35    1.98
   4   5   6   23.44    1.46
   4   5   6   23.44    1.46
   4   5   6   24.35    1.98
   4   5   6   24.59    2.60
   4   5   6   22.05    1.85
   4   5   6   24.59    2.60
   4   5   6   22.89    2.72
   4   5   6   22.30    1.88
  -5  -5  -6   30.17    2.06
  -5  -5  -6   33.73    2.70
  -5  -5  -6   28.89    2.38
  -5  -5  -6   26.52    2.40
  -5  -5  -6   26.52    2.40
  -5  -5  -6   28.91    2.06
  -5  -5  -6   28.89    2.38
  -5  -5  -6   33.96    2.60
  -5  -5  -6   28.91    2.06
   5   5   6   30.87    3.33
   5   5   6   30.29    2.37
   5   5   6   30.29    2.37
   5   5   6   26.73    2.03
   5   5   6   33.07    3.17
   5   5   6   33.07    3.17
   5   5   6   25.23    2.27
   5   5   6   30.87    3.34
  -6  -5  -6   43.16    3.87
  -6  -5  -6   42.10    3.98
  -6  -5  -6   42.09    3.99
  -6  -5  -6   39.63    3.60
  -6  -5  -6   39.58    3.46
  -6  -5  -6   43.85    2.84
  -6  -5  -6   41.77    2.91
  -6  -5  -6   41.77    2.91
  -6  -5  -6   43.03    3.88
  -6  -5  -6   43.16    3.87
   6   5   6   42.02    3.61
   6   5   6   43.16    2.89
   6   5   6   47.70    2.84
   6   5   6   42.02    3.61
   6   5   6   47.70    2.84
   6   5   6   50.54    3.81
   4  -6  -6   18.20    3.61
   4  -6  -6   21.12    3.62
   4  -6  -6    9.67    3.23
   4  -6  -6   18.10    3.91
   4  -6  -6   21.12    3.62
   4  -6  -6   18.02    3.71
   4  -6  -6    9.67    3.23
  -4   6   6   15.58    3.47
  -4   6   6   22.72    3.83
  -4   6   6   22.72    3.83
  -4   6   6   18.44    3.25
  -4   6   6   18.69    3.85
  -4   6   6   18.71    3.43
  -4   6   6   12.80    3.23
  -4   6   6   15.58    3.47
  -4   6   6   12.80    3.23
   3  -6  -6   30.89    3.83
   3  -6  -6   35.89    3.52
   3  -6  -6   35.89    3.52
   3  -6  -6   30.79    3.68
   3  -6  -6   37.08    3.36
  -3   6   6   35.41    3.47
  -3   6   6   35.41    3.47
  -3   6   6   33.69    3.67
  -3   6   6   38.68    3.58
  -3   6   6   34.95    3.31
  -3   6   6   38.68    3.58
  -3   6   6   34.42    3.13
  -3   6   6   39.98    3.83
  -3   6   6   39.98    3.83
   2  -6  -6    1.46    1.64
   2  -6  -6    3.76    2.26
   2  -6  -6    0.01    1.66
   2  -6  -6    3.84    2.20
   2  -6  -6    1.46    1.64
   2  -6  -6    3.76    2.26
   2  -6  -6    3.86    2.30
  -2   6   6    3.20    1.73
  -2   6   6    1.35    1.86
  -2   6   6    2.84    1.97
  -2   6   6    1.35    1.86
  -2   6   6   -0.17    1.53
  -2   6   6    2.84    1.97
  -2   6   6    3.13    1.63
  -2   6   6    3.38    2.04
  -2   6   6   -0.17    1.53
   1  -6  -6   30.01    2.50
   1  -6  -6   24.15    2.03
   1  -6  -6   24.15    2.03
   1  -6  -6   23.25    1.99
   1  -6  -6   30.01    2.50
  -1   6   6   25.71    2.43
  -1   6   6   25.71    2.43
  -1   6   6   24.69    2.45
  -1   6   6   24.69    2.45
  -1   6   6   29.21    2.59
   0  -6  -6   58.09    2.20
   0  -6  -6   57.82    2.25
   0  -6  -6   53.88    2.87
   0  -6  -6   60.78    2.70
   0  -6  -6   57.14    2.64
   0  -6  -6   56.96    2.72
   0  -6  -6   53.98    2.84
   0  -6  -6   58.09    2.20
   0  -6  -6   53.88    2.87
   0  -6  -6   60.78    2.70
   0   6   6   59.32    2.41
   0   6   6   57.30    2.23
   0   6   6   57.96    2.68
   0   6   6   53.97    2.74
   0   6   6   57.96    2.68
   0   6   6   57.30    2.23
  -1  -6  -6   67.61    2.09
  -1  -6  -6   65.71    2.47
  -1  -6  -6   61.13    3.52
  -1  -6  -6   61.12    3.52
  -1  -6  -6   67.61    2.09
  -1  -6  -6   64.18    2.40
  -1  -6  -6   64.18    2.40
  -1  -6  -6   66.80    2.14
  -1  -6  -6   65.67    2.40
  -1  -6  -6   60.22    3.45
   1   6   6   65.60    2.06
   1   6   6   62.05    2.41
   1   6   6   66.21    3.05
   1   6   6   65.60    2.06
   1   6   6   66.21    3.05
   1   6   6   65.12    2.14
   1   6   6   62.05    2.41
   1   6   6   62.75    2.47
  -2  -6  -6    0.39    1.81
  -2  -6  -6   -0.49    0.63
  -2  -6  -6    0.12    0.63
  -2  -6  -6    0.53    0.70
  -2  -6  -6    2.34    1.84
  -2  -6  -6    0.54    0.74
  -2  -6  -6    0.39    1.80
  -2  -6  -6   -0.49    0.63
   2   6   6    1.30    1.42
   2   6   6    0.48    0.67
   2   6   6    0.13    0.77
   2   6   6    1.30    1.42
   2   6   6    0.13    0.77
   2   6   6   -0.49    0.71
  -3  -6  -6  206.88    4.68
  -3  -6  -6  201.01    6.31
  -3  -6  -6  196.16    4.42
  -3  -6  -6  210.20    6.41
  -3  -6  -6  204.89    4.62
  -3  -6  -6  187.81    4.43
  -3  -6  -6  210.20    6.41
  -3  -6  -6  187.81    4.43
  -3  -6  -6  204.89    4.62
   3   6   6  196.75    4.68
   3   6   6  187.95    5.56
   3   6   6  196.32    4.42
   3   6   6  196.32    4.42
   3   6   6  189.26    4.49
   3   6   6  187.94    5.57
  -4  -6  -6    3.38    1.24
  -4  -6  -6    4.00    2.18
  -4  -6  -6    4.01    2.18
  -4  -6  -6    2.42    1.11
  -4  -6  -6    3.38    1.24
  -4  -6  -6    3.59    1.84
  -4  -6  -6    4.59    0.85
  -4  -6  -6    4.04    2.06
  -4  -6  -6    2.38    1.05
  -4  -6  -6    3.60    1.84
   4   6   6    4.68    2.17
   4   6   6    4.68    2.17
   4   6   6    4.73    2.05
   4   6   6    3.55    0.81
   4   6   6    4.06    1.24
   4   6   6    4.73    2.05
   4   6   6    3.55    0.81
  -5  -6  -6   12.72    2.58
  -5  -6  -6   12.72    2.59
  -5  -6  -6   11.54    2.24
  -5  -6  -6    9.44    1.73
  -5  -6  -6    8.82    1.29
  -5  -6  -6    8.72    1.20
  -5  -6  -6    8.33    1.54
  -5  -6  -6    8.42    1.62
  -5  -6  -6    9.44    1.73
  -5  -6  -6   11.54    2.24
  -5  -6  -6   11.54    2.52
  -5  -6  -6    8.82    1.29
   5   6   6    7.23    1.73
   5   6   6    5.25    2.83
   5   6   6    9.49    1.21
   5   6   6    9.49    1.21
   5   6   6    7.56    1.23
   5   6   6   10.52    2.65
   5   6   6    7.44    1.56
   5   6   6    7.44    1.56
   5   6   6   10.53    2.65
   5   6   6    5.25    2.83
  -6  -6  -6   13.54    2.70
  -6  -6  -6   13.54    2.70
  -6  -6  -6   13.46    2.35
  -6  -6  -6   12.91    1.73
  -6  -6  -6   12.91    1.73
  -6  -6  -6   17.08    3.04
  -6  -6  -6   17.30    3.00
  -6  -6  -6   15.66    1.80
  -6  -6  -6   16.24    3.02
  -6  -6  -6   17.30    3.00
  -6  -6  -6   17.08    3.03
  -6  -6  -6   13.41    2.25
   6   6   6    8.89    2.29
   6   6   6   16.08    3.79
   6   6   6   14.82    1.89
   6   6   6   16.08    3.79
   6   6   6   14.34    1.67
   6   6   6   14.80    2.31
   6   6   6   14.34    1.67
   6   6   6   14.80    2.31
   3  -7  -6   27.51    3.23
   3  -7  -6   28.31    3.62
   3  -7  -6   23.00    3.39
   3  -7  -6   23.00    3.39
   3  -7  -6   25.21    3.25
   3  -7  -6   28.49    3.78
   3  -7  -6   27.51    3.23
  -3   7   6   21.90    3.79
  -3   7   6   17.42    3.27
  -3   7   6   24.91    3.07
  -3   7   6   20.90    3.09
  -3   7   6   17.42    3.27
  -3   7   6   20.90    3.09
  -3   7   6   25.27    3.23
  -3   7   6   22.83    3.53
  -3   7   6   22.83    3.53
   2  -7  -6    6.69    2.54
   2  -7  -6    7.87    2.61
   2  -7  -6    8.35    2.73
   2  -7  -6    6.69    2.54
  -2   7   6    6.40    2.39
  -2   7   6    4.46    2.15
  -2   7   6    4.46    2.15
  -2   7   6    9.21    2.51
  -2   7   6    9.29    2.16
  -2   7   6    9.11    2.03
  -2   7   6   10.56    2.24
  -2   7   6   10.56    2.24
  -2   7   6    9.21    2.51
   1  -7  -6   95.77    3.49
   1  -7  -6   86.57    3.81
   1  -7  -6   95.77    3.49
   1  -7  -6   86.57    3.81
  -1   7   6   82.18    4.01
  -1   7   6   82.18    4.01
  -1   7   6   94.63    3.86
  -1   7   6   92.78    3.95
  -1   7   6  100.49    4.52
  -1   7   6   91.24    4.50
  -1   7   6   91.24    4.50
  -1   7   6   94.63    3.86
   0  -7  -6   13.34    1.86
   0  -7  -6   15.59    1.53
   0  -7  -6   15.59    1.53
   0  -7  -6   13.34    1.86
   0  -7  -6   13.92    1.80
   0  -7  -6   13.86    1.72
   0  -7  -6   19.83    1.62
   0   7   6   14.22    1.81
   0   7   6   12.52    1.41
   0   7   6   16.37    1.60
   0   7   6   12.52    1.41
   0   7   6   16.12    2.21
   0   7   6   20.71    2.83
   0   7   6   13.62    2.62
   0   7   6   14.22    1.81
   0   7   6   16.12    2.21
   0   7   6   18.57    2.02
   0   7   6   20.71    2.83
  -1  -7  -6    6.02    0.92
  -1  -7  -6    5.57    0.91
  -1  -7  -6    5.66    2.03
  -1  -7  -6    6.26    2.13
  -1  -7  -6    7.08    1.24
  -1  -7  -6    5.57    0.91
  -1  -7  -6    7.18    1.31
  -1  -7  -6    6.26    2.13
   1   7   6    7.66    0.97
   1   7   6    7.66    0.97
   1   7   6    7.68    1.34
   1   7   6    7.93    1.84
   1   7   6    6.47    1.19
   1   7   6    7.93    1.84
   1   7   6    7.25    1.01
   1   7   6    6.47    1.19
  -2  -7  -6    0.37    1.50
  -2  -7  -6    1.10    0.73
  -2  -7  -6    1.09    0.70
  -2  -7  -6    0.73    0.81
  -2  -7  -6    0.53    0.63
  -2  -7  -6    3.53    2.00
  -2  -7  -6    0.73    0.81
  -2  -7  -6    0.53    0.63
  -2  -7  -6    3.53    2.00
   2   7   6    1.04    1.59
   2   7   6    1.27    0.68
   2   7   6    0.03    0.61
   2   7   6    0.03    0.61
   2   7   6    1.97    0.83
   2   7   6    0.53    0.84
   2   7   6    1.05    1.59
   2   7   6    1.97    0.83
  -3  -7  -6   54.30    3.30
  -3  -7  -6   54.29    3.30
  -3  -7  -6   58.45    1.71
  -3  -7  -6   58.45    1.71
  -3  -7  -6   59.90    1.77
  -3  -7  -6   57.02    3.33
  -3  -7  -6   59.90    1.77
   3   7   6   56.75    1.86
   3   7   6   61.03    1.79
   3   7   6   64.72    3.05
   3   7   6   58.23    1.44
   3   7   6   64.22    3.40
   3   7   6   64.72    3.05
   3   7   6   58.23    1.44
   3   7   6   64.22    3.40
   3   7   6   56.84    1.42
   3   7   6   56.84    1.42
  -4  -7  -6   57.79    4.07
  -4  -7  -6   57.79    4.07
  -4  -7  -6   49.66    2.83
  -4  -7  -6   56.17    1.70
  -4  -7  -6   55.73    1.97
  -4  -7  -6   46.40    1.87
  -4  -7  -6   49.66    2.83
  -4  -7  -6   55.73    1.97
  -4  -7  -6   56.32    4.04
  -4  -7  -6   56.17    1.70
  -4  -7  -6   46.23    1.91
   4   7   6   61.29    3.85
   4   7   6   55.76    1.51
   4   7   6   56.30    1.62
   4   7   6   55.76    1.51
   4   7   6   61.26    3.85
   4   7   6   56.30    1.62
   4   7   6   66.72    4.05
   4   7   6   66.72    4.05
   4   7   6   58.10    2.16
  -5  -7  -6   26.77    3.27
  -5  -7  -6   25.47    1.80
  -5  -7  -6   23.12    2.64
  -5  -7  -6   23.11    3.21
  -5  -7  -6   25.38    1.86
  -5  -7  -6   23.11    2.64
  -5  -7  -6   23.11    3.21
  -5  -7  -6   23.43    1.54
  -5  -7  -6   23.43    1.54
  -5  -7  -6   19.03    1.35
   5   7   6   18.67    1.76
   5   7   6   20.90    2.72
   5   7   6   21.94    1.80
   5   7   6   21.94    1.80
   5   7   6   19.86    3.47
   5   7   6   20.89    2.72
   5   7   6   19.19    1.55
   5   7   6   19.04    1.36
   5   7   6   19.86    3.47
   5   7   6   19.04    1.36
  -6  -7  -6    1.91    1.93
  -6  -7  -6    2.30    1.79
  -6  -7  -6    2.29    1.71
  -6  -7  -6    2.82    2.76
  -6  -7  -6    1.91    1.93
  -6  -7  -6   -2.51    2.38
  -6  -7  -6    1.30    2.78
  -6  -7  -6    2.80    2.77
  -6  -7  -6   -2.51    2.38
  -6  -7  -6    1.69    1.21
   6   7   6    1.69    1.34
   6   7   6    1.44    1.22
   6   7   6   -1.99    2.59
   6   7   6    1.92    1.91
   6   7   6   -1.99    2.58
   6   7   6    1.44    1.22
   6   7   6   -1.19    3.67
   6   7   6   -0.68    1.92
   6   7   6   -1.19    3.67
   6   7   6   -0.68    1.92
   2  -8  -6   43.54    4.00
   2  -8  -6   36.86    3.82
   2  -8  -6   42.19    3.84
   2  -8  -6   36.86    3.82
   2  -8  -6   38.72    3.52
   2  -8  -6   42.51    3.74
   2  -8  -6   42.51    3.74
  -2   8   6   37.45    3.12
  -2   8   6   40.57    4.17
  -2   8   6   36.02    3.50
  -2   8   6   42.76    3.78
  -2   8   6   33.19    3.92
  -2   8   6   40.56    4.17
  -2   8   6   37.45    3.12
  -2   8   6   36.44    3.63
  -2   8   6   42.76    3.78
  -2   8   6   40.32    3.25
  -2   8   6   36.02    3.50
  -2   8   6   41.03    3.44
   1  -8  -6    6.62    2.24
   1  -8  -6    6.14    2.25
   1  -8  -6    6.62    2.24
   1  -8  -6    6.12    2.35
  -1   8   6    1.93    2.08
  -1   8   6    3.63    2.70
  -1   8   6    3.43    2.78
  -1   8   6    3.43    2.78
  -1   8   6    5.05    2.14
  -1   8   6    5.05    2.14
  -1   8   6    7.31    2.37
  -1   8   6    7.31    2.37
   0  -8  -6   89.38    3.68
   0  -8  -6   89.21    3.80
   0  -8  -6   98.20    3.27
   0  -8  -6   88.86    3.78
   0  -8  -6   89.21    3.80
   0   8   6   85.31    3.94
   0   8   6   91.61    3.85
   0   8   6   85.31    3.94
   0   8   6   88.68    3.25
   0   8   6   91.02    3.12
   0   8   6   84.60    4.83
   0   8   6   91.02    3.12
   0   8   6   83.61    4.86
   0   8   6   83.62    4.86
  -1  -8  -6    4.78    0.96
  -1  -8  -6    5.83    1.06
  -1  -8  -6    6.97    1.25
  -1  -8  -6    6.70    1.31
  -1  -8  -6    5.83    1.06
   1   8   6    6.64    1.35
   1   8   6    7.64    2.63
   1   8   6    7.65    2.64
   1   8   6    5.44    1.69
   1   8   6    5.43    1.69
   1   8   6    5.62    2.54
   1   8   6    6.64    1.35
   1   8   6    4.79    1.35
   1   8   6    6.60    1.09
  -2  -8  -6    0.60    0.73
  -2  -8  -6    1.57    0.63
  -2  -8  -6    1.57    0.63
  -2  -8  -6    0.60    0.73
   2   8   6    0.43    1.80
   2   8   6    1.78    0.40
   2   8   6    0.43    1.79
   2   8   6    1.19    0.42
   2   8   6    1.06    0.64
   2   8   6    1.78    0.40
   2   8   6    1.13    0.83
   2   8   6    1.19    0.42
  -3  -8  -6   37.37    3.58
  -3  -8  -6   37.38    3.58
  -3  -8  -6   29.47    3.30
   3   8   6   38.26    3.38
   3   8   6   38.26    3.39
   3   8   6   36.75    3.17
   3   8   6   36.75    3.17
  -4  -8  -6   17.18    2.98
  -4  -8  -6   12.21    2.96
  -4  -8  -6   12.22    2.96
   4   8   6   19.73    2.98
   4   8   6   19.73    2.98
   4   8   6   15.84    2.35
   4   8   6   15.84    2.35
  -5  -8  -6    4.28    2.85
  -5  -8  -6    4.29    2.85
  -5  -8  -6   -1.41    2.74
   5   8   6    1.31    3.27
   5   8   6    1.31    3.27
   5   8   6    3.50    3.00
   5   8   6    2.31    0.71
   5   8   6    3.51    3.00
   5   8   6    3.00    0.51
   1  -9  -6    4.36    2.72
   1  -9  -6    3.32    2.08
   1  -9  -6    2.38    2.47
   1  -9  -6    4.36    2.72
   1  -9  -6    2.88    2.25
   1  -9  -6    2.88    2.25
  -1   9   6   -1.47    2.09
  -1   9   6   -3.30    3.57
  -1   9   6   -1.34    2.25
  -1   9   6    5.50    2.62
  -1   9   6   -1.34    2.25
  -1   9   6   -1.47    2.09
  -1   9   6    1.17    3.68
  -1   9   6    1.17    3.69
   0  -9  -6   20.34    2.34
   0  -9  -6   20.56    1.90
   0  -9  -6   20.50    2.01
   0  -9  -6   18.54    2.34
   0  -9  -6   20.34    2.34
   0  -9  -6   20.50    2.01
   0   9   6   20.98    2.49
   0   9   6   21.09    2.03
   0   9   6   16.70    1.79
   0   9   6   19.71    2.25
   0   9   6   19.71    2.25
   0   9   6   16.70    1.79
   0   9   6   14.93    2.24
   0   9   6   20.98    2.49
  -1  -9  -6   27.96    2.17
  -1  -9  -6   30.28    1.84
  -1  -9  -6   27.77    1.97
  -1  -9  -6   29.64    1.66
  -1  -9  -6   27.96    2.17
  -1  -9  -6   30.28    1.84
   1   9   6   29.96    2.78
   1   9   6   29.41    2.33
   1   9   6   27.93    1.59
   1   9   6   30.22    2.05
   1   9   6   25.15    1.87
   1   9   6   27.93    1.59
   1   9   6   30.22    2.05
   1   9   6   29.95    2.78
  -2  -9  -6   33.63    0.82
  -2  -9  -6   33.63    0.82
   2   9   6   38.38    3.27
   2   9   6   44.89    2.97
   2   9   6   44.89    2.97
   2   9   6   42.70    1.15
   2   9   6   38.39    3.27
   3   9   6    2.47    2.44
   3   9   6    5.11    2.23
   3   9   6    5.11    2.23
   3   9   6    2.47    2.44
   4   9   6    8.77    2.81
   4   9   6   10.03    2.90
   4   9   6   10.03    2.89
   4   9   6    8.77    2.81
   5   9   6    4.73    3.13
   5   9   6    1.51    3.45
   5   9   6    4.72    3.13
   5   9   6    1.51    3.45
  -1 -10  -6   10.66    1.59
  -1 -10  -6   12.90    1.42
  -1 -10  -6   12.90    1.42
  -1 -10  -6   10.66    1.59
   1  10   6   12.83    1.34
   1  10   6   15.85    2.66
   1  10   6   11.91    4.29
   1  10   6   12.46    1.18
   1  10   6   11.36    2.56
   1  10   6   12.83    1.34
   1  10   6   11.91    4.29
   1  10   6   13.33    2.19
   1  10   6   15.85    2.65
   1  10   6   11.36    2.56
   1  10   6   10.92    1.68
   1  10   6   12.46    1.18
   1  10   6   10.04    4.21
   1  10   6   13.33    2.19
   1  10   6   10.38    1.42
   2  10   6    4.30    3.84
   2  10   6    5.26    2.86
   2  10   6    4.77    2.33
   2  10   6    4.61    3.80
   2  10   6    4.30    3.84
   2  10   6    4.77    2.33
   2  10   6    5.26    2.86
   3  10   6   11.45    4.27
   3  10   6   18.14    3.11
   3  10   6   17.95    4.55
   3  10   6   18.14    3.10
   3  10   6   16.88    3.06
   3  10   6   16.88    3.06
   3  10   6   17.94    4.55
   4  10   6    6.56    3.37
   4  10   6   13.75    3.46
   4  10   6    6.56    3.37
   4  10   6   13.76    3.46
   3   7  -7   13.42    2.46
   3   7  -7   19.42    2.71
   3   7  -7   13.42    2.46
   3   7  -7   16.52    2.49
  -3  -7   7   12.78    3.20
  -3  -7   7   15.66    2.45
  -3  -7   7    7.41    2.81
  -3  -7   7   15.66    2.45
  -3  -7   7    8.43    2.61
  -3  -7   7    7.41    2.81
  -3  -7   7   12.78    3.20
   2   7  -7   53.73    3.73
   2   7  -7   45.55    3.25
   2   7  -7   45.55    3.25
   2   7  -7   40.41    3.24
   2   7  -7   42.50    3.82
   2   7  -7   53.73    3.73
  -2  -7   7   47.87    3.53
  -2  -7   7   55.50    3.24
  -2  -7   7   47.29    3.84
  -2  -7   7   53.07    3.84
  -2  -7   7   53.07    3.84
  -2  -7   7   49.65    4.15
  -2  -7   7   55.50    3.24
  -2  -7   7   47.29    3.84
   1   7  -7   13.70    2.36
   1   7  -7   12.65    1.20
   1   7  -7   12.37    2.89
   1   7  -7   14.89    2.80
   1   7  -7    8.14    2.08
   1   7  -7   14.89    2.80
   1   7  -7   13.70    2.36
   1   7  -7   12.65    1.20
  -1  -7   7   13.30    2.74
  -1  -7   7   14.50    2.48
  -1  -7   7   10.58    2.87
  -1  -7   7   13.30    2.74
  -1  -7   7   15.34    2.35
  -1  -7   7   14.50    2.48
  -1  -7   7    9.27    2.18
  -1  -7   7    9.27    2.18
   0   7  -7    8.40    1.95
   0   7  -7   12.40    2.30
   0   7  -7    8.40    1.95
   0   7  -7    8.21    3.05
   0   7  -7    7.37    3.22
   0   7  -7    7.37    3.22
   0   7  -7   11.31    2.36
   0   7  -7   12.40    2.30
   0  -7   7   10.54    2.28
   0  -7   7    5.21    2.80
   0  -7   7    4.60    3.05
   0  -7   7    6.72    2.39
   0  -7   7    9.73    2.07
   0  -7   7    9.73    2.07
   0  -7   7   10.54    2.28
   0  -7   7    5.21    2.80
   4   6  -7    4.42    2.40
   4   6  -7   -0.57    2.97
   4   6  -7   -1.97    2.08
   4   6  -7    4.91    2.70
   4   6  -7    4.49    2.54
   4   6  -7   -0.57    2.97
   4   6  -7    1.85    2.01
   4   6  -7    4.91    2.70
   4   6  -7    1.85    2.01
  -4  -6   7    2.85    2.16
  -4  -6   7    2.29    2.19
  -4  -6   7    2.85    2.16
  -4  -6   7    1.35    2.95
  -4  -6   7    2.29    2.19
  -4  -6   7    1.35    2.95
  -4  -6   7    4.50    2.68
  -4  -6   7    0.18    2.25
   3   6  -7   30.52    2.60
   3   6  -7   34.38    2.89
   3   6  -7   30.52    2.60
   3   6  -7   35.20    3.14
  -3  -6   7   31.22    2.77
  -3  -6   7   32.72    3.56
  -3  -6   7   29.84    2.71
  -3  -6   7   29.84    2.71
  -3  -6   7   31.22    2.77
  -3  -6   7   32.72    3.56
  -3  -6   7   28.99    2.89
  -3  -6   7   29.25    2.83
   2   6  -7    5.39    1.98
   2   6  -7    3.06    1.70
   2   6  -7    3.06    1.70
   2   6  -7    5.39    1.98
   2   6  -7    8.44    2.17
   2   6  -7    2.59    1.87
  -2  -6   7    4.43    1.96
  -2  -6   7    3.61    1.91
  -2  -6   7    2.70    2.37
  -2  -6   7    4.43    1.96
  -2  -6   7    1.52    1.73
  -2  -6   7    2.70    2.37
  -2  -6   7    3.19    2.02
  -2  -6   7    1.52    1.73
   1   6  -7   65.79    3.77
   1   6  -7   67.38    1.94
   1   6  -7   60.10    3.41
   1   6  -7   70.85    3.47
   1   6  -7   60.10    3.41
   1   6  -7   66.35    4.07
   1   6  -7   65.79    3.77
   1   6  -7   67.38    1.94
  -1  -6   7   68.18    3.47
  -1  -6   7   65.09    3.15
  -1  -6   7   73.57    4.00
  -1  -6   7   64.30    3.80
  -1  -6   7   65.09    3.15
  -1  -6   7   66.96    3.73
  -1  -6   7   66.96    3.73
  -1  -6   7   64.30    3.80
   0   6  -7    0.62    1.65
   0   6  -7    3.60    1.49
   0   6  -7    3.60    1.49
   0   6  -7   -1.50    1.79
   0   6  -7   -0.49    2.06
   0   6  -7   -0.81    2.20
   0   6  -7    0.62    1.65
   0   6  -7   -0.49    2.06
   0  -6   7   -0.22    2.32
   0  -6   7    1.42    1.91
   0  -6   7    1.34    2.28
   0  -6   7    1.42    1.91
   0  -6   7    0.00    1.92
   0  -6   7    1.34    2.28
   0  -6   7   -0.58    1.69
   0  -6   7   -0.58    1.69
  -1   6  -7   29.91    2.73
  -1   6  -7   34.66    3.63
  -1   6  -7   29.37    2.87
  -1   6  -7   29.90    2.73
  -1   6  -7   30.38    2.73
  -1   6  -7   34.66    3.63
  -1   6  -7   29.79    3.41
  -1   6  -7   30.38    2.73
   1  -6   7   34.21    3.54
   1  -6   7   34.21    3.54
   1  -6   7   27.95    2.81
   1  -6   7   32.15    2.92
   1  -6   7   31.25    3.55
   1  -6   7   32.15    2.92
  -2   6  -7   41.75    3.54
   2  -6   7   43.24    4.49
   5   5  -7   10.15    3.84
   5   5  -7   13.17    2.47
   5   5  -7   14.03    3.12
   5   5  -7   13.17    2.47
   5   5  -7   12.53    3.13
   5   5  -7    9.09    2.61
   5   5  -7   12.50    3.00
   5   5  -7   10.15    3.84
   5   5  -7   14.03    3.12
  -5  -5   7   10.62    2.55
  -5  -5   7   13.13    3.41
  -5  -5   7   10.62    2.55
  -5  -5   7   12.69    3.79
  -5  -5   7   13.24    2.66
  -5  -5   7   16.00    2.99
  -5  -5   7   16.00    2.99
  -5  -5   7   12.69    3.79
   4   5  -7   53.37    4.71
   4   5  -7   52.96    4.13
   4   5  -7   62.39    3.35
   4   5  -7   62.39    3.35
   4   5  -7   53.37    4.71
   4   5  -7   58.03    3.51
   4   5  -7   52.63    3.96
   4   5  -7   63.75    3.86
   4   5  -7   63.75    3.86
  -4  -5   7   54.97    3.33
  -4  -5   7   53.27    4.43
  -4  -5   7   53.27    4.43
  -4  -5   7   57.72    4.06
  -4  -5   7   50.02    3.37
  -4  -5   7   54.97    3.33
  -4  -5   7   59.37    3.60
  -4  -5   7   59.37    3.60
   3   5  -7   33.22    2.79
   3   5  -7   40.64    2.92
   3   5  -7   37.57    2.79
   3   5  -7   37.57    2.79
  -3  -5   7   27.85    3.83
  -3  -5   7   39.62    2.95
  -3  -5   7   42.70    3.02
  -3  -5   7   37.83    3.15
  -3  -5   7   39.62    2.95
  -3  -5   7   27.85    3.83
   2   5  -7    7.07    1.75
   2   5  -7    7.85    1.73
   2   5  -7    5.45    1.85
   2   5  -7    7.85    1.73
   2   5  -7    5.82    1.69
   2   5  -7    7.07    1.75
  -2  -5   7    5.24    2.33
  -2  -5   7    5.24    2.33
  -2  -5   7    6.10    1.82
  -2  -5   7    6.67    1.78
  -2  -5   7    7.43    1.96
  -2  -5   7    6.67    1.78
   1   5  -7   12.06    2.15
   1   5  -7    8.15    1.64
   1   5  -7   12.13    0.85
   1   5  -7   15.08    1.84
   1   5  -7   12.13    0.85
   1   5  -7   12.09    2.02
   1   5  -7    8.15    1.64
   1   5  -7   12.09    2.02
  -1  -5   7   10.00    1.89
  -1  -5   7   13.40    2.18
  -1  -5   7   10.23    1.71
  -1  -5   7   10.23    1.71
  -1  -5   7   13.64    2.24
  -1  -5   7   13.64    2.24
   0   5  -7   28.28    2.63
   0   5  -7   28.28    2.63
   0   5  -7   24.96    2.64
   0   5  -7   34.64    2.44
   0   5  -7   34.64    2.44
   0   5  -7   27.82    2.11
   0   5  -7   25.30    2.35
   0   5  -7   27.84    2.11
   0  -5   7   28.94    2.59
   0  -5   7   31.59    2.46
   0  -5   7   22.40    2.41
   0  -5   7   28.94    2.59
   0  -5   7   31.59    2.46
   0  -5   7   29.95    2.84
  -1   5  -7   19.79    2.66
  -1   5  -7   20.13    2.95
  -1   5  -7   19.95    2.22
  -1   5  -7   16.24    2.06
  -1   5  -7   19.79    2.66
  -1   5  -7   15.64    2.03
  -1   5  -7   16.24    2.06
  -1   5  -7   15.62    2.03
   1  -5   7   17.60    2.85
   1  -5   7   17.49    2.15
   1  -5   7   17.36    2.21
   1  -5   7   16.31    2.17
   1  -5   7   17.36    2.21
   1  -5   7   16.31    2.17
  -2   5  -7   29.05    2.63
  -2   5  -7   27.81    3.56
  -2   5  -7   25.99    3.31
  -2   5  -7   27.81    3.56
  -2   5  -7   29.05    2.63
  -2   5  -7   21.89    3.48
  -2   5  -7   34.22    2.99
  -2   5  -7   26.01    3.31
   2  -5   7   30.53    2.80
   2  -5   7   28.46    3.49
   2  -5   7   41.17    3.91
   2  -5   7   30.94    2.74
   2  -5   7   28.46    3.49
   2  -5   7   30.94    2.74
   2  -5   7   30.53    2.80
   2  -5   7   25.45    2.83
  -3   5  -7    5.53    2.44
  -3   5  -7    0.90    3.48
  -3   5  -7    0.90    3.48
  -3   5  -7    5.53    2.44
  -3   5  -7    7.82    2.85
  -3   5  -7    3.44    2.56
  -3   5  -7    5.79    4.13
  -3   5  -7    7.82    2.86
   3  -5   7    2.54    3.28
   3  -5   7    1.32    2.23
   3  -5   7    5.59    3.73
   3  -5   7    4.52    1.84
   3  -5   7    2.54    3.28
   3  -5   7    4.52    1.84
   5   4  -7    2.66    2.54
   5   4  -7   -1.07    3.63
   5   4  -7   -1.07    3.63
   5   4  -7    2.25    2.18
   5   4  -7    2.66    2.54
   5   4  -7    3.59    2.88
   5   4  -7    3.57    2.76
  -5  -4   7    0.49    2.08
  -5  -4   7    0.49    2.08
  -5  -4   7   -1.26    2.15
  -5  -4   7   -0.86    2.54
  -5  -4   7   -0.86    2.54
  -5  -4   7   -7.87    3.16
  -5  -4   7    2.52    3.05
  -5  -4   7   -7.87    3.16
   4   4  -7  121.99    4.95
   4   4  -7  117.33    5.79
   4   4  -7  118.38    4.44
   4   4  -7  117.33    5.79
   4   4  -7  119.20    4.24
   4   4  -7  118.36    4.79
   4   4  -7  119.20    4.24
   4   4  -7  121.91    4.80
   4   4  -7  118.36    4.79
  -4  -4   7  112.81    4.30
  -4  -4   7  112.81    4.30
  -4  -4   7  119.28    5.78
  -4  -4   7  123.81    4.77
  -4  -4   7  110.32    4.98
  -4  -4   7  123.81    4.77
  -4  -4   7  119.28    5.78
  -4  -4   7  116.54    4.39
   3   4  -7   13.16    1.82
   3   4  -7   13.16    1.82
   3   4  -7    8.47    1.95
   3   4  -7    8.47    1.95
   3   4  -7   11.16    1.89
  -3  -4   7    9.85    1.86
  -3  -4   7    9.85    1.86
  -3  -4   7   11.11    1.89
  -3  -4   7    9.85    2.07
   2   4  -7   10.77    1.68
   2   4  -7    6.81    1.60
   2   4  -7    6.98    1.55
   2   4  -7   10.54    1.78
   2   4  -7    6.98    1.55
   2   4  -7   10.54    1.78
  -2  -4   7    8.72    1.75
  -2  -4   7    9.24    2.24
  -2  -4   7    8.72    1.75
  -2  -4   7   12.72    1.83
  -2  -4   7    9.56    1.81
  -2  -4   7    6.90    1.62
  -2  -4   7    6.90    1.62
  -2  -4   7    9.24    2.24
   1   4  -7   34.92    2.03
   1   4  -7   35.14    3.92
   1   4  -7   42.48    2.66
   1   4  -7   34.92    2.03
   1   4  -7   41.31    2.70
   1   4  -7   42.48    2.66
  -1  -4   7   37.18    2.74
  -1  -4   7   35.61    2.53
  -1  -4   7   40.80    2.76
  -1  -4   7   30.97    2.47
  -1  -4   7   37.18    2.74
  -1  -4   7   36.05    2.38
  -1  -4   7   35.61    2.53
  -1  -4   7   36.05    2.38
   0   4  -7   74.91    2.62
   0   4  -7   81.37    3.17
   0   4  -7   83.89    3.57
   0   4  -7   81.37    3.17
   0   4  -7   77.26    3.59
   0   4  -7   78.25    3.15
   0   4  -7   74.86    2.62
   0   4  -7   83.89    3.57
   0  -4   7   91.05    4.54
   0  -4   7   91.05    4.54
   0  -4   7   79.92    3.65
   0  -4   7   68.82    3.10
   0  -4   7   68.82    3.10
   0  -4   7   79.92    3.65
   0  -4   7   79.69    3.67
   0  -4   7   79.52    3.36
  -1   4  -7   45.05    2.68
  -1   4  -7   45.05    2.68
  -1   4  -7   42.24    3.44
  -1   4  -7   48.96    2.76
  -1   4  -7   48.96    2.76
   1  -4   7   55.04    2.98
   1  -4   7   51.00    2.75
   1  -4   7   44.71    2.84
   1  -4   7   55.04    2.98
   1  -4   7   50.11    3.38
   1  -4   7   48.43    3.03
   1  -4   7   51.00    2.75
   1  -4   7   48.43    3.03
  -2   4  -7    2.04    2.36
  -2   4  -7    1.90    2.31
  -2   4  -7    3.97    1.67
  -2   4  -7    3.97    1.67
  -2   4  -7    1.56    1.94
  -2   4  -7    2.04    2.36
  -2   4  -7    1.57    1.94
  -2   4  -7    1.90    1.75
   2  -4   7    3.11    2.33
   2  -4   7    3.71    2.50
   2  -4   7    5.28    1.73
   2  -4   7    2.13    1.42
   2  -4   7    5.28    1.73
   2  -4   7    3.11    2.33
  -3   4  -7   10.41    3.15
  -3   4  -7    6.56    2.11
  -3   4  -7   10.41    3.15
  -3   4  -7    6.56    2.11
  -3   4  -7   10.58    2.59
  -3   4  -7    9.58    2.17
  -3   4  -7   10.58    2.59
   3  -4   7    6.73    3.01
   3  -4   7    6.73    3.01
   3  -4   7    5.82    2.58
   3  -4   7   10.16    2.33
   3  -4   7    9.21    2.38
   3  -4   7    8.25    2.20
   3  -4   7    8.25    2.20
   3  -4   7   10.16    2.33
   5   3  -7   11.66    2.83
   5   3  -7   13.22    3.22
   5   3  -7   13.32    2.50
   5   3  -7   12.34    2.36
   5   3  -7   15.92    3.20
   5   3  -7   15.77    3.04
   5   3  -7   13.22    3.22
   5   3  -7   11.66    2.83
   5   3  -7   12.34    2.36
  -5  -3   7   17.26    3.87
  -5  -3   7    9.63    2.98
  -5  -3   7   12.53    1.14
  -5  -3   7    9.63    2.98
  -5  -3   7   10.61    3.17
  -5  -3   7    6.99    2.25
  -5  -3   7    6.99    2.25
  -5  -3   7   11.56    2.52
  -5  -3   7   12.52    1.14
  -5  -3   7   17.26    3.87
   4   3  -7   45.81    3.48
   4   3  -7   44.69    3.41
   4   3  -7   48.86    2.92
   4   3  -7   46.58    4.11
   4   3  -7   52.80    3.10
   4   3  -7   48.86    2.92
   4   3  -7   44.69    3.41
   4   3  -7   46.58    4.11
   4   3  -7   45.91    3.62
  -4  -3   7   45.35    3.64
  -4  -3   7   46.23    3.84
  -4  -3   7   45.35    3.64
  -4  -3   7   52.43    3.46
  -4  -3   7   52.43    3.46
  -4  -3   7   51.89    3.09
   3   3  -7   28.61    2.35
   3   3  -7   24.42    2.08
   3   3  -7   33.34    3.17
   3   3  -7   24.42    2.08
   3   3  -7   33.34    3.17
   3   3  -7   28.61    2.35
   3   3  -7   26.44    2.36
  -3  -3   7   31.11    2.46
  -3  -3   7   29.07    2.51
  -3  -3   7   29.07    2.51
  -3  -3   7   29.25    2.69
   2   3  -7    0.95    1.31
   2   3  -7    0.08    1.22
   2   3  -7    0.08    1.22
   2   3  -7    1.80    1.48
  -2  -3   7    0.46    1.24
  -2  -3   7    0.05    0.99
  -2  -3   7   -0.29    1.43
  -2  -3   7   -0.20    1.83
  -2  -3   7    0.46    1.24
  -2  -3   7   -0.20    1.83
  -2  -3   7    1.13    1.33
  -2  -3   7    0.05    0.99
   1   3  -7   58.30    2.45
   1   3  -7   62.29    2.78
   1   3  -7   58.30    2.45
   1   3  -7   63.56    2.63
   1   3  -7   62.29    2.78
   1   3  -7   57.01    2.83
  -1  -3   7   57.12    2.68
  -1  -3   7   61.01    2.73
  -1  -3   7   57.44    3.36
  -1  -3   7   57.44    3.36
  -1  -3   7   57.12    2.68
  -1  -3   7   57.42    2.82
  -1  -3   7   61.01    2.73
   0   3  -7   85.05    3.41
   0   3  -7   83.03    2.57
   0   3  -7   86.21    3.51
   0   3  -7   89.58    3.28
   0   3  -7   82.92    2.95
   0   3  -7   82.92    2.95
   0   3  -7   83.03    2.57
   0   3  -7   85.05    3.41
   0  -3   7   90.03    3.36
   0  -3   7   83.44    3.38
   0  -3   7   83.34    3.77
   0  -3   7   80.85    3.11
   0  -3   7   83.44    3.38
   0  -3   7   80.85    3.11
   0  -3   7   83.13    3.46
   0  -3   7   83.34    3.77
  -1   3  -7   44.13    2.45
  -1   3  -7   41.70    2.61
  -1   3  -7   42.44    2.50
  -1   3  -7   44.17    2.45
  -1   3  -7   42.44    2.50
  -1   3  -7   45.23    2.56
   1  -3   7   37.45    4.52
   1  -3   7   36.53    2.80
   1  -3   7   40.10    2.52
   1  -3   7   36.53    2.80
   1  -3   7   40.62    2.37
   1  -3   7   40.62    2.37
  -2   3  -7   46.06    3.05
  -2   3  -7   61.10    3.15
  -2   3  -7   49.63    2.80
  -2   3  -7   50.02    3.05
  -2   3  -7   46.05    3.05
  -2   3  -7   50.02    3.05
  -2   3  -7   51.38    3.67
  -2   3  -7   49.63    2.80
   2  -3   7   50.09    2.78
   2  -3   7   50.09    2.78
   2  -3   7   46.79    2.86
   2  -3   7   43.97    2.92
   2  -3   7   43.97    2.92
   2  -3   7   49.47    3.65
  -3   3  -7    9.60    2.02
  -3   3  -7   10.45    2.35
  -3   3  -7   10.37    2.15
  -3   3  -7   10.43    2.35
  -3   3  -7   15.93    2.50
  -3   3  -7    5.91    3.23
  -3   3  -7    9.60    2.02
  -3   3  -7   15.93    2.50
   3  -3   7   11.47    2.35
   3  -3   7   12.01    2.76
   3  -3   7    9.41    2.07
   3  -3   7   12.94    2.02
   3  -3   7   11.25    2.85
   3  -3   7   12.01    2.76
   3  -3   7   12.94    2.02
   3  -3   7   11.47    2.35
  -4   3  -7   14.66    2.77
  -4   3  -7    9.27    3.46
  -4   3  -7   10.16    2.47
  -4   3  -7   13.22    3.57
  -4   3  -7   10.16    2.47
  -4   3  -7    9.91    2.94
  -4   3  -7    9.91    2.94
  -4   3  -7   13.22    3.57
   4  -3   7    9.78    2.76
   4  -3   7   17.89    2.66
   4  -3   7   11.67    2.57
   4  -3   7   10.00    2.99
   4  -3   7   17.89    2.66
   4  -3   7    9.78    2.76
   4  -3   7   17.34    3.64
   4  -3   7   10.00    2.99
   5   2  -7   26.38    3.19
   5   2  -7   25.54    2.32
   5   2  -7   15.49    3.28
   5   2  -7   26.38    3.19
   5   2  -7   20.53    3.13
   5   2  -7   15.49    3.28
   5   2  -7   20.63    3.27
   5   2  -7   25.54    2.32
   5   2  -7   16.99    2.56
  -5  -2   7   20.95    3.39
  -5  -2   7   20.51    2.78
  -5  -2   7   21.27    2.76
  -5  -2   7   21.27    2.76
  -5  -2   7   12.05    3.67
  -5  -2   7   12.05    3.67
   4   2  -7   35.88    3.83
   4   2  -7   32.11    2.98
   4   2  -7   35.88    3.83
   4   2  -7   33.09    2.97
   4   2  -7   32.38    3.12
   4   2  -7   35.42    2.85
   4   2  -7   33.09    2.97
  -4  -2   7   37.94    3.40
  -4  -2   7   37.95    2.85
  -4  -2   7   37.94    3.40
  -4  -2   7   35.10    2.72
  -4  -2   7   35.10    2.72
  -4  -2   7   29.44    3.00
   3   2  -7   28.18    2.88
   3   2  -7   27.85    2.28
   3   2  -7   31.59    2.25
   3   2  -7   31.59    2.25
   3   2  -7   25.40    2.45
   3   2  -7   25.88    2.59
   3   2  -7   25.55    2.37
   3   2  -7   25.55    2.37
   3   2  -7   28.18    2.88
  -3  -2   7   29.19    2.46
  -3  -2   7   28.63    2.37
  -3  -2   7   31.92    3.88
  -3  -2   7   26.04    2.18
  -3  -2   7   27.70    1.03
  -3  -2   7   34.38    2.94
  -3  -2   7   29.19    2.46
  -3  -2   7   31.92    3.88
  -3  -2   7   26.04    2.18
  -3  -2   7   27.70    1.03
   2   2  -7   63.05    2.84
   2   2  -7   57.80    2.68
   2   2  -7   56.68    2.90
   2   2  -7   57.80    2.68
  -2  -2   7   59.80    2.42
  -2  -2   7   59.80    2.42
  -2  -2   7   59.10    3.56
  -2  -2   7   61.41    2.60
  -2  -2   7   63.19    2.76
  -2  -2   7   61.41    2.60
  -2  -2   7   59.10    3.56
  -2  -2   7   66.21    2.79
   1   2  -7   43.58    2.07
   1   2  -7   41.46    2.29
   1   2  -7   45.90    2.17
   1   2  -7   41.46    2.29
   1   2  -7   42.45    2.36
   1   2  -7   43.58    2.07
  -1  -2   7   39.36    2.43
  -1  -2   7   41.28    2.32
  -1  -2   7   42.21    2.36
  -1  -2   7   45.83    2.45
  -1  -2   7   41.28    2.32
  -1  -2   7   39.36    2.43
  -1  -2   7   43.71    2.34
  -1  -2   7   43.71    2.34
   0   2  -7   52.77    2.63
   0   2  -7   47.31    2.10
   0   2  -7   48.68    1.88
   0   2  -7   49.59    2.48
   0   2  -7   46.00    2.20
   0   2  -7   47.31    2.10
   0   2  -7   48.68    1.88
   0   2  -7   46.00    2.20
   0  -2   7   44.83    2.41
   0  -2   7   44.83    2.41
   0  -2   7   47.89    2.60
   0  -2   7   41.15    2.77
   0  -2   7   41.15    2.77
   0  -2   7   48.07    2.35
   0  -2   7   53.00    2.55
   0  -2   7   48.07    2.35
  -1   2  -7   -0.34    0.99
  -1   2  -7   -1.19    1.21
  -1   2  -7   -0.70    1.09
  -1   2  -7   -0.70    1.09
  -1   2  -7   -1.19    1.21
  -1   2  -7    1.47    1.21
  -1   2  -7   -0.91    1.39
  -1   2  -7   -0.34    0.99
   1  -2   7    0.96    0.84
   1  -2   7   -0.02    1.18
   1  -2   7   -0.74    1.28
   1  -2   7    0.96    0.84
  -2   2  -7   99.16    3.61
  -2   2  -7   98.06    3.59
  -2   2  -7  109.45    4.32
  -2   2  -7   92.87    3.71
  -2   2  -7   98.06    3.59
  -2   2  -7   92.87    3.71
  -2   2  -7   94.54    3.46
  -2   2  -7   99.16    3.61
   2  -2   7  101.23    3.65
   2  -2   7  101.23    3.65
   2  -2   7  100.99    3.69
   2  -2   7  105.05    4.30
   2  -2   7  100.79    3.78
   2  -2   7  100.79    3.78
  -3   2  -7   63.83    4.08
  -3   2  -7   64.52    3.33
  -3   2  -7   67.49    3.30
  -3   2  -7   66.35    4.03
  -3   2  -7   67.49    3.30
  -3   2  -7   66.35    4.03
   3  -2   7   61.59    3.17
   3  -2   7   66.88    3.46
   3  -2   7   64.69    4.02
   3  -2   7   64.69    4.02
   3  -2   7   65.62    3.29
   3  -2   7   61.59    3.17
   3  -2   7   68.02    4.18
   3  -2   7   66.88    3.46
  -4   2  -7   18.20    2.14
  -4   2  -7   10.84    2.47
  -4   2  -7   20.15    2.71
  -4   2  -7   10.84    2.47
  -4   2  -7   18.20    2.14
  -4   2  -7   16.02    2.79
  -4   2  -7   16.03    2.80
  -4   2  -7   15.36    3.13
   4  -2   7   16.20    2.82
   4  -2   7   17.10    3.25
   4  -2   7   11.83    1.93
   4  -2   7   10.28    2.46
   4  -2   7   10.28    2.46
   4  -2   7   11.83    1.93
   4  -2   7   16.20    2.82
   4  -2   7   16.43    2.52
  -5   2  -7    8.13    3.29
  -5   2  -7    5.40    2.53
  -5   2  -7    7.21    3.63
  -5   2  -7   11.58    3.09
  -5   2  -7    8.13    3.30
  -5   2  -7   11.58    3.09
  -5   2  -7    3.25    2.69
  -5   2  -7    3.25    2.69
  -5   2  -7    7.28    3.80
   5  -2   7    4.72    3.60
   5  -2   7    4.97    2.68
   5  -2   7    4.72    3.60
   5  -2   7    4.97    2.68
   5  -2   7    1.37    3.65
   5  -2   7    9.95    3.97
   5  -2   7    5.42    2.41
   5  -2   7    1.37    3.65
   5   1  -7   -0.74    2.08
   5   1  -7   -0.27    2.21
   5   1  -7    4.71    2.52
   5   1  -7    0.38    1.96
   5   1  -7   -0.74    2.08
   5   1  -7    4.74    2.64
   5   1  -7    0.38    1.96
  -5  -1   7   -0.12    2.19
  -5  -1   7    2.75    2.10
  -5  -1   7    4.11    2.68
  -5  -1   7    2.31    3.05
  -5  -1   7   -0.12    2.19
  -5  -1   7    4.11    2.68
  -5  -1   7    0.93    2.84
  -5  -1   7    2.31    3.05
   4   1  -7   34.08    2.89
   4   1  -7   36.96    3.11
   4   1  -7   30.71    3.86
   4   1  -7   36.96    3.11
   4   1  -7   29.98    2.52
   4   1  -7   29.98    2.52
   4   1  -7   30.58    3.70
  -4  -1   7   31.78    3.57
  -4  -1   7   38.54    2.79
  -4  -1   7   36.06    2.85
  -4  -1   7   37.52    3.19
  -4  -1   7   37.52    3.19
  -4  -1   7   33.16    3.31
  -4  -1   7   31.78    3.57
  -4  -1   7   38.54    2.79
   3   1  -7   71.62    3.53
   3   1  -7   68.59    3.51
   3   1  -7   70.87    3.53
   3   1  -7   67.81    3.00
   3   1  -7   70.87    3.53
   3   1  -7   67.81    3.00
   3   1  -7   71.44    3.40
   3   1  -7   63.76    3.04
   3   1  -7   68.59    3.51
  -3  -1   7   70.21    3.37
  -3  -1   7   70.19    4.28
  -3  -1   7   70.19    4.28
  -3  -1   7   66.20    2.95
  -3  -1   7   59.10    4.03
  -3  -1   7   70.21    3.37
  -3  -1   7   73.47    3.67
  -3  -1   7   66.20    2.95
   2   1  -7   15.92    1.55
   2   1  -7   16.53    1.45
   2   1  -7   18.29    1.94
   2   1  -7   16.53    1.45
  -2  -1   7   14.61    1.70
  -2  -1   7   16.69    1.14
  -2  -1   7   16.66    2.38
  -2  -1   7   17.51    1.79
  -2  -1   7   16.66    2.38
  -2  -1   7   16.25    1.71
  -2  -1   7   14.42    1.62
  -2  -1   7   16.70    1.14
  -2  -1   7   14.61    1.70
  -2  -1   7   14.42    1.62
   1   1  -7  119.78    3.73
   1   1  -7  119.09    3.77
   1   1  -7  119.04    3.77
   1   1  -7  119.09    3.77
   1   1  -7  128.70    3.87
   1   1  -7  119.78    3.73
  -1  -1   7  125.86    3.95
  -1  -1   7  124.61    3.18
  -1  -1   7  135.94    3.82
  -1  -1   7  121.51    3.69
  -1  -1   7  135.94    3.82
  -1  -1   7  123.86    3.86
  -1  -1   7  124.61    3.18
  -1  -1   7  122.68    4.45
  -1  -1   7  122.68    4.45
  -1  -1   7  123.86    3.86
   0   1  -7   97.98    3.12
   0   1  -7   97.98    3.12
   0   1  -7  100.77    3.32
   0   1  -7   93.61    3.15
   0   1  -7   93.61    3.15
   0   1  -7   97.65    2.76
   0   1  -7   97.65    2.77
   0   1  -7   96.96    3.34
   0  -1   7   92.83    3.16
   0  -1   7   92.83    3.16
   0  -1   7   96.20    3.30
   0  -1   7   94.86    3.08
   0  -1   7  100.52    3.41
   0  -1   7   94.86    3.08
  -1   1  -7    1.06    0.98
  -1   1  -7    1.79    1.08
  -1   1  -7    2.50    1.24
  -1   1  -7    0.57    1.20
  -1   1  -7    1.79    1.08
  -1   1  -7    0.57    1.20
  -1   1  -7    2.34    0.96
  -1   1  -7    1.06    0.98
   1  -1   7    3.52    1.06
   1  -1   7    2.52    1.27
   1  -1   7    4.77    1.18
   1  -1   7    2.71    1.26
   1  -1   7    3.52    1.06
   1  -1   7    2.71    1.26
  -2   1  -7   44.22    2.88
  -2   1  -7   41.80    2.37
  -2   1  -7   41.84    2.37
  -2   1  -7   47.13    2.49
  -2   1  -7   47.49    2.38
  -2   1  -7   47.49    2.38
   2  -1   7   35.41    2.58
   2  -1   7   42.86    2.35
   2  -1   7   43.05    2.89
   2  -1   7   42.86    2.35
   2  -1   7   35.41    2.58
   2  -1   7   44.09    2.48
  -3   1  -7   20.62    2.08
  -3   1  -7   21.10    2.31
  -3   1  -7   21.37    2.24
  -3   1  -7   20.00    2.06
  -3   1  -7   21.13    2.31
  -3   1  -7   21.56    2.65
  -3   1  -7   20.00    2.06
  -3   1  -7   21.37    2.24
   3  -1   7   24.10    2.70
   3  -1   7   16.63    2.34
   3  -1   7   17.46    1.97
   3  -1   7   16.63    2.34
   3  -1   7   18.92    2.12
   3  -1   7   18.92    2.12
  -4   1  -7   54.53    3.80
  -4   1  -7   55.91    3.44
  -4   1  -7   46.19    4.10
  -4   1  -7   52.53    3.16
  -4   1  -7   54.57    3.79
  -4   1  -7   47.23    3.37
  -4   1  -7   47.23    3.37
  -4   1  -7   52.53    3.16
   4  -1   7   48.91    2.70
   4  -1   7   42.46    3.24
   4  -1   7   42.46    3.24
   4  -1   7   49.37    3.66
   4  -1   7   48.91    2.70
   4  -1   7   43.86    3.78
   4  -1   7   44.57    4.06
   4  -1   7   49.37    3.66
  -5   1  -7   12.05    3.53
  -5   1  -7    9.11    2.41
  -5   1  -7    9.73    3.16
  -5   1  -7    9.11    2.41
  -5   1  -7   12.05    3.53
  -5   1  -7    7.04    2.91
  -5   1  -7   10.43    3.28
  -5   1  -7    7.10    2.92
  -5   1  -7   11.08    2.07
   5  -1   7    4.55    3.24
   5  -1   7    8.77    2.44
   5  -1   7   10.45    3.36
   5  -1   7    8.77    2.44
   5  -1   7   11.01    2.50
   5  -1   7   10.45    3.36
   5  -1   7    4.55    3.24
   5   0  -7   52.73    4.91
   5   0  -7   53.87    3.95
   5   0  -7   52.73    4.91
   5   0  -7   49.47    4.36
   5   0  -7   39.00    3.82
   5   0  -7   47.33    3.92
   5   0  -7   53.87    3.95
   5   0  -7   39.00    3.82
   5   0  -7   49.21    4.51
  -5   0   7   61.85    4.47
  -5   0   7   53.07    3.87
  -5   0   7   53.07    3.87
  -5   0   7   56.47    4.70
  -5   0   7   61.85    4.47
  -5   0   7   49.97    4.44
  -5   0   7   49.97    4.44
  -5   0   7   53.03    3.84
   4   0  -7   26.79    3.04
   4   0  -7   35.29    2.42
   4   0  -7   34.11    2.92
   4   0  -7   31.66    2.72
   4   0  -7   31.66    2.72
   4   0  -7   26.99    3.19
   4   0  -7   35.29    2.42
  -4   0   7   31.78    2.82
  -4   0   7   32.14    3.25
  -4   0   7   35.04    3.37
  -4   0   7   32.14    3.25
  -4   0   7   31.78    2.82
  -4   0   7   39.60    3.14
   3   0  -7   41.30    2.27
   3   0  -7   38.40    2.90
   3   0  -7   38.64    3.33
   3   0  -7   38.40    2.90
   3   0  -7   36.62    2.45
   3   0  -7   32.12    2.88
   3   0  -7   32.00    2.77
   3   0  -7   36.62    2.45
   3   0  -7   38.64    3.33
  -3   0   7   39.33    2.48
  -3   0   7   36.13    3.05
  -3   0   7   36.13    3.05
  -3   0   7   39.33    2.48
  -3   0   7   39.03    3.11
  -3   0   7   39.14    2.89
  -3   0   7   41.01    2.66
  -3   0   7   39.14    2.89
   2   0  -7    1.61    1.10
   2   0  -7   -0.99    0.89
   2   0  -7   -0.99    0.89
   2   0  -7    1.61    1.10
   2   0  -7    0.23    0.88
  -2   0   7    3.33    1.07
  -2   0   7   -1.19    1.61
  -2   0   7    1.35    0.78
  -2   0   7    0.46    1.08
  -2   0   7   -1.19    1.61
  -2   0   7    0.42    1.06
  -2   0   7    3.33    1.07
  -2   0   7    1.34    0.78
  -2   0   7   -0.14    1.38
  -2   0   7    0.46    1.08
   1   0  -7   81.69    2.91
   1   0  -7   75.18    2.61
   1   0  -7   75.18    2.61
   1   0  -7   78.16    3.04
   1   0  -7   76.18    2.73
   1   0  -7   76.18    2.73
  -1   0   7   74.90    2.73
  -1   0   7   76.53    2.85
  -1   0   7   76.54    2.40
  -1   0   7   78.33    2.62
  -1   0   7   73.70    3.49
  -1   0   7   78.10    3.05
  -1   0   7   74.90    2.73
  -1   0   7   76.54    2.40
  -1   0   7   78.33    2.62
  -1   0   7   73.70    3.49
   0   0  -7  212.13    5.46
   0   0  -7  211.27    5.32
   0   0  -7  215.19    5.38
   0   0  -7  208.34    5.00
   0   0  -7  215.19    5.38
   0   0  -7  211.27    5.32
   0   0  -7  208.35    5.00
   0   0  -7  213.37    5.50
   0   0   7  216.67    5.15
   0   0   7  210.25    5.29
   0   0   7  214.14    5.33
   0   0   7  213.56    5.48
   0   0   7  210.25    5.29
   0   0   7  216.68    5.15
   0   0   7  216.41    5.48
   0   0   7  214.14    5.33
  -1   0  -7  116.99    3.53
  -1   0  -7  117.82    3.41
  -1   0  -7  116.99    3.53
  -1   0  -7  123.00    3.76
  -1   0  -7  114.85    3.42
  -1   0  -7  117.82    3.41
  -1   0  -7  114.85    3.42
  -1   0  -7  125.46    3.69
   1   0   7  116.23    3.49
   1   0   7  116.23    3.49
   1   0   7  117.50    3.78
   1   0   7  115.30    3.66
   1   0   7  115.30    3.66
   1   0   7  117.59    3.64
   1   0   7  117.59    3.63
   1   0   7  116.23    3.64
  -2   0  -7    3.04    1.19
  -2   0  -7    3.04    1.19
  -2   0  -7    4.79    1.22
  -2   0  -7    4.07    1.09
  -2   0  -7    3.69    1.27
  -2   0  -7    4.07    1.09
  -2   0  -7    3.69    1.27
  -2   0  -7    3.70    1.17
   2   0   7    2.84    1.35
   2   0   7    3.41    1.42
   2   0   7    3.54    1.24
   2   0   7    2.84    1.35
   2   0   7    3.87    1.12
   2   0   7    3.87    1.12
  -3   0  -7   53.29    3.07
  -3   0  -7   46.69    2.88
  -3   0  -7   53.29    3.07
  -3   0  -7   41.91    3.11
  -3   0  -7   46.70    2.88
  -3   0  -7   52.59    2.71
  -3   0  -7   50.52    2.30
  -3   0  -7   50.52    2.30
   3   0   7   47.44    3.04
   3   0   7   50.85    2.55
   3   0   7   51.15    3.18
   3   0   7   50.85    2.55
   3   0   7   42.98    2.59
   3   0   7   47.44    3.04
  -4   0  -7    3.69    1.60
  -4   0  -7    1.15    1.95
  -4   0  -7    3.99    1.32
  -4   0  -7    1.31    1.96
  -4   0  -7    1.53    1.58
  -4   0  -7    3.99    1.32
  -4   0  -7    1.53    1.58
  -4   0  -7    1.31    1.96
   4   0   7    0.20    1.42
   4   0   7    1.53    2.12
   4   0   7    3.18    2.10
   4   0   7    3.18    2.10
   4   0   7    1.53    2.12
   4   0   7    0.20    1.42
   4   0   7    2.25    2.11
  -5   0  -7   72.09    3.36
  -5   0  -7   62.27    3.81
  -5   0  -7   68.55    5.00
  -5   0  -7   61.68    4.77
  -5   0  -7   61.68    4.77
  -5   0  -7   72.09    3.36
  -5   0  -7   71.27    4.01
  -5   0  -7   68.39    4.86
  -5   0  -7   62.26    3.82
   5   0   7   71.73    5.79
   5   0   7   67.00    3.74
   5   0   7   69.68    4.25
   5   0   7   67.00    3.74
   5   0   7   63.17    3.81
   5   0   7   71.73    5.79
   5   0   7   61.01    3.92
   5   0   7   61.01    3.92
   5  -1  -7   13.71    2.63
   5  -1  -7   20.10    4.11
   5  -1  -7   17.53    3.34
   5  -1  -7   14.56    2.88
   5  -1  -7   17.08    3.36
   5  -1  -7   17.08    3.36
   5  -1  -7   17.59    3.49
   5  -1  -7   20.10    4.11
   5  -1  -7   14.56    2.88
  -5   1   7   17.77    3.06
  -5   1   7   13.21    2.71
  -5   1   7   14.43    3.55
  -5   1   7   13.17    3.38
  -5   1   7   14.43    3.55
  -5   1   7   13.17    3.38
   4  -1  -7   78.03    2.55
   4  -1  -7   80.68    4.39
   4  -1  -7   88.41    3.56
   4  -1  -7   88.41    3.56
   4  -1  -7   83.21    4.66
   4  -1  -7   82.98    4.00
   4  -1  -7   78.11    2.55
   4  -1  -7   78.12    2.55
   4  -1  -7   87.64    5.06
   4  -1  -7   80.68    4.39
   4  -1  -7   83.36    4.51
   4  -1  -7   87.64    5.06
  -4   1   7   82.83    4.40
  -4   1   7   88.14    4.57
  -4   1   7   87.44    3.92
  -4   1   7   82.83    4.40
  -4   1   7   87.73    4.07
  -4   1   7   87.44    3.92
  -4   1   7   83.03    4.96
  -4   1   7   83.03    4.96
   3  -1  -7   85.43    3.20
   3  -1  -7   91.39    4.02
   3  -1  -7   95.60    4.29
   3  -1  -7   86.41    3.65
   3  -1  -7   95.60    4.29
   3  -1  -7   89.71    3.61
   3  -1  -7   86.00    3.75
   3  -1  -7   85.43    3.20
   3  -1  -7   91.39    4.02
  -3   1   7   84.59    3.71
  -3   1   7   83.41    3.95
  -3   1   7   91.09    3.26
  -3   1   7   77.74    4.80
  -3   1   7   77.74    4.80
  -3   1   7   83.41    3.95
  -3   1   7   91.09    3.26
  -3   1   7   92.78    3.67
   2  -1  -7   10.58    1.87
   2  -1  -7    8.75    1.42
   2  -1  -7   10.24    1.68
   2  -1  -7   10.38    1.51
   2  -1  -7   10.24    1.68
   2  -1  -7   10.45    1.78
   2  -1  -7    8.75    1.42
  -2   1   7    9.64    1.42
  -2   1   7    7.29    1.20
  -2   1   7    9.02    2.04
  -2   1   7    7.71    1.43
  -2   1   7    8.77    1.72
  -2   1   7    9.02    2.04
  -2   1   7    9.64    1.42
  -2   1   7    7.29    1.20
   1  -1  -7  108.46    3.37
   1  -1  -7  105.05    3.43
   1  -1  -7  104.92    3.14
   1  -1  -7  104.92    3.14
  -1   1   7   97.16    3.35
  -1   1   7  108.47    4.17
  -1   1   7  103.84    3.36
  -1   1   7  100.14    3.11
  -1   1   7  107.73    3.04
  -1   1   7  106.09    3.59
  -1   1   7   97.16    3.35
  -1   1   7  108.47    4.17
  -1   1   7  107.73    3.04
  -1   1   7  100.14    3.11
   0  -1  -7   90.15    2.94
   0  -1  -7   95.73    3.02
   0  -1  -7  101.29    3.14
   0  -1  -7   95.73    3.02
   0  -1  -7   90.15    2.94
   0  -1  -7   94.86    3.20
   0   1   7   97.18    3.11
   0   1   7   96.34    2.92
   0   1   7   98.25    3.11
   0   1   7   97.18    3.11
   0   1   7   96.34    2.92
   0   1   7   96.38    2.93
   0   1   7   97.74    3.19
   0   1   7   96.38    2.93
  -1  -1  -7   64.00    2.45
  -1  -1  -7   63.90    2.52
  -1  -1  -7   64.00    2.45
  -1  -1  -7   60.53    2.41
  -1  -1  -7   63.18    2.54
  -1  -1  -7   64.42    2.42
  -1  -1  -7   64.42    2.42
  -1  -1  -7   60.53    2.41
   1   1   7   62.41    2.23
   1   1   7   66.60    2.59
   1   1   7   66.60    2.59
   1   1   7   61.89    2.32
   1   1   7   61.89    2.32
   1   1   7   62.41    2.23
   1   1   7   66.64    2.51
   1   1   7   69.07    2.61
  -2  -1  -7   11.10    1.48
  -2  -1  -7    9.48    1.28
  -2  -1  -7    9.58    1.44
  -2  -1  -7    8.30    1.46
  -2  -1  -7    7.42    1.08
  -2  -1  -7    7.42    1.08
  -2  -1  -7   11.10    1.48
  -2  -1  -7    9.58    1.44
   2   1   7    8.04    1.48
   2   1   7    8.81    1.23
   2   1   7    7.70    1.24
   2   1   7    8.25    1.42
   2   1   7    8.81    1.23
   2   1   7    8.25    1.42
   2   1   7   10.55    1.66
   2   1   7   10.54    1.66
  -3  -1  -7   96.24    3.76
  -3  -1  -7   98.49    3.72
  -3  -1  -7   97.26    3.21
  -3  -1  -7  100.68    3.49
  -3  -1  -7   97.26    3.21
  -3  -1  -7   98.49    3.72
  -3  -1  -7   96.24    3.75
   3   1   7  107.57    3.84
   3   1   7  107.57    3.84
   3   1   7   96.78    3.33
   3   1   7   98.94    3.94
   3   1   7  100.79    3.48
   3   1   7   96.78    3.33
  -4  -1  -7   29.88    2.44
  -4  -1  -7   29.88    2.44
  -4  -1  -7   33.66    2.39
  -4  -1  -7   23.72    2.69
  -4  -1  -7   30.42    2.61
  -4  -1  -7   33.66    2.39
   4   1   7   35.35    3.01
   4   1   7   35.35    3.01
   4   1   7   32.29    2.29
   4   1   7   32.29    2.29
   4   1   7   35.95    3.19
   4   1   7   27.06    3.30
   4   1   7   35.95    3.19
   4   1   7   36.08    3.25
  -5  -1  -7   28.22    2.81
  -5  -1  -7   25.40    2.66
  -5  -1  -7   28.18    3.19
  -5  -1  -7   22.60    2.49
  -5  -1  -7   28.71    3.30
  -5  -1  -7   22.60    2.49
  -5  -1  -7   28.19    2.80
   5   1   7   24.97    2.55
   5   1   7   31.70    2.32
   5   1   7   31.70    2.32
   5   1   7   25.94    3.07
   5   1   7   25.94    3.07
   5   1   7   22.03    3.22
  -6  -1  -7   18.73    2.81
  -6  -1  -7   18.73    2.81
  -6  -1  -7   15.52    3.69
  -6  -1  -7   18.96    2.99
  -6  -1  -7   12.70    3.76
  -6  -1  -7   15.52    3.69
  -6  -1  -7   14.59    3.37
  -6  -1  -7   13.05    3.58
  -6  -1  -7   14.61    3.37
   6   1   7   14.34    2.68
   6   1   7   17.60    4.02
   6   1   7   17.60    4.02
   6   1   7   16.18    3.57
   6   1   7   14.34    2.68
   6   1   7   20.48    3.68
   6   1   7   14.87    2.80
   6   1   7   16.18    3.57
   5  -2  -7   10.22    2.42
   5  -2  -7   14.85    3.37
   5  -2  -7    6.86    2.92
   5  -2  -7   13.46    3.36
   5  -2  -7   16.38    4.14
   5  -2  -7   10.22    2.42
   5  -2  -7   14.87    3.52
   5  -2  -7   16.38    4.14
   5  -2  -7   13.46    3.36
  -5   2   7    9.87    3.09
  -5   2   7    7.20    3.30
  -5   2   7    7.20    3.30
  -5   2   7    8.45    3.79
  -5   2   7    8.68    3.41
  -5   2   7    8.45    3.79
   4  -2  -7   10.50    1.95
   4  -2  -7    4.10    2.87
   4  -2  -7   10.85    2.29
   4  -2  -7   10.85    2.20
   4  -2  -7    9.96    2.56
   4  -2  -7   10.50    1.95
   4  -2  -7    9.96    2.56
   4  -2  -7    7.94    2.30
   4  -2  -7    4.10    2.87
  -4   2   7   11.99    2.82
  -4   2   7    4.42    2.51
  -4   2   7    9.98    2.26
  -4   2   7    8.11    2.30
  -4   2   7    8.11    2.30
  -4   2   7    4.42    2.51
   3  -2  -7   14.65    1.61
   3  -2  -7   18.49    2.12
   3  -2  -7   15.30    2.07
   3  -2  -7   14.26    2.53
   3  -2  -7   16.25    1.83
   3  -2  -7   16.08    1.65
   3  -2  -7   15.30    2.07
   3  -2  -7   16.10    1.66
   3  -2  -7   16.25    1.83
   3  -2  -7   14.20    2.42
  -3   2   7   13.64    1.71
  -3   2   7   14.67    2.04
  -3   2   7   13.64    1.71
  -3   2   7   14.16    2.35
   2  -2  -7  154.06    6.17
   2  -2  -7  181.93    5.54
   2  -2  -7  154.06    6.17
   2  -2  -7  192.44    5.01
   2  -2  -7  182.58    5.19
   2  -2  -7  181.37    5.40
   2  -2  -7  182.58    5.19
  -2   2   7  187.35    5.00
  -2   2   7  180.99    5.10
  -2   2   7  172.01    5.14
  -2   2   7  187.35    5.00
  -2   2   7  178.43    5.74
  -2   2   7  172.01    5.14
  -2   2   7  184.13    5.47
  -2   2   7  178.43    5.74
   1  -2  -7   46.22    2.43
   1  -2  -7   46.81    1.96
   1  -2  -7   47.24    2.02
   1  -2  -7   46.81    1.96
   1  -2  -7   46.22    2.43
  -1   2   7   45.63    2.04
  -1   2   7   44.85    2.11
  -1   2   7   43.84    2.21
  -1   2   7   51.61    2.20
  -1   2   7   39.73    2.94
  -1   2   7   45.63    2.04
  -1   2   7   44.85    2.11
  -1   2   7   39.73    2.94
  -1   2   7   46.62    2.25
  -1   2   7   51.61    2.20
   0  -2  -7  132.35    3.84
   0  -2  -7  134.20    3.71
   0  -2  -7  134.55    3.78
   0  -2  -7  131.69    3.94
   0  -2  -7  132.35    3.84
   0  -2  -7  134.20    3.71
   0   2   7  143.03    3.98
   0   2   7  136.79    3.72
   0   2   7  129.96    3.72
   0   2   7  137.26    3.76
   0   2   7  130.18    3.69
   0   2   7  137.26    3.76
   0   2   7  129.96    3.72
   0   2   7  136.79    3.72
  -1  -2  -7   10.11    1.32
  -1  -2  -7   10.82    1.22
  -1  -2  -7   10.12    1.32
  -1  -2  -7    9.60    1.17
  -1  -2  -7    9.60    1.17
  -1  -2  -7   10.53    1.17
  -1  -2  -7   10.53    1.17
  -1  -2  -7   10.14    1.20
   1   2   7    8.42    1.31
   1   2   7   10.75    1.19
   1   2   7    8.77    1.13
   1   2   7   11.21    1.20
   1   2   7    8.42    1.31
   1   2   7    8.77    1.13
   1   2   7   11.21    1.20
   1   2   7    9.09    1.19
  -2  -2  -7   50.94    2.24
  -2  -2  -7   49.23    2.24
  -2  -2  -7   46.67    2.13
  -2  -2  -7   45.44    2.07
  -2  -2  -7   50.94    2.24
  -2  -2  -7   50.62    2.33
  -2  -2  -7   46.67    2.13
  -2  -2  -7   45.44    2.07
   2   2   7   51.60    2.14
   2   2   7   54.44    2.32
   2   2   7   43.40    1.99
   2   2   7   43.40    1.99
   2   2   7   54.44    2.32
   2   2   7   53.88    2.70
   2   2   7   53.89    2.70
   2   2   7   49.81    2.32
  -3  -2  -7   88.41    2.98
  -3  -2  -7   81.72    3.40
  -3  -2  -7   81.71    3.40
  -3  -2  -7   80.61    3.29
  -3  -2  -7   80.61    3.29
  -3  -2  -7   88.41    2.98
  -3  -2  -7   88.30    3.04
   3   2   7   84.84    3.43
   3   2   7   87.91    3.29
   3   2   7   82.54    2.92
   3   2   7   81.11    3.03
   3   2   7   87.91    3.29
   3   2   7   82.54    2.92
  -4  -2  -7   41.91    2.42
  -4  -2  -7   36.53    2.92
  -4  -2  -7   41.91    2.42
  -4  -2  -7   41.95    2.89
  -4  -2  -7   42.56    2.66
  -4  -2  -7   41.95    2.89
  -4  -2  -7   37.97    2.50
  -4  -2  -7   42.56    2.67
   4   2   7   42.33    2.38
   4   2   7   44.77    2.99
   4   2   7   37.96    2.58
   4   2   7   44.77    2.99
   4   2   7   42.33    2.38
   4   2   7   45.29    3.04
   4   2   7   41.20    3.34
   4   2   7   41.20    3.34
  -5  -2  -7    7.54    2.38
  -5  -2  -7    3.90    1.36
  -5  -2  -7    7.96    2.37
  -5  -2  -7    5.17    1.90
  -5  -2  -7    7.54    2.38
  -5  -2  -7    3.90    1.36
  -5  -2  -7    7.98    2.45
   5   2   7    3.04    1.68
   5   2   7    8.21    2.31
   5   2   7    8.21    2.31
   5   2   7    3.04    1.68
   5   2   7    4.88    2.41
   5   2   7    6.80    1.77
  -6  -2  -7   16.69    3.21
  -6  -2  -7   22.63    3.62
  -6  -2  -7    9.61    3.35
  -6  -2  -7   25.26    2.83
  -6  -2  -7   16.59    2.84
  -6  -2  -7   16.69    3.21
  -6  -2  -7    9.61    3.35
  -6  -2  -7   21.84    3.45
  -6  -2  -7   25.26    2.83
   6   2   7   21.26    3.33
   6   2   7   17.84    3.34
   6   2   7   13.64    3.34
   6   2   7   26.42    2.87
   6   2   7   13.64    3.34
   6   2   7   21.26    3.33
   6   2   7   16.12    2.48
   6   2   7   16.12    2.48
   5  -3  -7    8.13    4.09
   5  -3  -7    2.50    3.41
   5  -3  -7   -0.17    2.54
   5  -3  -7   -0.17    2.68
   5  -3  -7   -1.24    2.15
   5  -3  -7   -1.24    2.15
   5  -3  -7   -2.55    2.88
   5  -3  -7    2.50    3.41
   5  -3  -7    8.13    4.09
  -5   3   7   -0.63    2.33
  -5   3   7    2.06    3.49
  -5   3   7   -3.86    3.44
  -5   3   7   -3.86    3.44
  -5   3   7   -0.63    2.33
  -5   3   7   -0.39    3.36
  -5   3   7    2.06    3.49
   4  -3  -7   12.92    3.46
   4  -3  -7    4.98    2.31
   4  -3  -7    9.92    2.75
   4  -3  -7    4.98    2.31
   4  -3  -7    7.75    2.46
   4  -3  -7   12.92    3.46
   4  -3  -7    9.92    2.75
   4  -3  -7    6.46    2.60
   4  -3  -7    6.50    2.72
  -4   3   7    7.59    2.37
  -4   3   7    7.59    2.37
  -4   3   7   11.35    2.37
  -4   3   7   13.38    3.05
  -4   3   7   10.02    3.15
  -4   3   7   10.02    3.15
   3  -3  -7   17.46    2.16
   3  -3  -7   15.60    1.91
   3  -3  -7   13.15    2.39
   3  -3  -7   13.15    2.39
   3  -3  -7   15.79    2.56
   3  -3  -7   15.73    2.45
   3  -3  -7   12.50    1.60
   3  -3  -7   13.72    1.63
   3  -3  -7   13.72    1.63
   3  -3  -7   17.46    2.16
  -3   3   7   15.01    3.40
  -3   3   7   14.64    2.11
  -3   3   7   10.22    2.46
  -3   3   7   15.01    3.40
  -3   3   7   14.64    2.11
  -3   3   7   12.79    2.08
   2  -3  -7   65.46    2.59
   2  -3  -7   61.56    2.96
   2  -3  -7   60.99    2.90
   2  -3  -7   59.39    2.93
   2  -3  -7   61.56    2.96
   2  -3  -7   59.44    3.27
   2  -3  -7   60.88    2.65
   2  -3  -7   65.46    2.59
   2  -3  -7   60.99    2.90
   2  -3  -7   59.45    3.38
  -2   3   7   56.83    3.20
  -2   3   7   62.84    2.97
  -2   3   7   65.90    2.85
  -2   3   7   62.10    3.78
  -2   3   7   62.10    3.78
  -2   3   7   65.90    2.85
  -2   3   7   56.83    3.20
  -2   3   7   60.18    3.33
   1  -3  -7   87.38    3.02
   1  -3  -7   84.28    3.29
   1  -3  -7   84.16    3.39
   1  -3  -7   84.35    3.48
   1  -3  -7   86.47    3.31
   1  -3  -7   91.10    2.96
   1  -3  -7   91.10    2.96
   1  -3  -7   82.53    3.53
   1  -3  -7   86.47    3.31
   1  -3  -7   82.52    3.53
  -1   3   7   87.61    3.06
  -1   3   7   85.81    2.80
  -1   3   7   85.24    3.85
  -1   3   7   85.24    3.85
  -1   3   7   85.81    2.80
  -1   3   7   80.82    2.99
  -1   3   7   80.82    2.99
  -1   3   7   82.57    3.25
   0  -3  -7   84.94    2.72
   0  -3  -7   84.94    2.72
   0  -3  -7   82.41    2.77
   0   3   7   84.86    2.94
   0   3   7   86.74    2.82
   0   3   7   84.80    2.93
   0   3   7   92.01    2.81
   0   3   7   83.36    2.88
   0   3   7   92.01    2.81
   0   3   7   83.36    2.88
   0   3   7   84.53    2.91
  -1  -3  -7    3.20    0.97
  -1  -3  -7    3.91    1.04
  -1  -3  -7    3.20    0.97
  -1  -3  -7    2.69    0.89
  -1  -3  -7    2.53    0.88
  -1  -3  -7    2.53    0.88
   1   3   7    4.40    1.19
   1   3   7    4.40    1.19
   1   3   7    1.88    0.88
   1   3   7    1.88    0.88
   1   3   7    3.46    0.90
   1   3   7    3.46    0.90
   1   3   7    2.93    0.95
   1   3   7    3.60    0.92
  -2  -3  -7   40.57    2.01
  -2  -3  -7   41.68    1.92
  -2  -3  -7   36.65    1.88
  -2  -3  -7   36.65    1.88
  -2  -3  -7   38.09    1.80
  -2  -3  -7   40.57    2.01
  -2  -3  -7   38.09    1.80
  -2  -3  -7   39.86    1.98
   2   3   7   41.30    2.44
   2   3   7   40.85    1.93
   2   3   7   39.26    1.90
   2   3   7   43.42    2.00
   2   3   7   40.00    2.00
   2   3   7   41.30    2.45
   2   3   7   39.26    1.90
   2   3   7   43.42    2.00
  -3  -3  -7  176.96    5.13
  -3  -3  -7  176.97    5.13
  -3  -3  -7  173.37    5.34
  -3  -3  -7  173.37    5.34
  -3  -3  -7  178.43    4.65
  -3  -3  -7  167.52    5.00
  -3  -3  -7  178.99    4.56
  -3  -3  -7  178.99    4.56
   3   3   7  181.42    4.89
   3   3   7  175.53    4.62
   3   3   7  177.29    4.54
   3   3   7  156.43    5.95
   3   3   7  156.41    5.96
   3   3   7  177.29    4.54
   3   3   7  181.42    4.89
   3   3   7  179.84    4.95
  -4  -3  -7    4.27    1.47
  -4  -3  -7    3.28    1.35
  -4  -3  -7    1.14    1.51
  -4  -3  -7    1.14    1.51
  -4  -3  -7    4.27    1.47
  -4  -3  -7    2.70    1.21
  -4  -3  -7    2.70    1.21
  -4  -3  -7    4.03    1.54
   4   3   7    3.18    1.26
   4   3   7    6.37    2.15
   4   3   7    3.77    1.58
   4   3   7    3.77    1.58
   4   3   7    3.23    1.62
   4   3   7    6.37    2.15
  -5  -3  -7    1.36    1.43
  -5  -3  -7    1.11    1.69
  -5  -3  -7    2.84    1.63
  -5  -3  -7    2.84    1.64
  -5  -3  -7    1.36    1.43
   5   3   7    0.54    1.95
   5   3   7    4.13    1.57
   5   3   7    0.07    2.00
   5   3   7    0.54    1.95
   5   3   7    0.48    1.37
   5   3   7    0.48    1.37
  -6  -3  -7    9.68    2.08
  -6  -3  -7    9.98    2.82
  -6  -3  -7   10.40    2.37
  -6  -3  -7   10.45    2.54
  -6  -3  -7   12.01    2.94
  -6  -3  -7   10.45    2.54
  -6  -3  -7   12.53    3.08
  -6  -3  -7    9.68    2.08
  -6  -3  -7    9.98    2.82
   6   3   7   11.33    3.09
   6   3   7    7.71    3.15
   6   3   7    7.89    3.85
   6   3   7    7.89    3.85
   6   3   7    7.21    2.08
   6   3   7    7.21    2.08
   6   3   7    7.71    3.15
   6   3   7   10.27    2.26
   4  -4  -7    2.33    2.40
   4  -4  -7    1.03    2.48
   4  -4  -7    7.20    2.60
   4  -4  -7    2.35    2.53
   4  -4  -7    7.35    2.82
   4  -4  -7    7.35    2.82
   4  -4  -7    7.20    2.60
  -4   4   7    3.42    2.34
  -4   4   7    1.33    2.94
  -4   4   7    5.97    3.06
  -4   4   7   -3.05    2.84
  -4   4   7    5.97    3.06
  -4   4   7    3.42    2.34
  -4   4   7    1.33    2.94
   3  -4  -7   63.21    4.03
   3  -4  -7   68.93    4.21
   3  -4  -7   68.82    4.36
   3  -4  -7   63.21    4.03
   3  -4  -7   66.14    3.63
  -3   4   7   67.86    4.33
  -3   4   7   67.86    4.33
  -3   4   7   68.51    4.13
  -3   4   7   65.80    3.51
  -3   4   7   65.02    3.67
  -3   4   7   65.80    3.51
   2  -4  -7   23.82    2.08
   2  -4  -7   19.17    2.48
   2  -4  -7   23.13    2.36
   2  -4  -7   25.60    2.26
   2  -4  -7   26.21    2.27
   2  -4  -7   23.13    2.36
   2  -4  -7   25.60    2.26
   2  -4  -7   19.08    2.38
   2  -4  -7   23.82    2.08
   2  -4  -7   20.83    2.06
  -2   4   7   20.24    2.60
  -2   4   7   17.01    2.77
  -2   4   7   21.69    2.48
  -2   4   7   17.01    2.77
  -2   4   7   20.24    2.60
  -2   4   7   21.52    2.15
  -2   4   7   25.69    2.22
  -2   4   7   25.69    2.22
   1  -4  -7   12.91    1.77
   1  -4  -7   17.05    1.99
   1  -4  -7   15.95    2.03
   1  -4  -7   12.91    1.77
   1  -4  -7   15.95    2.03
   1  -4  -7   17.74    1.62
   1  -4  -7   18.05    1.98
   1  -4  -7   17.74    1.62
   1  -4  -7   18.12    2.07
  -1   4   7   14.13    2.17
  -1   4   7   18.49    1.62
  -1   4   7   16.58    1.68
  -1   4   7   14.36    1.80
  -1   4   7   14.13    2.17
  -1   4   7   18.49    1.62
  -1   4   7   15.14    1.86
  -1   4   7   15.14    1.86
   0  -4  -7   41.28    2.19
   0  -4  -7   41.28    2.19
   0  -4  -7   41.23    2.40
   0  -4  -7   40.69    2.67
   0  -4  -7   38.00    1.97
   0  -4  -7   41.72    1.87
   0  -4  -7   35.22    2.62
   0  -4  -7   35.22    2.62
   0  -4  -7   41.01    2.30
   0  -4  -7   41.72    1.87
   0   4   7   37.20    2.06
   0   4   7   40.59    1.88
   0   4   7   39.15    2.02
   0   4   7   38.70    2.24
   0   4   7   40.59    1.88
   0   4   7   41.23    1.98
   0   4   7   37.20    2.06
   0   4   7   41.10    2.19
  -1  -4  -7   49.35    2.95
  -1  -4  -7   54.37    2.02
  -1  -4  -7   54.37    3.04
  -1  -4  -7   49.98    2.08
  -1  -4  -7   55.21    2.12
  -1  -4  -7   54.38    3.04
  -1  -4  -7   54.37    2.02
  -1  -4  -7   49.98    2.08
   1   4   7   52.14    2.20
   1   4   7   53.71    2.57
   1   4   7   55.09    2.12
   1   4   7   53.70    2.57
   1   4   7   52.14    2.20
   1   4   7   55.75    2.19
   1   4   7   55.09    2.12
   1   4   7   52.11    2.21
  -2  -4  -7   51.28    2.01
  -2  -4  -7   50.46    2.07
  -2  -4  -7   55.25    2.18
  -2  -4  -7   48.44    3.10
  -2  -4  -7   50.67    2.55
  -2  -4  -7   53.22    3.21
  -2  -4  -7   53.20    3.21
  -2  -4  -7   50.67    2.55
  -2  -4  -7   55.25    2.18
  -2  -4  -7   53.95    2.17
  -2  -4  -7   51.28    2.01
   2   4   7   51.50    2.06
   2   4   7   55.02    2.76
   2   4   7   51.50    2.06
   2   4   7   52.14    2.07
   2   4   7   55.02    2.76
   2   4   7   53.39    2.24
   2   4   7   51.94    2.02
   2   4   7   52.14    2.07
  -3  -4  -7   31.92    1.82
  -3  -4  -7   35.98    1.99
  -3  -4  -7   31.51    2.88
  -3  -4  -7   32.76    2.47
  -3  -4  -7   36.47    1.85
  -3  -4  -7   31.52    2.88
  -3  -4  -7   35.98    1.99
  -3  -4  -7   32.77    2.47
  -3  -4  -7   37.44    2.98
  -3  -4  -7   32.42    2.10
  -3  -4  -7   31.92    1.82
   3   4   7   36.38    1.71
   3   4   7   34.32    2.17
   3   4   7   36.38    1.71
   3   4   7   35.72    2.72
   3   4   7   34.94    1.92
   3   4   7   34.65    3.27
   3   4   7   34.32    2.17
   3   4   7   35.72    2.72
  -4  -4  -7   73.51    2.80
  -4  -4  -7   73.05    3.29
  -4  -4  -7   75.18    2.75
  -4  -4  -7   71.87    3.94
  -4  -4  -7   69.02    3.42
  -4  -4  -7   69.00    4.01
  -4  -4  -7   69.02    3.42
  -4  -4  -7   73.51    2.80
  -4  -4  -7   77.05    3.14
  -4  -4  -7   77.05    3.14
  -4  -4  -7   69.00    4.00
   4   4   7   67.53    3.95
   4   4   7   72.13    3.96
   4   4   7   75.72    3.31
   4   4   7   76.72    2.85
   4   4   7   72.13    3.96
   4   4   7   75.72    3.31
   4   4   7   67.52    3.95
   4   4   7   68.56    3.29
   4   4   7   70.95    2.61
   4   4   7   70.95    2.61
  -5  -4  -7   -0.54    1.89
  -5  -4  -7    5.13    2.21
  -5  -4  -7   -0.54    1.89
  -5  -4  -7    0.30    2.21
  -5  -4  -7    2.06    2.13
  -5  -4  -7    0.30    2.21
  -5  -4  -7    1.32    1.61
  -5  -4  -7    2.06    2.13
  -5  -4  -7    1.32    1.61
   5   4   7    3.52    2.06
   5   4   7    0.18    1.35
   5   4   7    2.79    2.15
   5   4   7    1.25    1.36
   5   4   7    2.79    2.15
   5   4   7    1.25    1.36
  -6  -4  -7   22.59    3.25
  -6  -4  -7   28.90    3.54
  -6  -4  -7   32.96    2.78
  -6  -4  -7   27.66    3.28
  -6  -4  -7   24.52    3.41
  -6  -4  -7   28.90    3.54
  -6  -4  -7   27.65    3.28
  -6  -4  -7   24.48    3.41
  -6  -4  -7   22.60    3.12
  -6  -4  -7   24.51    3.41
  -6  -4  -7   32.96    2.78
   6   4   7   24.96    2.40
   6   4   7   23.54    3.29
   6   4   7   23.54    3.29
   6   4   7   36.48    2.85
   6   4   7   32.49    4.29
   6   4   7   24.96    2.40
   6   4   7   32.49    4.29
   6   4   7   26.20    3.24
   4  -5  -7   31.80    3.62
   4  -5  -7   33.13    3.77
   4  -5  -7   33.59    3.91
   4  -5  -7   31.80    3.62
   4  -5  -7   22.43    3.72
   4  -5  -7   33.75    4.09
   4  -5  -7   22.43    3.72
  -4   5   7   30.50    4.00
  -4   5   7   32.90    3.53
  -4   5   7   24.43    3.84
  -4   5   7   24.43    3.84
  -4   5   7   30.50    4.00
  -4   5   7   37.67    4.17
  -4   5   7   32.90    3.53
   3  -5  -7   78.59    4.60
   3  -5  -7   57.74    4.24
   3  -5  -7   78.43    4.76
   3  -5  -7   69.13    3.89
   3  -5  -7   57.74    4.24
  -3   5   7   69.17    4.48
  -3   5   7   68.69    4.33
  -3   5   7   65.85    4.33
  -3   5   7   69.17    4.48
  -3   5   7   68.69    4.33
   2  -5  -7   12.83    2.30
   2  -5  -7   11.65    2.16
   2  -5  -7    7.19    2.07
   2  -5  -7   11.65    2.16
   2  -5  -7   12.86    2.40
   2  -5  -7   11.02    1.91
   2  -5  -7    7.19    2.07
  -2   5   7    8.07    2.15
  -2   5   7    9.38    2.26
  -2   5   7   10.91    2.28
  -2   5   7    9.00    1.87
  -2   5   7    9.38    2.26
  -2   5   7   10.91    2.28
   1  -5  -7    6.29    1.71
   1  -5  -7    8.54    1.94
   1  -5  -7    8.49    1.86
   1  -5  -7    6.29    1.71
   1  -5  -7    8.25    1.93
   1  -5  -7    7.78    1.41
   1  -5  -7    8.25    1.93
   1  -5  -7    8.81    1.50
   1  -5  -7    7.78    1.41
   1  -5  -7   11.01    1.87
  -1   5   7    7.50    1.73
  -1   5   7   10.66    1.52
  -1   5   7    7.50    1.73
  -1   5   7    8.49    1.92
  -1   5   7   11.00    1.58
  -1   5   7    8.49    1.92
  -1   5   7   10.20    1.89
  -1   5   7   10.66    1.52
   0  -5  -7  127.73    3.62
   0  -5  -7  120.59    4.47
   0  -5  -7  128.13    3.90
   0  -5  -7  128.13    3.90
   0  -5  -7  126.34    3.61
   0  -5  -7  127.73    3.62
   0  -5  -7  125.73    4.57
   0  -5  -7  125.72    4.57
   0   5   7  126.54    3.69
   0   5   7  125.92    3.88
   0   5   7  125.05    3.52
   0   5   7  125.92    3.88
   0   5   7  125.05    3.52
   0   5   7  119.02    3.90
   0   5   7  119.19    4.62
   0   5   7  119.17    4.62
  -1  -5  -7   28.83    2.69
  -1  -5  -7   25.00    1.47
  -1  -5  -7   25.00    1.47
  -1  -5  -7   24.13    1.72
  -1  -5  -7   23.46    1.79
  -1  -5  -7   22.76    2.53
  -1  -5  -7   22.34    2.34
  -1  -5  -7   28.82    2.69
  -1  -5  -7   23.46    1.79
  -1  -5  -7   24.35    1.80
   1   5   7   25.08    1.56
   1   5   7   23.84    2.22
   1   5   7   20.83    1.56
   1   5   7   23.85    2.22
   1   5   7   20.83    1.56
   1   5   7   25.08    1.56
   1   5   7   22.31    1.57
   1   5   7   21.31    1.75
  -2  -5  -7    8.13    1.78
  -2  -5  -7    8.52    0.98
  -2  -5  -7    8.42    1.11
  -2  -5  -7    8.52    0.98
  -2  -5  -7    8.12    1.77
  -2  -5  -7    9.56    1.06
  -2  -5  -7    9.14    1.76
  -2  -5  -7    9.56    1.06
   2   5   7    8.77    1.07
   2   5   7    8.72    1.08
   2   5   7    8.77    1.07
   2   5   7    9.86    1.45
   2   5   7    9.86    1.44
   2   5   7    6.97    1.04
   2   5   7    7.99    1.10
   2   5   7    8.72    1.08
  -3  -5  -7   26.21    1.59
  -3  -5  -7   26.83    2.43
  -3  -5  -7   24.78    1.58
  -3  -5  -7   25.35    2.82
  -3  -5  -7   26.84    2.43
  -3  -5  -7   26.21    1.59
  -3  -5  -7   26.89    1.90
  -3  -5  -7   23.68    1.77
  -3  -5  -7   25.35    2.82
  -3  -5  -7   27.37    2.86
  -3  -5  -7   23.68    1.77
   3   5   7   24.17    2.19
   3   5   7   23.95    1.50
   3   5   7   25.81    1.77
   3   5   7   25.81    1.77
   3   5   7   23.95    1.50
   3   5   7   24.17    2.19
   3   5   7   23.64    1.58
   3   5   7   23.71    1.81
  -4  -5  -7   30.02    3.23
  -4  -5  -7   27.16    2.28
  -4  -5  -7   25.93    1.83
  -4  -5  -7   27.16    2.28
  -4  -5  -7   27.57    2.52
  -4  -5  -7   27.56    2.51
  -4  -5  -7   24.01    2.99
  -4  -5  -7   26.74    2.25
  -4  -5  -7   22.93    1.73
  -4  -5  -7   30.03    3.23
  -4  -5  -7   22.93    1.73
   4   5   7   26.01    1.83
   4   5   7   28.53    2.36
   4   5   7   28.25    2.27
   4   5   7   27.42    1.80
   4   5   7   26.01    1.83
   4   5   7   28.25    2.27
   4   5   7   24.22    2.82
   4   5   7   26.88    2.64
   4   5   7   26.88    2.64
   4   5   7   24.22    2.82
  -5  -5  -7   19.74    2.48
  -5  -5  -7   23.84    3.01
  -5  -5  -7   23.00    1.88
  -5  -5  -7   26.22    2.72
  -5  -5  -7   23.84    3.01
  -5  -5  -7   26.32    3.05
  -5  -5  -7   20.24    1.75
  -5  -5  -7   20.24    1.75
  -5  -5  -7   19.74    2.48
  -5  -5  -7   26.22    2.72
   5   5   7   23.82    2.48
   5   5   7   18.88    3.34
   5   5   7   23.42    2.04
   5   5   7   23.42    2.04
   5   5   7   23.78    2.13
   5   5   7   18.88    3.33
   5   5   7   23.82    2.48
   5   5   7   24.61    2.54
  -6  -5  -7   47.82    3.51
  -6  -5  -7   50.69    3.97
  -6  -5  -7   56.25    2.94
  -6  -5  -7   50.85    3.12
  -6  -5  -7   46.80    4.07
  -6  -5  -7   47.82    3.51
  -6  -5  -7   49.70    3.85
  -6  -5  -7   56.25    2.94
  -6  -5  -7   50.55    4.11
  -6  -5  -7   46.80    4.07
  -6  -5  -7   53.54    4.45
  -6  -5  -7   49.70    3.85
   6   5   7   52.94    4.15
   6   5   7   49.84    3.07
   6   5   7   44.68    4.61
   6   5   7   47.65    4.00
   6   5   7   47.65    4.00
   6   5   7   44.68    4.61
   6   5   7   45.66    2.87
   6   5   7   49.84    3.07
   3  -6  -7   16.26    3.52
   3  -6  -7   13.00    2.79
   3  -6  -7   13.60    2.42
   3  -6  -7   16.18    3.37
   3  -6  -7    6.93    2.91
   3  -6  -7    6.93    2.91
   3  -6  -7   13.60    2.42
  -3   6   7   24.69    3.43
  -3   6   7   24.69    3.43
  -3   6   7   15.32    3.20
  -3   6   7   12.22    2.56
  -3   6   7   15.32    3.20
  -3   6   7   20.24    3.23
  -3   6   7   12.22    2.56
   2  -6  -7   30.25    3.06
   2  -6  -7   40.77    3.55
   2  -6  -7   30.25    3.06
   2  -6  -7   40.87    3.70
   2  -6  -7   32.39    2.91
  -2   6   7   36.30    3.19
  -2   6   7   35.51    3.18
  -2   6   7   30.23    3.13
  -2   6   7   30.23    3.13
  -2   6   7   36.30    3.19
   1  -6  -7   29.32    2.78
   1  -6  -7   28.69    2.79
   1  -6  -7   29.67    2.21
   1  -6  -7   29.12    2.66
   1  -6  -7   29.67    2.21
   1  -6  -7   25.61    2.43
   1  -6  -7   28.69    2.79
   1  -6  -7   25.61    2.43
   1  -6  -7   33.80    2.84
  -1   6   7   33.36    2.96
  -1   6   7   33.56    2.41
  -1   6   7   33.36    2.96
  -1   6   7   29.72    2.64
  -1   6   7   29.72    2.64
  -1   6   7   33.56    2.41
  -1   6   7   30.40    2.52
  -1   6   7   31.27    2.75
   0  -6  -7   13.46    2.37
   0  -6  -7   13.43    1.32
   0  -6  -7   12.65    1.75
   0  -6  -7   13.04    1.45
   0  -6  -7   13.46    2.37
   0  -6  -7   13.04    1.45
   0  -6  -7   13.39    2.36
   0  -6  -7   14.10    1.89
   0  -6  -7   12.60    1.67
   0  -6  -7   14.10    1.89
   0   6   7   12.69    1.72
   0   6   7   12.69    1.72
   0   6   7   12.08    1.70
   0   6   7   13.77    1.34
   0   6   7   12.08    1.70
   0   6   7   13.77    1.34
  -1  -6  -7   93.00    3.18
  -1  -6  -7  100.12    3.33
  -1  -6  -7   98.49    2.90
  -1  -6  -7   98.49    2.90
  -1  -6  -7  100.52    3.25
  -1  -6  -7   93.00    3.18
  -1  -6  -7  102.38    4.07
  -1  -6  -7   95.49    4.02
  -1  -6  -7  101.29    2.95
  -1  -6  -7   95.49    4.02
   1   6   7   99.44    2.86
   1   6   7   99.44    2.86
   1   6   7  106.60    3.85
   1   6   7   97.27    3.18
   1   6   7   97.44    2.98
   1   6   7  100.20    3.27
   1   6   7  106.59    3.85
   1   6   7   97.27    3.18
  -2  -6  -7    7.47    1.04
  -2  -6  -7    5.70    2.21
  -2  -6  -7    5.84    0.94
  -2  -6  -7    6.53    1.13
  -2  -6  -7    7.47    1.04
  -2  -6  -7    7.90    1.21
  -2  -6  -7    7.78    1.15
  -2  -6  -7    5.70    2.21
  -2  -6  -7    9.59    2.29
  -2  -6  -7    6.53    1.13
   2   6   7    7.60    1.78
   2   6   7    7.42    1.06
   2   6   7    7.33    0.98
   2   6   7    9.06    1.18
   2   6   7    7.79    1.07
   2   6   7    7.42    1.06
   2   6   7    7.60    1.78
   2   6   7    7.33    0.98
  -3  -6  -7   23.68    2.85
  -3  -6  -7   23.55    1.73
  -3  -6  -7   25.02    1.64
  -3  -6  -7   26.50    1.61
  -3  -6  -7   25.02    1.64
  -3  -6  -7   20.58    2.84
  -3  -6  -7   20.60    2.84
   3   6   7   22.74    1.48
   3   6   7   20.39    2.41
   3   6   7   26.47    1.87
   3   6   7   25.48    1.75
   3   6   7   22.74    1.48
   3   6   7   25.31    1.83
   3   6   7   25.48    1.75
   3   6   7   20.39    2.41
  -4  -6  -7   14.83    2.16
  -4  -6  -7   13.20    2.61
  -4  -6  -7   13.29    2.57
  -4  -6  -7   14.82    2.16
  -4  -6  -7   15.13    1.32
  -4  -6  -7   18.10    1.49
  -4  -6  -7   14.74    1.68
  -4  -6  -7   17.37    1.70
  -4  -6  -7   13.23    2.62
  -4  -6  -7   18.10    1.49
  -4  -6  -7   14.74    1.68
   4   6   7   16.18    1.32
   4   6   7   14.21    1.63
   4   6   7   16.18    1.32
   4   6   7   17.49    2.27
   4   6   7   14.21    1.63
   4   6   7   13.05    2.68
   4   6   7   15.43    1.70
   4   6   7   13.05    2.68
   4   6   7   17.50    2.28
   4   6   7   14.83    1.33
  -5  -6  -7    3.76    1.33
  -5  -6  -7    3.23    1.25
  -5  -6  -7    0.84    1.88
  -5  -6  -7    3.97    1.73
  -5  -6  -7    3.97    1.73
  -5  -6  -7    3.76    1.33
  -5  -6  -7    3.13    2.58
  -5  -6  -7    0.84    1.88
  -5  -6  -7    7.05    2.82
  -5  -6  -7    7.05    2.82
   5   6   7    2.96    1.18
   5   6   7    3.74    2.96
   5   6   7    0.20    1.66
   5   6   7    3.74    2.96
   5   6   7    2.96    1.18
   5   6   7    2.53    2.18
   5   6   7    2.25    1.21
   5   6   7    2.45    1.78
   5   6   7    2.53    2.18
   5   6   7    0.20    1.66
  -6  -6  -7    9.94    2.47
  -6  -6  -7    9.85    2.35
  -6  -6  -7    9.49    2.42
  -6  -6  -7    5.54    3.11
  -6  -6  -7    5.54    3.11
  -6  -6  -7    9.49    2.42
  -6  -6  -7   15.07    1.89
  -6  -6  -7   19.19    3.34
  -6  -6  -7   15.07    1.89
  -6  -6  -7   12.56    1.84
   6   6   7   13.51    2.54
   6   6   7    9.88    2.32
   6   6   7   12.01    1.77
   6   6   7    3.08    4.05
   6   6   7   11.20    1.88
   6   6   7   12.01    1.77
   6   6   7    3.08    4.05
   6   6   7    9.88    2.32
   3  -7  -7   20.96    3.31
   3  -7  -7   20.63    3.09
   3  -7  -7   29.21    3.72
   3  -7  -7   29.21    3.72
   3  -7  -7   26.85    4.01
   3  -7  -7   26.86    3.82
   3  -7  -7   20.63    3.09
  -3   7   7   18.75    3.64
  -3   7   7   18.75    3.64
  -3   7   7   19.07    3.08
  -3   7   7   17.44    3.66
  -3   7   7   19.00    3.44
  -3   7   7   19.00    3.44
  -3   7   7   19.07    3.08
   2  -7  -7   24.98    2.67
   2  -7  -7   20.26    3.22
   2  -7  -7   24.98    2.67
   2  -7  -7   28.80    2.80
   2  -7  -7   20.37    3.37
   2  -7  -7   23.40    3.09
   2  -7  -7   23.40    3.09
  -2   7   7   17.22    2.87
  -2   7   7   17.04    2.96
  -2   7   7   19.26    2.94
  -2   7   7   19.26    2.94
  -2   7   7   17.22    2.87
   1  -7  -7   20.24    2.20
   1  -7  -7   18.42    2.53
   1  -7  -7   18.42    2.53
   1  -7  -7   20.24    2.20
  -1   7   7   22.28    2.05
  -1   7   7   15.77    2.39
  -1   7   7   16.16    2.46
  -1   7   7   19.43    2.40
  -1   7   7   16.16    2.46
  -1   7   7   19.13    2.17
  -1   7   7   19.43    2.40
  -1   7   7   22.28    2.05
   0  -7  -7   13.24    2.71
   0  -7  -7   10.53    1.99
   0  -7  -7   10.95    1.56
   0  -7  -7   12.46    2.01
   0  -7  -7    8.91    2.53
   0  -7  -7   12.46    2.01
   0  -7  -7   10.95    1.56
   0  -7  -7   13.25    2.71
   0  -7  -7   10.51    1.91
   0  -7  -7   10.39    1.39
   0   7   7   13.01    1.38
   0   7   7   12.86    2.08
   0   7   7   15.89    2.03
   0   7   7    9.77    1.59
   0   7   7   13.01    1.38
   0   7   7    9.46    2.09
   0   7   7    9.46    2.09
   0   7   7   12.86    2.08
  -1  -7  -7    6.19    1.93
  -1  -7  -7    6.55    1.54
  -1  -7  -7    6.19    1.93
  -1  -7  -7    8.83    2.05
  -1  -7  -7    7.53    1.50
  -1  -7  -7    6.55    1.54
  -1  -7  -7   10.06    1.15
  -1  -7  -7    7.53    1.44
   1   7   7    8.83    1.12
   1   7   7    7.19    1.54
   1   7   7    9.01    1.21
   1   7   7    8.83    1.12
   1   7   7    8.63    1.48
   1   7   7    8.63    1.48
  -2  -7  -7   15.98    1.34
  -2  -7  -7   16.02    2.33
  -2  -7  -7   16.02    2.33
  -2  -7  -7   16.18    1.34
  -2  -7  -7   13.60    1.32
  -2  -7  -7   13.50    1.26
  -2  -7  -7   15.98    1.34
  -2  -7  -7   15.65    2.25
   2   7   7   17.10    2.29
   2   7   7   15.37    1.35
   2   7   7   13.50    1.20
   2   7   7   17.12    2.29
   2   7   7   15.37    1.35
  -3  -7  -7  154.09    3.83
  -3  -7  -7  150.68    3.74
  -3  -7  -7  143.54    5.47
  -3  -7  -7  151.87    3.68
  -3  -7  -7  150.68    3.74
  -3  -7  -7  156.59    5.62
  -3  -7  -7  151.14    3.62
  -3  -7  -7  156.55    5.62
  -3  -7  -7  154.09    3.83
  -3  -7  -7  153.01    3.74
   3   7   7  152.86    3.91
   3   7   7  139.86    3.90
   3   7   7  149.55    3.73
   3   7   7  159.57    5.39
   3   7   7  149.55    3.73
   3   7   7  155.39    3.71
   3   7   7  155.39    3.71
   3   7   7  159.57    5.40
  -4  -7  -7    2.40    1.07
  -4  -7  -7    1.30    0.90
  -4  -7  -7    2.67    2.54
  -4  -7  -7    1.30    0.90
  -4  -7  -7    2.67    2.54
  -4  -7  -7    3.39    2.54
  -4  -7  -7    0.68    1.23
  -4  -7  -7    2.27    1.12
  -4  -7  -7    0.68    1.23
   4   7   7   -1.09    2.37
   4   7   7   -0.49    0.88
   4   7   7    1.81    1.83
   4   7   7    1.68    1.10
   4   7   7   -1.09    2.37
   4   7   7    0.47    1.16
   4   7   7    1.68    1.10
   4   7   7    0.62    0.79
   4   7   7    1.81    1.83
   4   7   7    0.62    0.79
  -5  -7  -7    4.20    2.75
  -5  -7  -7    2.85    1.01
  -5  -7  -7    8.16    2.95
  -5  -7  -7    4.73    1.15
  -5  -7  -7    4.83    2.28
  -5  -7  -7    4.73    1.15
  -5  -7  -7    4.83    2.28
  -5  -7  -7    8.15    2.94
  -5  -7  -7    3.64    1.64
  -5  -7  -7    3.64    1.64
   5   7   7    2.87    1.43
   5   7   7    4.16    1.17
   5   7   7    2.36    3.16
   5   7   7    4.39    1.14
   5   7   7    4.39    1.14
   5   7   7    7.73    2.50
   5   7   7    2.36    3.16
   5   7   7    7.73    2.50
   5   7   7    2.87    1.43
   5   7   7    3.14    1.70
  -6  -7  -7    3.20    2.61
  -6  -7  -7    3.20    2.60
  -6  -7  -7    1.18    3.20
  -6  -7  -7    8.04    3.43
  -6  -7  -7    3.97    2.00
  -6  -7  -7    8.05    3.43
  -6  -7  -7   -0.17    1.34
  -6  -7  -7    3.97    2.08
   6   7   7   -1.54    1.38
   6   7   7   10.30    3.96
   6   7   7    3.56    3.80
   6   7   7    1.76    2.18
   6   7   7   10.30    3.96
   6   7   7   -0.50    1.36
   6   7   7    3.57    3.80
   6   7   7   -0.50    1.36
   2  -8  -7   68.45    4.15
   2  -8  -7   66.12    4.31
   2  -8  -7   60.52    4.36
   2  -8  -7   68.45    4.15
   2  -8  -7   69.39    4.85
   2  -8  -7   60.52    4.36
   2  -8  -7   69.98    5.04
  -2   8   7   72.54    4.68
  -2   8   7   65.93    5.20
  -2   8   7   72.54    4.68
  -2   8   7   53.38    4.73
  -2   8   7   53.38    4.73
   1  -8  -7   11.20    2.42
   1  -8  -7   12.06    2.54
   1  -8  -7    8.89    2.42
   1  -8  -7    8.89    2.42
  -1   8   7   10.35    2.10
  -1   8   7    6.55    2.54
  -1   8   7    6.67    2.54
  -1   8   7    6.67    2.54
  -1   8   7    9.54    2.64
  -1   8   7   10.35    2.10
  -1   8   7    9.54    2.64
   0  -8  -7    3.56    1.57
   0  -8  -7    1.67    1.78
   0  -8  -7    3.56    1.57
   0  -8  -7    1.70    1.86
   0  -8  -7    3.65    1.94
   0  -8  -7    3.65    1.94
   0   8   7    3.69    1.87
   0   8   7    7.51    2.28
   0   8   7    1.21    1.53
   0   8   7    3.55    1.42
   0   8   7    3.69    1.87
   0   8   7    7.51    2.28
   0   8   7    3.55    1.42
   0   8   7    5.19    1.95
  -1  -8  -7   25.66    1.70
  -1  -8  -7   25.66    1.70
  -1  -8  -7   21.86    1.75
  -1  -8  -7   19.65    1.88
  -1  -8  -7   19.76    1.97
   1   8   7   23.14    1.86
   1   8   7   21.40    1.65
   1   8   7   23.82    2.04
   1   8   7   24.22    1.96
   1   8   7   24.22    1.96
   1   8   7   21.40    1.65
  -2  -8  -7   12.15    1.16
  -2  -8  -7   10.41    1.33
  -2  -8  -7   12.69    2.91
  -2  -8  -7   12.20    1.21
  -2  -8  -7   10.41    1.33
  -2  -8  -7   10.87    1.08
  -2  -8  -7   11.09    2.92
  -2  -8  -7   14.13    1.17
  -2  -8  -7   11.09    2.91
  -2  -8  -7   10.87    1.08
   2   8   7   10.68    0.96
   2   8   7    9.51    1.33
   2   8   7   11.58    1.17
   2   8   7   12.02    1.12
   2   8   7   11.58    1.17
   2   8   7   12.90    2.29
   2   8   7   10.68    0.96
   2   8   7   12.90    2.29
  -3  -8  -7    4.34    0.81
  -3  -8  -7   -3.01    2.52
  -3  -8  -7    5.31    0.82
  -3  -8  -7   -3.01    2.53
  -3  -8  -7    5.31    0.82
  -3  -8  -7    6.02    2.81
  -3  -8  -7    4.34    0.81
   3   8   7    5.98    2.36
   3   8   7    5.98    2.36
   3   8   7    5.85    0.93
   3   8   7    8.13    2.28
   3   8   7    5.77    0.87
   3   8   7    8.13    2.28
  -4  -8  -7   48.41    1.48
  -4  -8  -7   42.89    4.05
  -4  -8  -7   49.31    1.41
  -4  -8  -7   49.31    1.41
  -4  -8  -7   42.89    4.05
  -4  -8  -7   48.41    1.48
  -4  -8  -7   44.43    4.04
   4   8   7   48.30    1.57
   4   8   7   45.96    1.68
   4   8   7   46.64    4.23
   4   8   7   52.55    4.28
   4   8   7   52.55    4.29
   4   8   7   46.64    4.23
  -5  -8  -7    9.91    3.16
  -5  -8  -7    9.90    3.16
  -5  -8  -7    5.95    3.06
   5   8   7    2.55    3.44
   5   8   7   -6.72    3.16
   5   8   7    2.19    0.88
   5   8   7    3.88    1.24
   5   8   7    2.55    3.44
   5   8   7   -6.73    3.16
   1  -9  -7   -3.55    2.77
   1  -9  -7    0.52    2.28
   1  -9  -7    2.91    2.19
   1  -9  -7    1.79    2.71
   1  -9  -7    1.58    2.60
   1  -9  -7   -3.55    2.77
   1  -9  -7    0.52    2.28
  -1   9   7   -0.18    2.41
  -1   9   7   -3.02    2.70
  -1   9   7    1.42    2.58
  -1   9   7   -0.18    2.41
  -1   9   7    0.22    2.19
  -1   9   7    0.97    2.18
  -1   9   7    0.97    2.18
  -1   9   7    1.42    2.58
   0  -9  -7   89.76    4.26
   0  -9  -7   89.76    4.13
   0  -9  -7   86.88    4.02
   0  -9  -7   86.88    4.02
   0  -9  -7   81.43    3.38
   0   9   7   87.05    3.56
   0   9   7   89.67    4.27
   0   9   7   71.49    4.26
   0   9   7   85.91    3.91
   0   9   7   85.91    3.91
   0   9   7   71.49    4.26
  -1  -9  -7    8.08    1.37
  -1  -9  -7    9.31    1.65
  -1  -9  -7    8.08    1.37
   1   9   7    4.94    2.64
   1   9   7    4.94    2.64
   1   9   7    8.31    1.28
   1   9   7   12.79    1.81
   1   9   7   11.19    1.86
   1   9   7    8.17    1.42
   1   9   7    8.31    1.28
   1   9   7   12.79    1.81
  -2  -9  -7   21.54    1.67
  -2  -9  -7   17.91    1.28
  -2  -9  -7   17.91    1.28
  -2  -9  -7   21.54    1.67
   2   9   7   19.45    3.09
   2   9   7   19.45    3.09
   2   9   7   21.11    1.34
   2   9   7   21.76    1.79
   2   9   7   18.65    0.68
   2   9   7   18.65    0.68
   3   9   7    3.51    2.60
   3   9   7   -2.90    2.49
   3   9   7    3.51    2.60
   3   9   7   -2.90    2.49
  -4  -9  -7    4.33    3.44
  -4  -9  -7    4.29    3.44
  -4  -9  -7   -0.78    3.26
   4   9   7    5.05    3.02
   4   9   7    8.05    2.48
   4   9   7    8.04    2.49
   4   9   7    5.05    3.02
  -1 -10  -7   62.45    3.08
  -1 -10  -7   68.30    2.62
  -1 -10  -7   62.45    3.08
  -1 -10  -7   66.14    3.52
  -1 -10  -7   68.30    2.62
   1  10   7   67.66    5.27
   1  10   7   67.66    5.27
   1  10   7   62.93    2.71
   1  10   7   61.24    5.04
   1  10   7   63.39    2.35
   1  10   7   61.26    5.04
   1  10   7   66.45    4.56
   1  10   7   66.45    4.56
   1  10   7   62.75    5.10
   1  10   7   63.39    2.35
   2  10   7   -2.57    2.76
   2  10   7    3.17    2.55
   2  10   7   -2.57    2.76
   2  10   7    3.17    2.55
   2  10   7    5.30    0.75
   3  10   7    0.21    3.14
   3  10   7    2.56    2.89
   3  10   7    2.56    2.89
   3  10   7    0.22    3.13
   3   6  -8   53.97    4.07
   3   6  -8   65.07    4.28
   3   6  -8   65.07    4.28
   3   6  -8   57.40    3.97
  -3  -6   8   68.83    5.10
  -3  -6   8   58.26    4.04
  -3  -6   8   68.83    5.10
  -3  -6   8   53.81    3.86
  -3  -6   8   58.26    4.04
  -3  -6   8   53.81    3.86
  -3  -6   8   60.06    4.07
  -3  -6   8   59.83    4.05
   2   6  -8    7.03    2.35
   2   6  -8    7.03    2.35
   2   6  -8    6.93    2.23
   2   6  -8    9.22    2.25
   2   6  -8    7.19    2.52
   2   6  -8    6.93    2.23
  -2  -6   8    9.84    2.21
  -2  -6   8   11.05    2.61
  -2  -6   8    9.84    2.21
  -2  -6   8    4.38    2.95
  -2  -6   8    4.38    2.95
  -2  -6   8   10.77    2.64
  -2  -6   8   11.05    2.61
  -2  -6   8    3.68    2.42
   1   6  -8   25.98    3.59
   1   6  -8   34.46    3.31
   1   6  -8   39.00    3.29
   1   6  -8   39.56    3.07
   1   6  -8   25.98    3.59
   1   6  -8   39.56    3.07
  -1  -6   8   32.42    3.40
  -1  -6   8   33.21    2.93
  -1  -6   8   32.57    3.33
  -1  -6   8   34.49    3.07
  -1  -6   8   33.37    2.86
  -1  -6   8   33.37    2.86
  -1  -6   8   34.49    3.07
  -1  -6   8   32.57    3.33
   0   6  -8    5.42    1.59
   0   6  -8    6.40    2.23
   0   6  -8    5.44    1.58
   0   6  -8    7.41    2.82
   0   6  -8    8.65    2.18
   0   6  -8    7.41    2.82
   0   6  -8    8.65    2.18
   0   6  -8    6.90    2.87
   0  -6   8    8.01    2.87
   0  -6   8    8.01    2.87
   0  -6   8   12.93    3.03
   0  -6   8    6.92    2.32
   0  -6   8   10.89    2.27
   0  -6   8   10.89    2.27
   4   5  -8   36.90    3.25
   4   5  -8   42.58    3.64
   4   5  -8   42.58    3.64
   4   5  -8   39.77    3.56
   4   5  -8   40.38    3.76
  -4  -5   8   39.50    4.48
  -4  -5   8   52.45    4.11
  -4  -5   8   46.79    3.51
  -4  -5   8   39.23    3.62
  -4  -5   8   41.80    3.78
  -4  -5   8   39.50    4.48
  -4  -5   8   46.79    3.51
  -4  -5   8   52.45    4.11
   3   5  -8   -0.73    1.95
   3   5  -8    0.17    2.00
   3   5  -8    1.49    2.10
   3   5  -8   -0.73    1.95
  -3  -5   8   -0.80    1.91
  -3  -5   8    2.71    2.11
  -3  -5   8   -0.80    1.91
  -3  -5   8    0.23    2.59
  -3  -5   8    2.71    2.11
  -3  -5   8    0.23    2.59
  -3  -5   8    0.86    2.30
  -3  -5   8    0.74    2.11
   2   5  -8    3.29    1.77
   2   5  -8    1.64    1.94
   2   5  -8    4.73    2.08
   2   5  -8    1.64    1.94
   2   5  -8    3.29    1.77
   2   5  -8    6.34    2.03
  -2  -5   8    4.20    1.87
  -2  -5   8    2.99    3.05
  -2  -5   8    2.99    3.05
  -2  -5   8    3.80    2.71
  -2  -5   8    1.55    2.13
  -2  -5   8    3.80    2.71
  -2  -5   8    4.11    2.12
  -2  -5   8    4.20    1.87
   1   5  -8   67.62    4.35
   1   5  -8   70.08    3.89
   1   5  -8   75.80    3.59
   1   5  -8   67.62    4.35
   1   5  -8   63.00    3.32
   1   5  -8   63.00    3.32
  -1  -5   8   70.52    4.00
  -1  -5   8   63.07    4.10
  -1  -5   8   63.63    3.37
  -1  -5   8   63.07    4.10
  -1  -5   8   64.52    3.55
  -1  -5   8   63.63    3.37
   0   5  -8   21.34    1.75
   0   5  -8   19.41    2.23
   0   5  -8   18.98    2.86
   0   5  -8   18.13    2.35
   0   5  -8   19.97    2.75
   0   5  -8   19.97    2.75
   0   5  -8   21.35    1.76
   0   5  -8   19.41    2.23
   0  -5   8   19.73    2.57
   0  -5   8   18.43    2.03
   0  -5   8   18.43    2.03
   0  -5   8   14.11    2.77
   0  -5   8   19.73    2.57
   0  -5   8   21.36    2.47
  -1   5  -8    1.47    1.85
  -1   5  -8    4.71    1.82
  -1   5  -8    8.12    2.72
  -1   5  -8    3.01    1.95
  -1   5  -8    1.47    1.85
  -1   5  -8    8.12    2.72
  -1   5  -8    4.34    2.50
  -1   5  -8    4.71    1.82
   1  -5   8    3.27    1.93
   1  -5   8    1.78    2.80
   1  -5   8    3.27    1.93
   1  -5   8    1.78    2.80
   1  -5   8    3.10    1.97
   1  -5   8    4.48    2.77
   1  -5   8    7.75    2.02
   1  -5   8    7.75    2.02
  -2   5  -8   28.57    2.56
  -2   5  -8   31.31    2.94
  -2   5  -8   30.44    3.25
  -2   5  -8   32.78    4.02
  -2   5  -8   30.45    3.26
  -2   5  -8   28.57    2.56
  -2   5  -8   26.77    3.88
  -2   5  -8   32.78    4.02
   2  -5   8   27.88    2.93
   2  -5   8   31.54    2.77
   2  -5   8   28.66    3.82
   2  -5   8   31.54    2.77
   2  -5   8   36.01    3.53
   2  -5   8   32.44    2.92
   2  -5   8   36.01    3.53
   2  -5   8   32.44    2.92
   4   4  -8   33.72    2.99
   4   4  -8   30.11    3.40
   4   4  -8   42.70    4.19
   4   4  -8   36.65    3.22
   4   4  -8   42.70    4.19
   4   4  -8   33.72    2.99
   4   4  -8   38.39    3.42
   4   4  -8   29.84    3.24
   4   4  -8   36.65    3.22
  -4  -4   8   39.49    4.21
  -4  -4   8   33.67    3.33
  -4  -4   8   34.65    3.64
  -4  -4   8   33.92    2.83
  -4  -4   8   33.92    2.83
  -4  -4   8   33.67    3.33
  -4  -4   8   30.55    2.95
  -4  -4   8   39.49    4.21
   3   4  -8    9.75    2.31
   3   4  -8    9.75    2.31
   3   4  -8   11.14    2.00
   3   4  -8   11.14    2.00
   3   4  -8   12.13    2.24
  -3  -4   8   18.24    3.10
  -3  -4   8   12.91    2.43
  -3  -4   8   10.65    2.21
  -3  -4   8   18.24    3.10
  -3  -4   8   10.65    2.21
  -3  -4   8   11.00    2.16
   2   4  -8   17.88    2.16
   2   4  -8   15.22    2.08
   2   4  -8   15.22    2.08
   2   4  -8   17.58    2.29
   2   4  -8   19.17    2.24
   2   4  -8   17.88    2.16
  -2  -4   8   17.18    2.30
  -2  -4   8   16.45    2.36
  -2  -4   8   13.42    2.03
  -2  -4   8   19.00    2.86
  -2  -4   8   13.42    2.03
  -2  -4   8   19.00    2.86
   1   4  -8   22.26    2.38
   1   4  -8   16.36    1.92
   1   4  -8   19.81    1.88
   1   4  -8   20.71    2.18
   1   4  -8   19.81    1.88
   1   4  -8   16.36    1.92
  -1  -4   8   17.12    2.51
  -1  -4   8   18.50    2.38
  -1  -4   8   24.42    2.41
  -1  -4   8   21.03    2.12
  -1  -4   8   21.03    2.12
  -1  -4   8   17.12    2.51
   0   4  -8   71.75    2.68
   0   4  -8   79.88    3.93
   0   4  -8   71.82    2.68
   0   4  -8   72.43    3.38
   0   4  -8   72.43    3.38
   0   4  -8   79.67    3.36
   0   4  -8   72.63    3.46
   0   4  -8   79.67    3.36
   0  -4   8   77.02    4.06
   0  -4   8   78.20    3.66
   0  -4   8   78.20    3.66
   0  -4   8   74.47    3.37
   0  -4   8   71.49    3.51
   0  -4   8   74.47    3.37
  -1   4  -8    4.11    1.56
  -1   4  -8   -0.24    2.09
  -1   4  -8    3.32    1.68
  -1   4  -8    3.32    1.68
  -1   4  -8    5.12    1.74
  -1   4  -8    3.64    2.25
  -1   4  -8    3.64    2.25
  -1   4  -8    4.11    1.56
   1  -4   8   -0.11    2.24
   1  -4   8    1.44    1.94
   1  -4   8    2.00    2.37
   1  -4   8    1.44    1.94
   1  -4   8    5.17    1.82
   1  -4   8   -0.11    2.24
  -2   4  -8   -1.05    2.60
  -2   4  -8   -3.84    2.43
  -2   4  -8    1.17    1.79
  -2   4  -8    3.55    1.96
  -2   4  -8   -1.05    2.60
  -2   4  -8    3.55    1.96
  -2   4  -8    2.22    1.95
  -2   4  -8    2.22    1.95
   2  -4   8    1.55    2.12
   2  -4   8    1.55    2.12
   2  -4   8   -0.05    2.45
   2  -4   8    2.34    1.89
   2  -4   8    2.34    1.89
   2  -4   8    0.85    1.95
  -3   4  -8   33.40    2.85
  -3   4  -8   35.20    3.57
  -3   4  -8   35.18    3.57
  -3   4  -8   31.40    4.11
  -3   4  -8   33.40    2.85
  -3   4  -8   33.27    4.22
  -3   4  -8   33.27    4.22
  -3   4  -8   32.76    3.26
   3  -4   8   35.94    4.35
   3  -4   8   25.45    3.93
   3  -4   8   30.05    3.00
   3  -4   8   27.61    3.04
   3  -4   8   27.61    3.04
   3  -4   8   35.94    4.35
   3  -4   8   30.05    3.00
   3  -4   8   32.96    3.32
   5   3  -8   -1.39    2.43
   5   3  -8    2.43    2.34
   5   3  -8    6.58    3.08
   5   3  -8    0.80    4.21
   5   3  -8    6.54    2.95
   5   3  -8    6.99    3.16
   5   3  -8    0.80    4.21
   5   3  -8    6.99    3.16
   5   3  -8    2.43    2.34
  -5  -3   8   -0.40    3.16
  -5  -3   8    6.65    3.14
  -5  -3   8   -8.33    3.65
  -5  -3   8   -8.33    3.65
  -5  -3   8   -1.77    2.30
  -5  -3   8    2.83    2.60
  -5  -3   8   -1.77    2.30
  -5  -3   8    6.65    3.14
   4   3  -8   27.37    2.62
   4   3  -8   27.30    3.12
   4   3  -8   28.85    3.18
   4   3  -8   28.68    3.04
   4   3  -8   27.30    3.12
   4   3  -8   32.24    2.83
   4   3  -8   32.19    4.08
   4   3  -8   27.37    2.62
   4   3  -8   32.19    4.08
  -4  -3   8   27.50    2.72
  -4  -3   8   33.27    3.34
  -4  -3   8   23.84    3.25
  -4  -3   8   33.27    3.34
  -4  -3   8   32.49    3.46
  -4  -3   8   23.84    3.25
   3   3  -8    4.24    1.95
   3   3  -8    4.24    1.95
   3   3  -8    3.79    2.05
   3   3  -8    3.79    2.05
   3   3  -8    6.37    1.98
  -3  -3   8    3.56    1.94
  -3  -3   8   10.88    2.81
  -3  -3   8   10.88    2.81
  -3  -3   8    3.56    1.94
  -3  -3   8    4.07    1.86
  -3  -3   8    6.14    2.33
   2   3  -8   35.09    2.81
   2   3  -8   37.99    2.24
   2   3  -8   34.30    2.59
   2   3  -8   37.99    2.24
   2   3  -8   34.30    2.59
   2   3  -8   32.37    2.60
  -2  -3   8   34.27    2.72
  -2  -3   8   31.44    2.72
  -2  -3   8   38.06    3.32
  -2  -3   8   35.31    2.61
  -2  -3   8   38.06    3.32
  -2  -3   8   35.31    2.61
   1   3  -8   84.86    3.19
   1   3  -8   99.04    3.73
   1   3  -8   85.95    3.35
   1   3  -8   86.28    3.26
   1   3  -8   84.86    3.19
   1   3  -8   86.28    3.26
  -1  -3   8   79.42    3.58
  -1  -3   8   88.62    4.15
  -1  -3   8   82.93    3.69
  -1  -3   8   80.11    3.40
  -1  -3   8   80.11    3.40
  -1  -3   8   94.72    3.64
  -1  -3   8   94.72    3.64
  -1  -3   8   88.62    4.15
   0   3  -8   42.03    4.57
   0   3  -8   48.60    2.85
   0   3  -8   44.92    2.07
   0   3  -8   48.05    3.10
   0   3  -8   45.14    2.62
   0   3  -8   45.14    2.62
   0   3  -8   42.03    4.57
   0   3  -8   44.89    2.07
   0  -3   8   47.38    2.38
   0  -3   8   47.13    3.17
   0  -3   8   49.02    3.00
   0  -3   8   49.02    3.00
   0  -3   8   49.14    3.16
   0  -3   8   47.38    2.38
   0  -3   8   49.20    2.51
   0  -3   8   47.13    3.17
  -1   3  -8    1.01    1.37
  -1   3  -8   -0.73    1.44
  -1   3  -8   -0.99    1.75
  -1   3  -8    0.20    1.39
  -1   3  -8    0.20    1.39
  -1   3  -8    0.85    1.80
  -1   3  -8   -0.99    1.75
  -1   3  -8    1.01    1.37
   1  -3   8   -1.23    1.33
   1  -3   8   -1.23    1.33
   1  -3   8   -0.12    1.50
   1  -3   8   -0.12    1.50
   1  -3   8    2.11    1.56
   1  -3   8   -1.09    1.57
  -2   3  -8   46.77    3.25
  -2   3  -8   41.97    2.85
  -2   3  -8   39.92    2.99
  -2   3  -8   40.49    3.49
  -2   3  -8   41.81    3.84
  -2   3  -8   41.97    2.85
  -2   3  -8   40.49    3.49
  -2   3  -8   46.81    3.25
   2  -3   8   42.54    3.75
   2  -3   8   39.67    2.93
   2  -3   8   42.54    3.75
   2  -3   8   42.03    2.92
   2  -3   8   41.74    3.47
   2  -3   8   42.03    2.92
  -3   3  -8   20.90    3.58
  -3   3  -8   29.43    3.06
  -3   3  -8   31.04    3.26
  -3   3  -8   31.04    3.26
  -3   3  -8   29.74    2.81
  -3   3  -8   29.42    3.06
  -3   3  -8   31.94    2.86
  -3   3  -8   29.74    2.81
   3  -3   8   23.79    3.51
   3  -3   8   30.34    2.90
   3  -3   8   29.63    3.69
   3  -3   8   23.79    3.51
   3  -3   8   30.63    2.83
   3  -3   8   30.34    2.90
   3  -3   8   32.88    3.02
   3  -3   8   30.63    2.83
   5   2  -8    8.66    2.50
   5   2  -8    9.68    4.11
   5   2  -8    9.88    2.68
   5   2  -8    9.68    4.11
   5   2  -8    8.39    3.11
   5   2  -8   12.43    3.24
   5   2  -8    9.88    2.68
   5   2  -8    8.45    3.26
   5   2  -8   12.43    3.24
  -5  -2   8    7.23    2.62
  -5  -2   8   11.22    2.52
  -5  -2   8    9.22    2.67
  -5  -2   8    8.71    3.25
  -5  -2   8   10.45    3.72
  -5  -2   8   11.22    2.52
  -5  -2   8   10.45    3.72
  -5  -2   8    7.23    2.62
   4   2  -8    1.07    1.85
   4   2  -8    4.67    2.44
   4   2  -8    2.53    2.23
   4   2  -8    4.72    2.57
   4   2  -8    1.07    1.85
   4   2  -8   -0.94    1.83
   4   2  -8    2.53    2.23
   4   2  -8    2.50    2.30
   4   2  -8    2.50    2.30
  -4  -2   8   -0.57    1.77
  -4  -2   8    0.72    0.75
  -4  -2   8    3.43    2.37
  -4  -2   8    4.59    2.52
  -4  -2   8    0.72    0.75
  -4  -2   8    3.43    2.37
   3   2  -8   90.81    3.72
   3   2  -8   88.35    4.19
   3   2  -8   87.26    4.01
   3   2  -8   88.85    3.97
   3   2  -8   81.25    3.67
   3   2  -8   90.81    3.72
   3   2  -8   88.85    3.97
  -3  -2   8   83.93    3.95
  -3  -2   8   88.02    3.84
  -3  -2   8   83.93    3.95
  -3  -2   8   86.81    4.77
  -3  -2   8   83.96    1.99
  -3  -2   8   86.89    4.19
  -3  -2   8   87.87    3.73
  -3  -2   8   83.94    1.99
  -3  -2   8   86.81    4.77
  -3  -2   8   88.02    3.84
   2   2  -8   46.97    2.67
   2   2  -8   46.97    2.67
   2   2  -8   46.06    3.00
   2   2  -8   48.49    2.76
  -2  -2   8   51.97    2.87
  -2  -2   8   47.64    2.68
  -2  -2   8   49.71    2.53
  -2  -2   8   47.64    2.68
  -2  -2   8   48.53    3.70
  -2  -2   8   50.59    2.96
  -2  -2   8   49.71    2.53
  -2  -2   8   48.53    3.70
   1   2  -8   13.64    1.79
   1   2  -8   12.45    1.81
   1   2  -8   13.86    1.58
   1   2  -8   14.08    1.64
   1   2  -8   13.86    1.58
   1   2  -8   13.64    1.79
  -1  -2   8   15.24    1.79
  -1  -2   8   12.61    1.47
  -1  -2   8   12.61    1.47
  -1  -2   8   13.11    2.02
  -1  -2   8   13.62    1.82
  -1  -2   8   15.24    1.79
  -1  -2   8   14.92    1.89
  -1  -2   8   13.11    2.02
   0   2  -8   12.71    1.66
   0   2  -8   13.22    1.80
   0   2  -8   15.82    1.81
   0   2  -8   12.71    1.66
   0   2  -8   15.20    1.30
   0   2  -8   15.21    1.30
   0   2  -8   13.93    1.90
   0   2  -8   13.22    1.80
   0  -2   8   13.50    1.59
   0  -2   8   13.50    1.59
   0  -2   8    9.94    2.02
   0  -2   8    9.94    2.02
   0  -2   8   13.28    1.58
   0  -2   8   16.54    1.79
   0  -2   8   16.54    1.79
   0  -2   8   14.00    1.84
  -1   2  -8   47.44    3.16
  -1   2  -8   52.76    2.79
  -1   2  -8   52.21    2.72
  -1   2  -8   46.04    2.75
  -1   2  -8   56.11    2.59
  -1   2  -8   52.76    2.79
  -1   2  -8   52.21    2.72
  -1   2  -8   56.11    2.59
   1  -2   8   52.20    2.47
   1  -2   8   52.40    2.72
   1  -2   8   54.45    3.28
   1  -2   8   52.40    2.72
   1  -2   8   52.20    2.47
   1  -2   8   49.26    2.83
  -2   2  -8   65.34    3.86
  -2   2  -8   60.27    3.71
  -2   2  -8   63.01    3.08
  -2   2  -8   63.81    2.81
  -2   2  -8   63.81    2.81
  -2   2  -8   63.00    3.08
  -2   2  -8   60.27    3.71
  -2   2  -8   67.67    3.22
   2  -2   8   64.91    3.74
   2  -2   8   63.57    3.18
   2  -2   8   63.27    2.81
   2  -2   8   62.28    3.76
   2  -2   8   64.91    3.74
   2  -2   8   63.27    2.81
  -3   2  -8   48.07    3.05
  -3   2  -8   43.18    3.67
  -3   2  -8   46.69    3.36
  -3   2  -8   48.07    3.05
  -3   2  -8   43.92    3.24
  -3   2  -8   46.83    3.81
  -3   2  -8   46.66    3.36
  -3   2  -8   46.83    3.81
   3  -2   8   44.40    3.03
   3  -2   8   46.60    3.25
   3  -2   8   48.92    4.12
   3  -2   8   43.74    3.65
   3  -2   8   44.40    3.03
   3  -2   8   43.74    3.65
  -4   2  -8    7.36    2.32
  -4   2  -8   11.59    3.50
  -4   2  -8    9.62    3.40
  -4   2  -8   10.43    2.72
  -4   2  -8   16.45    2.51
  -4   2  -8   10.43    2.72
  -4   2  -8    9.62    3.40
  -4   2  -8   16.45    2.51
   4  -2   8   13.62    2.54
   4  -2   8    8.51    2.66
   4  -2   8   12.38    2.55
   4  -2   8   13.62    2.54
   4  -2   8    8.51    2.66
   4  -2   8   13.77    3.46
   4  -2   8   10.12    2.93
   4  -2   8   10.12    2.93
   5   1  -8    3.20    2.78
   5   1  -8    9.78    3.19
   5   1  -8    9.78    3.19
   5   1  -8    3.22    2.91
   5   1  -8    7.55    3.85
   5   1  -8    7.55    3.85
   5   1  -8    7.00    2.46
   5   1  -8    7.00    2.46
   5   1  -8    2.37    2.37
  -5  -1   8    4.32    3.13
  -5  -1   8    4.32    3.13
  -5  -1   8    4.70    3.57
  -5  -1   8    4.55    2.58
  -5  -1   8    4.55    2.58
  -5  -1   8   11.32    2.86
  -5  -1   8    4.01    3.08
  -5  -1   8    4.70    3.57
   4   1  -8   26.14    2.29
   4   1  -8   22.27    2.23
   4   1  -8   19.75    2.90
   4   1  -8   23.92    2.64
   4   1  -8   19.79    3.02
   4   1  -8   26.14    2.29
   4   1  -8   23.92    2.64
  -4  -1   8   19.74    2.85
  -4  -1   8   21.03    3.62
  -4  -1   8   23.42    3.23
  -4  -1   8   17.96    2.46
  -4  -1   8   19.74    2.85
  -4  -1   8   21.03    3.62
   3   1  -8   75.24    3.46
   3   1  -8   80.68    3.39
   3   1  -8   82.44    3.93
   3   1  -8   82.79    4.08
   3   1  -8   75.24    3.46
   3   1  -8   81.20    3.23
   3   1  -8   80.68    3.39
  -3  -1   8   85.69    3.49
  -3  -1   8   79.46    2.42
  -3  -1   8   75.36    3.90
  -3  -1   8   75.90    4.19
  -3  -1   8   85.69    3.49
  -3  -1   8   75.90    4.19
  -3  -1   8   79.47    2.42
  -3  -1   8   75.63    3.52
  -3  -1   8   75.36    3.90
  -3  -1   8   85.39    4.18
   2   1  -8   43.12    2.85
   2   1  -8   42.89    2.34
   2   1  -8   48.26    2.55
   2   1  -8   48.26    2.55
  -2  -1   8   42.08    3.07
  -2  -1   8   45.95    1.81
  -2  -1   8   47.50    2.58
  -2  -1   8   43.02    2.66
  -2  -1   8   45.95    1.81
  -2  -1   8   44.95    2.44
  -2  -1   8   42.08    3.07
  -2  -1   8   47.50    2.58
  -2  -1   8   44.95    2.44
  -2  -1   8   43.02    2.92
   1   1  -8   29.66    2.14
   1   1  -8   26.45    1.89
   1   1  -8   29.66    2.14
   1   1  -8   26.43    2.29
   1   1  -8   26.45    1.89
   1   1  -8   23.43    2.14
  -1  -1   8   26.22    2.77
  -1  -1   8   24.91    1.83
  -1  -1   8   28.34    2.14
  -1  -1   8   28.34    2.14
  -1  -1   8   24.91    1.83
  -1  -1   8   26.96    2.36
  -1  -1   8   26.90    2.24
  -1  -1   8   26.22    2.77
  -1  -1   8   29.83    1.68
  -1  -1   8   29.84    1.68
   0   1  -8   22.33    1.57
   0   1  -8   22.74    1.67
   0   1  -8   25.09    2.19
   0   1  -8   22.62    1.84
   0   1  -8   22.74    1.67
   0   1  -8   26.67    2.15
   0   1  -8   26.67    2.15
   0   1  -8   22.33    1.57
   0  -1   8   21.14    1.62
   0  -1   8   26.04    2.53
   0  -1   8   23.85    2.07
   0  -1   8   21.34    1.83
   0  -1   8   21.11    1.99
   0  -1   8   23.85    2.07
   0  -1   8   26.04    2.53
   0  -1   8   21.14    1.62
  -1   1  -8   -0.18    1.26
  -1   1  -8    1.43    1.18
  -1   1  -8    3.20    1.33
  -1   1  -8    1.43    1.18
  -1   1  -8    3.20    1.33
  -1   1  -8    0.04    1.17
  -1   1  -8   -1.16    1.60
  -1   1  -8   -1.16    1.60
   1  -1   8    0.42    1.54
   1  -1   8   -0.34    1.22
   1  -1   8    0.42    1.54
   1  -1   8   -0.34    1.22
   1  -1   8    1.53    1.20
   1  -1   8    0.01    1.22
  -2   1  -8  154.00    4.75
  -2   1  -8  164.47    5.10
  -2   1  -8  150.61    4.81
  -2   1  -8  154.45    4.74
  -2   1  -8  153.99    4.75
  -2   1  -8  164.45    5.22
  -2   1  -8  164.45    5.22
  -2   1  -8  154.45    4.74
   2  -1   8  151.54    4.83
   2  -1   8  158.53    5.19
   2  -1   8  163.83    5.31
   2  -1   8  158.53    5.19
   2  -1   8  151.54    4.83
   2  -1   8  151.37    4.62
  -3   1  -8   42.88    2.97
  -3   1  -8   37.99    3.28
  -3   1  -8   37.99    3.28
  -3   1  -8   41.61    3.70
  -3   1  -8   36.07    2.75
  -3   1  -8   36.07    2.75
   3  -1   8   44.99    3.64
   3  -1   8   34.69    2.83
   3  -1   8   44.21    2.42
   3  -1   8   45.06    3.00
   3  -1   8   44.21    2.42
   3  -1   8   34.69    2.83
  -4   1  -8    7.81    2.06
  -4   1  -8    6.53    2.45
  -4   1  -8    7.81    2.06
  -4   1  -8   10.52    3.02
  -4   1  -8    6.55    2.45
  -4   1  -8   10.52    3.02
  -4   1  -8    6.33    2.04
  -4   1  -8    7.99    3.00
   4  -1   8    9.40    2.35
   4  -1   8    6.51    2.70
   4  -1   8    8.56    2.75
   4  -1   8    7.63    2.16
   4  -1   8    8.55    2.03
   4  -1   8    8.55    2.03
   4  -1   8    9.40    2.35
   4  -1   8    6.51    2.70
  -5   1  -8    6.13    3.71
  -5   1  -8   14.22    2.71
  -5   1  -8   10.15    3.01
  -5   1  -8   14.22    2.71
  -5   1  -8   10.15    3.01
  -5   1  -8   11.31    2.82
  -5   1  -8   13.43    3.31
  -5   1  -8   13.46    3.32
   5  -1   8    6.60    2.44
   5  -1   8   10.57    2.51
   5  -1   8   -1.66    4.12
   5  -1   8    6.60    2.44
   5  -1   8   12.66    3.78
   5  -1   8   12.66    3.78
   5  -1   8    8.70    3.97
   5  -1   8   -1.66    4.12
   5   0  -8   10.78    2.83
   5   0  -8   17.15    4.16
   5   0  -8   14.57    3.39
   5   0  -8   13.16    3.43
   5   0  -8   13.16    3.43
   5   0  -8   14.52    3.25
   5   0  -8   17.15    4.16
   5   0  -8   10.78    2.83
   5   0  -8   12.69    2.40
  -5   0   8    8.80    3.05
  -5   0   8   15.03    2.90
  -5   0   8   12.56    3.38
  -5   0   8    8.05    3.14
  -5   0   8   15.03    2.90
  -5   0   8   18.25    3.16
  -5   0   8   12.56    3.38
  -5   0   8    8.80    3.05
   4   0  -8    2.55    2.40
   4   0  -8    8.18    2.15
   4   0  -8    6.31    1.93
   4   0  -8    8.18    2.15
   4   0  -8   10.21    2.16
   4   0  -8    6.31    1.93
   4   0  -8    2.57    2.52
  -4   0   8    6.42    2.53
  -4   0   8    6.42    2.53
  -4   0   8    5.90    2.72
  -4   0   8    5.81    1.81
  -4   0   8    8.37    2.20
  -4   0   8    9.51    2.62
  -4   0   8    8.37    2.20
  -4   0   8    9.51    2.62
   3   0  -8   49.23    2.92
   3   0  -8   47.99    3.42
   3   0  -8   48.38    2.86
   3   0  -8   47.93    3.54
   3   0  -8   49.23    2.92
   3   0  -8   48.38    2.86
   3   0  -8   55.18    3.11
  -3   0   8   52.74    4.13
  -3   0   8   52.68    2.57
  -3   0   8   52.74    4.13
  -3   0   8   50.49    2.98
  -3   0   8   52.68    2.57
  -3   0   8   50.49    2.98
  -3   0   8   58.22    3.65
   2   0  -8   32.70    2.34
   2   0  -8   32.70    2.34
   2   0  -8   29.29    2.57
   2   0  -8   41.36    2.52
   2   0  -8   29.29    2.57
  -2   0   8   34.95    2.02
  -2   0   8   34.48    1.76
  -2   0   8   29.46    2.54
  -2   0   8   34.95    2.02
  -2   0   8   34.78    3.24
  -2   0   8   34.78    3.24
  -2   0   8   40.83    2.81
  -2   0   8   37.87    2.47
  -2   0   8   34.48    1.76
  -2   0   8   29.46    2.54
   1   0  -8   39.78    2.39
   1   0  -8   44.62    2.47
   1   0  -8   44.16    2.61
   1   0  -8   40.57    2.06
   1   0  -8   40.57    2.06
   1   0  -8   39.78    2.39
  -1   0   8   43.50    2.50
  -1   0   8   45.60    2.11
  -1   0   8   42.71    2.00
  -1   0   8   43.50    2.50
  -1   0   8   43.06    3.30
  -1   0   8   43.06    3.30
  -1   0   8   45.60    2.11
  -1   0   8   42.16    2.61
  -1   0   8   44.60    2.44
  -1   0   8   42.71    2.01
   0   0  -8   60.43    2.46
   0   0  -8   60.43    2.46
   0   0  -8   63.70    2.82
   0   0  -8   61.89    2.87
   0   0  -8   68.50    2.75
   0   0  -8   68.50    2.75
   0   0   8   58.15    2.45
   0   0   8   68.62    2.88
   0   0   8   58.15    2.45
   0   0   8   68.39    2.62
   0   0   8   62.94    2.50
   0   0   8   68.38    2.62
   0   0   8   62.94    2.50
   0   0   8   64.69    2.84
  -1   0  -8  125.15    3.98
  -1   0  -8  122.68    3.68
  -1   0  -8  122.62    3.63
  -1   0  -8  122.62    3.63
  -1   0  -8  110.97    4.21
  -1   0  -8  128.22    4.08
  -1   0  -8  110.97    4.21
  -1   0  -8  122.68    3.68
   1   0   8  123.33    4.03
   1   0   8  114.91    3.62
   1   0   8  126.69    3.97
   1   0   8  126.41    4.03
   1   0   8  123.32    4.04
   1   0   8  114.91    3.62
   1   0   8  125.79    4.14
   1   0   8  126.41    4.03
  -2   0  -8   14.86    1.74
  -2   0  -8   14.86    1.74
  -2   0  -8   13.26    1.89
  -2   0  -8   13.37    1.73
  -2   0  -8   17.31    2.12
  -2   0  -8   14.80    1.66
  -2   0  -8   14.80    1.66
  -2   0  -8   13.26    1.89
   2   0   8   13.14    1.44
   2   0   8   13.14    1.44
   2   0   8   13.18    1.90
   2   0   8   12.26    1.91
   2   0   8   14.86    1.69
   2   0   8   13.18    1.90
  -3   0  -8   72.56    3.88
  -3   0  -8   76.13    3.83
  -3   0  -8   80.19    3.26
  -3   0  -8   72.82    3.52
  -3   0  -8   72.82    3.52
  -3   0  -8   80.19    3.26
  -3   0  -8   76.13    3.83
  -3   0  -8   70.39    3.31
   3   0   8   62.55    2.78
   3   0   8   62.55    2.78
   3   0   8   78.29    3.10
   3   0   8   73.27    3.90
  -4   0  -8   20.63    2.91
  -4   0  -8   23.30    2.82
  -4   0  -8   20.63    2.91
  -4   0  -8   17.44    3.02
  -4   0  -8   23.31    2.82
  -4   0  -8   20.96    2.53
   4   0   8   17.65    2.56
   4   0   8   22.29    2.10
   4   0   8   23.87    2.35
   4   0   8   17.83    2.40
   4   0   8   17.83    2.40
   4   0   8   22.29    2.10
   4   0   8   18.79    2.82
   4   0   8   18.79    2.82
  -5   0  -8   27.61    3.42
  -5   0  -8   28.99    3.96
  -5   0  -8   19.48    2.87
  -5   0  -8   28.41    2.89
  -5   0  -8   28.41    2.89
  -5   0  -8   24.75    3.93
  -5   0  -8   27.51    3.42
  -5   0  -8   28.99    3.96
   5   0   8   24.90    2.47
   5   0   8   24.73    3.87
   5   0   8   16.74    4.41
   5   0   8   24.00    3.69
   5   0   8   24.90    2.47
   5   0   8   24.00    3.69
   5   0   8   16.74    4.41
   5   0   8   22.90    2.81
   5  -1  -8   35.08    3.18
   5  -1  -8   28.67    4.62
   5  -1  -8   26.63    4.10
   5  -1  -8   26.62    4.26
   5  -1  -8   32.40    3.54
   5  -1  -8   35.08    3.18
   5  -1  -8   29.77    3.54
   5  -1  -8   32.40    3.54
   5  -1  -8   28.67    4.62
  -5   1   8   28.78    3.47
  -5   1   8   28.81    3.61
  -5   1   8   29.86    2.98
  -5   1   8   29.86    2.98
  -5   1   8   30.84    4.05
  -5   1   8   28.78    3.47
  -5   1   8   30.84    4.05
  -5   1   8   29.16    5.02
   4  -1  -8   11.69    2.29
   4  -1  -8    9.39    2.92
   4  -1  -8    9.34    2.79
   4  -1  -8   11.69    2.29
   4  -1  -8   15.15    1.68
   4  -1  -8   14.93    1.65
   4  -1  -8   16.40    2.46
   4  -1  -8   12.36    2.23
   4  -1  -8   16.40    2.46
   4  -1  -8   15.15    1.68
  -4   1   8   14.58    3.08
  -4   1   8   14.72    2.52
  -4   1   8   15.36    2.15
  -4   1   8   12.66    3.26
  -4   1   8   14.72    2.52
  -4   1   8   17.30    2.47
  -4   1   8   17.30    2.47
  -4   1   8   12.66    3.26
   3  -1  -8   42.07    3.31
   3  -1  -8   42.42    2.94
   3  -1  -8   44.65    3.44
   3  -1  -8   45.99    2.89
   3  -1  -8   41.96    3.42
   3  -1  -8   44.65    3.44
   3  -1  -8   45.99    2.89
  -3   1   8   43.00    3.40
  -3   1   8   45.50    3.05
  -3   1   8   49.37    3.46
  -3   1   8   44.39    2.49
  -3   1   8   49.37    3.46
  -3   1   8   47.86    3.51
  -3   1   8   44.39    2.49
  -3   1   8   43.00    3.40
   2  -1  -8    1.53    1.79
   2  -1  -8   -0.15    1.23
   2  -1  -8    3.00    1.29
   2  -1  -8    1.51    1.69
   2  -1  -8   -0.15    1.23
   2  -1  -8    0.30    1.17
   2  -1  -8    0.30    1.17
  -2   1   8   -0.24    1.03
  -2   1   8    0.27    1.13
  -2   1   8   -0.24    1.03
  -2   1   8    0.30    2.02
  -2   1   8    0.30    2.02
  -2   1   8    0.27    1.13
  -2   1   8    0.68    1.29
  -2   1   8    1.80    1.53
  -2   1   8    1.80    1.53
  -2   1   8    1.65    1.53
   1  -1  -8   69.82    3.15
   1  -1  -8   65.62    2.55
   1  -1  -8   68.15    2.86
   1  -1  -8   65.62    2.55
  -1   1   8   70.92    2.79
  -1   1   8   70.92    2.79
  -1   1   8   73.42    3.83
  -1   1   8   63.40    2.70
  -1   1   8   64.67    2.86
  -1   1   8   67.83    2.52
  -1   1   8   67.78    2.52
  -1   1   8   63.40    2.70
  -1   1   8   66.30    3.10
  -1   1   8   73.42    3.83
   0  -1  -8  101.89    3.41
   0  -1  -8   96.56    3.38
   0  -1  -8   97.16    3.14
   0  -1  -8   96.56    3.38
   0  -1  -8   97.16    3.14
   0  -1  -8   99.26    3.51
   0   1   8  101.62    3.36
   0   1   8  101.28    3.34
   0   1   8  101.62    3.36
   0   1   8  101.28    3.34
   0   1   8  100.08    3.19
   0   1   8   97.56    3.39
   0   1   8   97.42    3.45
   0   1   8  100.08    3.19
  -1  -1  -8   51.08    2.41
  -1  -1  -8   50.69    2.18
  -1  -1  -8   50.74    2.53
  -1  -1  -8   53.21    2.33
  -1  -1  -8   51.08    2.41
  -1  -1  -8   50.69    2.18
  -1  -1  -8   50.22    2.25
  -1  -1  -8   53.21    2.33
   1   1   8   47.51    2.51
   1   1   8   47.97    2.52
   1   1   8   50.99    2.24
   1   1   8   48.01    2.37
   1   1   8   47.98    2.52
   1   1   8   50.99    2.24
   1   1   8   56.06    2.38
   1   1   8   56.06    2.38
  -2  -1  -8   45.15    2.35
  -2  -1  -8   42.64    2.40
  -2  -1  -8   40.44    2.62
  -2  -1  -8   42.64    2.40
  -2  -1  -8   43.89    2.50
  -2  -1  -8   45.15    2.35
  -2  -1  -8   42.50    2.41
  -2  -1  -8   43.89    2.50
   2   1   8   39.74    2.25
   2   1   8   39.74    2.25
   2   1   8   44.55    2.27
   2   1   8   44.55    2.27
   2   1   8   44.85    2.86
   2   1   8   41.98    2.36
   2   1   8   44.85    2.86
   2   1   8   46.81    2.39
  -3  -1  -8   40.56    2.53
  -3  -1  -8   42.98    2.35
  -3  -1  -8   41.62    2.85
  -3  -1  -8   43.97    3.04
  -3  -1  -8   39.25    2.45
  -3  -1  -8   42.98    2.35
  -3  -1  -8   41.62    2.85
  -3  -1  -8   39.25    2.45
   3   1   8   42.34    3.07
   3   1   8   42.20    2.50
   3   1   8   42.82    2.96
   3   1   8   39.66    2.35
   3   1   8   39.66    2.35
   3   1   8   42.82    2.96
  -4  -1  -8    2.09    2.07
  -4  -1  -8    2.27    1.52
  -4  -1  -8    0.26    1.57
  -4  -1  -8    0.26    1.56
  -4  -1  -8    2.14    1.74
  -4  -1  -8    2.27    1.52
   4   1   8    6.52    1.75
   4   1   8    2.22    2.10
   4   1   8    1.42    1.45
   4   1   8    2.22    2.10
   4   1   8    1.42    1.45
   4   1   8    3.72    1.82
   4   1   8    2.53    2.08
   4   1   8    3.72    1.82
  -5  -1  -8   29.35    3.40
  -5  -1  -8   29.26    2.97
  -5  -1  -8   26.75    3.42
  -5  -1  -8   29.35    3.39
   5   1   8   27.31    2.66
   5   1   8   21.85    4.38
   5   1   8   31.21    3.53
   5   1   8   21.85    4.38
   5   1   8   31.21    3.53
   5   1   8   27.31    2.66
   5   1   8   25.04    2.72
   5   1   8   24.11    3.29
   5  -2  -8    1.76    3.07
   5  -2  -8    8.06    4.09
   5  -2  -8    0.40    2.64
   5  -2  -8    4.75    3.96
   5  -2  -8    7.08    2.71
   5  -2  -8    8.06    4.09
   5  -2  -8    7.08    2.71
   5  -2  -8    4.72    3.78
   5  -2  -8    1.76    3.07
  -5   2   8    4.79    3.95
  -5   2   8   -2.51    2.55
  -5   2   8    2.87    2.41
  -5   2   8    4.79    3.95
  -5   2   8   10.40    3.87
  -5   2   8    0.12    3.07
  -5   2   8   -2.51    2.55
  -5   2   8    0.12    3.07
   4  -2  -8   16.72    2.62
   4  -2  -8   24.16    2.88
   4  -2  -8   24.83    3.46
   4  -2  -8   19.21    2.74
   4  -2  -8   24.92    3.62
   4  -2  -8   22.43    2.07
   4  -2  -8   24.16    2.88
   4  -2  -8   16.94    1.66
   4  -2  -8   16.72    2.62
   4  -2  -8   16.94    1.66
  -4   2   8   19.76    2.71
  -4   2   8   17.73    3.16
  -4   2   8   19.76    2.71
  -4   2   8   16.84    4.04
  -4   2   8   21.86    3.26
  -4   2   8   23.28    2.85
  -4   2   8   21.86    3.26
  -4   2   8   17.73    3.16
   3  -2  -8   37.99    3.01
   3  -2  -8   35.70    2.61
   3  -2  -8   39.97    2.63
   3  -2  -8   42.75    2.93
   3  -2  -8   42.75    2.93
   3  -2  -8   40.64    3.67
   3  -2  -8   35.70    2.60
   3  -2  -8   40.59    3.52
  -3   2   8   39.32    3.38
  -3   2   8   39.33    2.85
  -3   2   8   36.87    3.30
  -3   2   8   35.98    2.41
  -3   2   8   39.32    3.38
  -3   2   8   35.98    2.41
  -3   2   8   44.18    3.05
  -3   2   8   39.33    2.85
   2  -2  -8  162.11    5.57
   2  -2  -8  161.92    5.42
   2  -2  -8  173.93    4.84
   2  -2  -8  173.26    5.39
   2  -2  -8  176.39    5.08
   2  -2  -8  173.93    4.84
   2  -2  -8  173.26    5.39
  -2   2   8  170.72    4.81
  -2   2   8  171.56    5.47
  -2   2   8  170.72    4.81
  -2   2   8  176.18    6.45
  -2   2   8  172.99    5.26
  -2   2   8  172.99    5.26
  -2   2   8  176.18    6.45
  -2   2   8  178.49    5.17
   1  -2  -8   11.51    1.53
   1  -2  -8   10.26    1.52
   1  -2  -8   11.51    1.53
   1  -2  -8    8.10    1.65
   1  -2  -8    8.10    1.65
  -1   2   8   18.22    1.67
  -1   2   8   10.11    1.68
  -1   2   8   11.95    1.73
  -1   2   8   11.18    2.22
  -1   2   8   11.28    1.38
  -1   2   8   11.95    1.73
  -1   2   8   11.18    2.22
  -1   2   8   13.92    1.63
  -1   2   8   11.28    1.38
  -1   2   8   18.22    1.67
   0  -2  -8   43.24    2.11
   0  -2  -8   37.12    2.19
   0  -2  -8   37.57    2.34
   0  -2  -8   43.24    2.11
   0  -2  -8   38.12    2.14
   0  -2  -8   37.12    2.19
   0   2   8   33.34    1.86
   0   2   8   40.15    2.21
   0   2   8   39.86    2.07
   0   2   8   37.63    2.10
   0   2   8   39.86    2.07
   0   2   8   33.34    1.86
   0   2   8   37.60    2.10
   0   2   8   35.24    2.14
  -1  -2  -8   61.84    2.60
  -1  -2  -8   58.79    2.45
  -1  -2  -8   60.57    2.51
  -1  -2  -8   58.58    2.54
  -1  -2  -8   59.65    2.55
  -1  -2  -8   58.58    2.54
  -1  -2  -8   58.79    2.45
  -1  -2  -8   60.57    2.51
   1   2   8   60.40    2.45
   1   2   8   61.74    2.73
   1   2   8   57.92    2.58
   1   2   8   60.40    2.45
   1   2   8   61.74    2.73
   1   2   8   57.59    2.30
   1   2   8   57.59    2.30
   1   2   8   56.82    2.45
  -2  -2  -8   47.77    2.37
  -2  -2  -8   52.40    2.63
  -2  -2  -8   51.99    2.48
  -2  -2  -8   49.89    4.12
  -2  -2  -8   50.84    2.36
  -2  -2  -8   51.99    2.48
  -2  -2  -8   50.84    2.36
  -2  -2  -8   52.39    2.63
   2   2   8   48.85    2.60
   2   2   8   53.99    2.93
   2   2   8   50.02    2.41
   2   2   8   55.73    2.37
   2   2   8   53.99    2.93
   2   2   8   55.73    2.37
   2   2   8   52.51    2.58
   2   2   8   52.51    2.58
  -3  -2  -8   55.85    2.94
  -3  -2  -8   54.78    2.58
  -3  -2  -8   62.58    2.77
  -3  -2  -8   56.63    3.07
  -3  -2  -8   55.85    2.94
  -3  -2  -8   52.00    3.06
  -3  -2  -8   54.78    2.58
  -3  -2  -8   56.63    3.06
   3   2   8   58.36    3.03
   3   2   8   57.31    3.07
   3   2   8   58.36    3.03
   3   2   8   63.21    3.57
   3   2   8   63.22    3.57
   3   2   8   61.58    2.72
  -4  -2  -8   28.67    2.82
  -4  -2  -8   33.82    2.93
  -4  -2  -8   33.81    2.93
  -4  -2  -8   33.13    2.41
  -4  -2  -8   33.13    2.41
  -4  -2  -8   33.25    2.53
   4   2   8   34.15    3.02
   4   2   8   30.79    2.43
   4   2   8   34.15    3.02
   4   2   8   33.12    2.37
   4   2   8   33.14    3.22
   4   2   8   33.12    2.37
   4   2   8   33.14    3.22
   4   2   8   35.14    3.00
  -5  -2  -8    2.11    2.76
  -5  -2  -8    2.08    1.95
  -5  -2  -8   -0.91    1.77
  -5  -2  -8    2.86    2.64
  -5  -2  -8   -0.91    1.77
  -5  -2  -8   -0.51    1.70
  -5  -2  -8   -0.51    1.70
  -5  -2  -8    2.11    2.76
   5   2   8    4.85    3.24
   5   2   8    0.41    2.30
   5   2   8    0.41    2.30
   5   2   8    1.18    1.71
   5   2   8    4.85    3.24
   5   2   8    3.26    2.62
   5   2   8    1.18    1.71
   5   2   8   -1.79    1.66
   4  -3  -8    5.79    2.85
   4  -3  -8    6.52    2.50
   4  -3  -8    5.79    2.85
   4  -3  -8    8.67    3.03
   4  -3  -8    7.24    2.11
   4  -3  -8    6.52    2.50
   4  -3  -8    8.65    2.90
  -4   3   8    6.23    2.49
  -4   3   8    3.81    2.95
  -4   3   8    6.23    2.49
  -4   3   8   -1.68    3.02
  -4   3   8    5.99    4.53
  -4   3   8    3.81    2.95
  -4   3   8   -7.05    2.48
  -4   3   8   -1.68    3.02
   3  -3  -8   68.17    4.95
   3  -3  -8   70.49    3.31
   3  -3  -8   72.86    3.66
   3  -3  -8   64.52    3.12
   3  -3  -8   70.48    3.31
   3  -3  -8   64.52    3.12
   3  -3  -8   68.17    4.95
   3  -3  -8   63.22    4.22
   3  -3  -8   63.23    4.38
   3  -3  -8   65.26    3.25
  -3   3   8   68.46    3.74
  -3   3   8   74.64    3.58
  -3   3   8   75.75    4.21
  -3   3   8   75.75    4.21
  -3   3   8   69.86    4.71
  -3   3   8   69.86    4.71
  -3   3   8   63.55    5.03
  -3   3   8   74.64    3.58
   2  -3  -8   90.16    3.82
   2  -3  -8   91.63    4.13
   2  -3  -8   85.04    3.50
   2  -3  -8   90.16    3.81
   2  -3  -8   89.70    3.93
   2  -3  -8   91.17    4.25
   2  -3  -8   93.93    3.46
   2  -3  -8   86.66    3.77
   2  -3  -8   89.70    3.93
   2  -3  -8   93.93    3.46
  -2   3   8   90.67    3.45
  -2   3   8   80.71    3.56
  -2   3   8   90.67    3.45
  -2   3   8   87.03    4.04
  -2   3   8   87.11    3.59
  -2   3   8   80.71    3.56
   1  -3  -8   11.06    1.90
   1  -3  -8   17.84    2.04
   1  -3  -8   17.84    2.04
   1  -3  -8   13.22    1.39
   1  -3  -8   10.94    1.80
   1  -3  -8   13.22    1.39
  -1   3   8   17.42    2.56
  -1   3   8   18.10    1.81
  -1   3   8   15.36    1.64
  -1   3   8   11.39    1.78
  -1   3   8   11.39    1.78
  -1   3   8   15.36    1.64
  -1   3   8   17.42    2.56
  -1   3   8   17.05    1.74
  -1   3   8   17.82    1.99
  -1   3   8   17.05    1.73
   0  -3  -8   28.80    2.21
   0  -3  -8   28.64    1.93
   0   3   8   29.63    1.99
   0   3   8   31.94    2.08
   0   3   8   32.90    1.93
   0   3   8   32.90    1.93
   0   3   8   29.53    2.09
   0   3   8   31.17    2.16
   0   3   8   29.55    2.09
   0   3   8   31.94    2.08
  -1  -3  -8   12.12    1.32
  -1  -3  -8   13.24    1.44
  -1  -3  -8   13.24    1.44
  -1  -3  -8   12.12    1.32
  -1  -3  -8   10.99    1.37
  -1  -3  -8   12.64    1.53
   1   3   8    9.24    1.13
   1   3   8    9.40    1.55
   1   3   8   11.08    1.40
   1   3   8    9.41    1.55
   1   3   8    9.24    1.13
   1   3   8   11.14    1.42
   1   3   8   11.51    1.33
   1   3   8   11.51    1.33
  -2  -3  -8   98.59    3.19
  -2  -3  -8   98.59    3.19
  -2  -3  -8  101.81    3.37
  -2  -3  -8   84.50    3.65
  -2  -3  -8   99.81    3.38
  -2  -3  -8   84.50    3.65
  -2  -3  -8   99.83    3.38
  -2  -3  -8  101.26    3.27
   2   3   8   99.97    3.24
   2   3   8  102.43    3.42
   2   3   8   96.65    3.15
   2   3   8  100.65    3.32
   2   3   8  111.23    3.99
   2   3   8   96.65    3.15
   2   3   8  111.23    3.98
   2   3   8  100.65    3.32
  -3  -3  -8   24.28    2.26
  -3  -3  -8   24.28    2.26
  -3  -3  -8   23.18    1.99
  -3  -3  -8   25.82    2.16
  -3  -3  -8   24.56    1.88
  -3  -3  -8   25.82    2.16
  -3  -3  -8   24.56    1.88
  -3  -3  -8   22.22    2.02
   3   3   8   25.92    2.15
   3   3   8   25.92    2.15
   3   3   8   19.71    2.43
   3   3   8   19.71    2.44
   3   3   8   21.45    1.79
   3   3   8   21.34    2.64
   3   3   8   20.73    2.04
   3   3   8   21.45    1.79
  -4  -3  -8    5.00    1.90
  -4  -3  -8    5.27    1.39
  -4  -3  -8    5.78    1.56
  -4  -3  -8    6.44    1.84
  -4  -3  -8    4.51    1.91
  -4  -3  -8    4.51    1.91
  -4  -3  -8    6.44    1.84
  -4  -3  -8    5.27    1.39
   4   3   8    4.95    1.75
   4   3   8    7.18    1.46
   4   3   8    4.95    1.75
   4   3   8    3.11    1.81
   4   3   8    3.11    1.81
   4   3   8    4.48    1.42
   4   3   8    7.18    1.46
   4   3   8    6.54    1.87
  -5  -3  -8    6.26    2.54
  -5  -3  -8    9.92    2.58
  -5  -3  -8    7.23    2.53
  -5  -3  -8    7.23    2.52
  -5  -3  -8   10.23    2.02
  -5  -3  -8    6.10    1.88
  -5  -3  -8   10.23    2.02
  -5  -3  -8    6.26    2.54
   5   3   8    7.70    2.55
   5   3   8   10.79    2.51
   5   3   8   10.79    2.51
   5   3   8    9.61    1.91
   5   3   8    6.24    3.05
   5   3   8    7.93    1.84
   5   3   8    9.61    1.91
   5   3   8    6.24    3.05
  -6  -3  -8   56.64    4.86
  -6  -3  -8   51.76    3.70
  -6  -3  -8   48.16    4.17
  -6  -3  -8   61.92    3.82
  -6  -3  -8   61.92    3.82
  -6  -3  -8   53.84    4.46
  -6  -3  -8   47.76    4.33
  -6  -3  -8   53.84    4.46
  -6  -3  -8   56.63    4.86
   6   3   8   46.50    4.40
   6   3   8   57.46    4.39
   6   3   8   56.93    3.75
   6   3   8   57.46    4.39
   6   3   8   47.46    3.42
   6   3   8   54.43    5.15
   6   3   8   47.46    3.42
   6   3   8   54.43    5.15
   4  -4  -8   -1.60    2.88
   4  -4  -8   -0.69    2.02
   4  -4  -8   -1.60    2.88
   4  -4  -8    3.37    2.64
   4  -4  -8   -0.99    3.23
   4  -4  -8   -0.99    3.10
   4  -4  -8    3.37    2.64
  -4   4   8   -5.49    2.98
  -4   4   8    5.59    2.76
  -4   4   8    3.53    2.48
  -4   4   8    3.53    2.48
  -4   4   8    3.64    3.12
  -4   4   8   -5.49    2.98
   3  -4  -8   31.51    3.54
   3  -4  -8   31.33    3.29
   3  -4  -8   31.33    3.42
   3  -4  -8   31.51    3.54
   3  -4  -8   27.62    2.39
   3  -4  -8   32.97    3.01
  -3   4   8   35.60    3.45
  -3   4   8   32.67    3.37
  -3   4   8   36.92    3.61
  -3   4   8   32.23    2.56
  -3   4   8   32.23    2.56
  -3   4   8   35.60    3.45
  -3   4   8   32.63    2.73
  -3   4   8   32.67    3.37
   2  -4  -8   22.38    2.29
   2  -4  -8   16.94    2.40
   2  -4  -8   22.38    2.29
   2  -4  -8   16.94    2.40
   2  -4  -8   22.27    2.25
   2  -4  -8   21.45    2.26
   2  -4  -8   22.92    2.63
   2  -4  -8   23.00    2.74
  -2   4   8   25.25    2.66
  -2   4   8   21.69    2.20
  -2   4   8   17.21    3.51
  -2   4   8   21.69    2.20
  -2   4   8   24.78    2.76
  -2   4   8   20.14    2.24
  -2   4   8   17.21    3.51
  -2   4   8   25.25    2.66
   1  -4  -8    4.44    1.08
   1  -4  -8    3.68    1.64
   1  -4  -8    4.44    1.08
   1  -4  -8    4.91    1.39
   1  -4  -8    3.97    1.69
   1  -4  -8    6.62    1.78
   1  -4  -8    7.05    1.79
   1  -4  -8    3.68    1.64
   1  -4  -8    7.05    1.79
   1  -4  -8    3.99    1.76
  -1   4   8    5.37    1.82
  -1   4   8    5.18    1.74
  -1   4   8    3.49    1.36
  -1   4   8    4.89    1.35
  -1   4   8    5.18    1.74
  -1   4   8    4.89    1.35
  -1   4   8    5.37    1.82
  -1   4   8    2.84    1.66
   0  -4  -8   83.46    3.24
   0  -4  -8   84.40    3.37
   0  -4  -8   85.10    2.90
   0  -4  -8   86.19    3.81
   0  -4  -8   85.10    2.90
   0  -4  -8   84.34    3.86
   0  -4  -8   84.34    3.86
   0  -4  -8   78.51    3.18
   0  -4  -8   84.32    2.94
   0  -4  -8   78.51    3.18
   0   4   8   79.95    3.02
   0   4   8   78.96    3.17
   0   4   8   81.19    3.25
   0   4   8   88.14    3.24
   0   4   8   88.14    3.24
   0   4   8   83.36    2.90
   0   4   8   78.99    3.17
   0   4   8   83.36    2.90
  -1  -4  -8  144.68    5.25
  -1  -4  -8  155.28    4.25
  -1  -4  -8  145.73    4.29
  -1  -4  -8  144.68    5.25
  -1  -4  -8  140.66    5.20
  -1  -4  -8  155.28    4.25
  -1  -4  -8  142.53    5.28
  -1  -4  -8  142.55    5.28
  -1  -4  -8  157.93    4.24
   1   4   8  159.42    4.15
   1   4   8  150.95    4.24
   1   4   8  157.15    4.21
   1   4   8  159.42    4.15
   1   4   8  150.95    4.24
   1   4   8  150.66    4.58
   1   4   8  146.25    4.28
   1   4   8  150.65    4.58
  -2  -4  -8    2.11    1.04
  -2  -4  -8    2.31    1.43
  -2  -4  -8    2.11    1.04
  -2  -4  -8    1.17    0.97
  -2  -4  -8    2.30    1.43
   2   4   8    1.82    1.20
   2   4   8    2.18    1.08
   2   4   8    1.06    1.43
   2   4   8    1.52    0.98
   2   4   8    1.07    1.43
   2   4   8    1.82    1.20
   2   4   8    1.52    0.98
   2   4   8    2.89    1.04
  -3  -4  -8   16.96    1.82
  -3  -4  -8   16.96    1.82
  -3  -4  -8   15.65    1.78
  -3  -4  -8   13.11    1.52
  -3  -4  -8   13.11    1.52
   3   4   8   14.41    2.24
   3   4   8   12.30    1.64
   3   4   8   11.13    1.44
   3   4   8   12.74    1.64
   3   4   8   11.13    1.44
   3   4   8   12.74    1.64
   3   4   8   14.41    2.23
   3   4   8   14.07    1.78
  -4  -4  -8   43.32    2.86
  -4  -4  -8   40.50    3.09
  -4  -4  -8   40.51    3.09
  -4  -4  -8   38.50    2.23
  -4  -4  -8   38.50    2.23
  -4  -4  -8   43.32    2.86
   4   4   8   41.73    2.89
   4   4   8   42.37    2.41
   4   4   8   45.17    2.44
   4   4   8   45.17    2.44
   4   4   8   35.12    2.72
   4   4   8   35.12    2.72
  -5  -4  -8    9.21    2.81
  -5  -4  -8    7.02    1.63
  -5  -4  -8    5.28    2.60
  -5  -4  -8    6.64    1.93
  -5  -4  -8    6.64    1.92
  -5  -4  -8    7.02    1.63
  -5  -4  -8    9.22    2.81
   5   4   8    5.94    1.73
   5   4   8    5.94    1.73
   5   4   8    9.66    2.56
   5   4   8    4.23    1.63
   5   4   8    9.66    2.56
   5   4   8    7.21    2.39
  -6  -4  -8    3.73    2.77
  -6  -4  -8    0.08    2.82
  -6  -4  -8    4.24    2.04
  -6  -4  -8    6.60    3.35
  -6  -4  -8    4.81    3.27
  -6  -4  -8    6.60    3.35
  -6  -4  -8    4.24    2.04
  -6  -4  -8    4.59    3.20
  -6  -4  -8    0.08    2.82
  -6  -4  -8    3.57    3.24
  -6  -4  -8    4.00    2.92
  -6  -4  -8    3.54    3.24
   6   4   8    3.94    3.08
   6   4   8    2.79    3.91
   6   4   8    6.33    3.12
   6   4   8    4.74    1.98
   6   4   8    3.52    1.93
   6   4   8    4.74    1.98
   6   4   8    2.79    3.91
   6   4   8    6.33    3.12
   3  -5  -8   32.33    3.81
   3  -5  -8   42.48    3.69
   3  -5  -8   32.26    3.66
  -3   5   8   30.79    2.69
  -3   5   8   33.72    3.64
  -3   5   8   32.92    3.94
  -3   5   8   32.92    3.94
  -3   5   8   33.72    3.64
  -3   5   8   37.43    3.25
  -3   5   8   30.79    2.69
  -3   5   8   34.69    3.83
   2  -5  -8    0.27    1.61
   2  -5  -8    0.91    1.65
   2  -5  -8    0.91    1.64
   2  -5  -8    2.74    2.40
   2  -5  -8    4.68    2.04
   2  -5  -8    4.68    2.04
   2  -5  -8   -0.57    1.60
   2  -5  -8    2.75    2.51
  -2   5   8   -0.07    2.03
  -2   5   8   -1.07    1.61
  -2   5   8    1.35    1.68
  -2   5   8   -1.07    1.61
  -2   5   8   -0.07    2.03
  -2   5   8   -2.63    2.23
  -2   5   8   -0.83    2.06
  -2   5   8   -2.63    2.23
   1  -5  -8   24.69    2.17
   1  -5  -8   23.07    2.45
   1  -5  -8   24.69    2.17
   1  -5  -8   21.71    2.42
   1  -5  -8   30.71    2.81
   1  -5  -8   21.71    2.42
   1  -5  -8   30.70    2.81
   1  -5  -8   23.24    2.56
   1  -5  -8   26.20    2.34
   1  -5  -8   28.53    2.66
  -1   5   8   20.96    2.32
  -1   5   8   22.99    2.08
  -1   5   8   25.09    2.84
  -1   5   8   25.09    2.84
  -1   5   8   26.95    2.14
  -1   5   8   23.74    2.45
  -1   5   8   20.96    2.32
  -1   5   8   26.95    2.14
   0  -5  -8   50.24    3.47
   0  -5  -8   42.58    3.36
   0  -5  -8   50.86    2.28
   0  -5  -8   49.02    2.69
   0  -5  -8   51.65    2.32
   0  -5  -8   50.24    3.47
   0  -5  -8   49.02    2.69
   0  -5  -8   47.96    2.80
   0  -5  -8   47.79    2.69
   0  -5  -8   50.86    2.28
   0   5   8   47.66    2.87
   0   5   8   48.22    2.25
   0   5   8   58.36    2.77
   0   5   8   58.36    2.77
   0   5   8   51.75    2.50
   0   5   8   47.69    2.86
   0   5   8   48.22    2.25
  -1  -5  -8   58.99    3.27
  -1  -5  -8   62.25    3.35
  -1  -5  -8   62.43    2.61
  -1  -5  -8   62.43    2.61
  -1  -5  -8   60.45    2.51
  -1  -5  -8   64.21    2.39
  -1  -5  -8   60.45    2.51
  -1  -5  -8   62.25    3.35
   1   5   8   64.40    2.37
   1   5   8   56.86    2.57
   1   5   8   60.15    2.68
   1   5   8   54.18    3.01
   1   5   8   54.17    3.01
   1   5   8   60.15    2.68
   1   5   8   64.40    2.37
   1   5   8   64.22    2.46
  -2  -5  -8    2.35    1.04
  -2  -5  -8    3.95    1.23
  -2  -5  -8    5.58    1.17
  -2  -5  -8    1.85    2.40
  -2  -5  -8    1.85    2.40
  -2  -5  -8    4.63    1.19
  -2  -5  -8    2.35    1.04
  -2  -5  -8    3.95    1.23
  -2  -5  -8    3.97    2.48
   2   5   8    4.84    1.18
   2   5   8    4.08    1.19
   2   5   8    4.00    1.39
   2   5   8    4.00    1.38
   2   5   8    4.56    1.15
   2   5   8    4.09    1.28
   2   5   8    4.08    1.19
   2   5   8    4.84    1.18
  -3  -5  -8   13.51    1.51
  -3  -5  -8   12.00    1.74
  -3  -5  -8   15.75    1.65
  -3  -5  -8   16.69    2.25
  -3  -5  -8   16.04    1.52
  -3  -5  -8   14.39    2.26
  -3  -5  -8   12.00    1.75
  -3  -5  -8   13.51    1.51
  -3  -5  -8   17.32    1.52
  -3  -5  -8   14.39    2.26
  -3  -5  -8   16.04    1.52
   3   5   8   16.31    2.35
   3   5   8   22.23    1.76
   3   5   8   14.56    1.64
   3   5   8   22.23    1.76
   3   5   8   16.31    2.35
   3   5   8   15.94    1.69
   3   5   8   15.60    1.50
   3   5   8   14.56    1.64
  -4  -5  -8   51.03    3.47
  -4  -5  -8   57.08    2.55
  -4  -5  -8   57.36    3.09
  -4  -5  -8   53.53    3.37
  -4  -5  -8   56.87    2.53
  -4  -5  -8   56.93    3.16
  -4  -5  -8   56.93    3.16
  -4  -5  -8   51.03    3.47
  -4  -5  -8   53.52    3.36
  -4  -5  -8   57.59    3.50
  -4  -5  -8   57.08    2.55
   4   5   8   56.04    2.51
   4   5   8   56.99    4.13
   4   5   8   53.97    3.19
   4   5   8   56.99    4.13
   4   5   8   58.46    2.88
   4   5   8   56.04    2.51
   4   5   8   58.46    2.88
   4   5   8   57.25    2.59
  -5  -5  -8   13.37    2.38
  -5  -5  -8   16.99    1.84
  -5  -5  -8   14.98    3.06
  -5  -5  -8   12.83    3.08
  -5  -5  -8   16.99    1.84
  -5  -5  -8   18.63    2.74
  -5  -5  -8   22.40    1.98
  -5  -5  -8   18.63    2.73
  -5  -5  -8   13.68    2.47
  -5  -5  -8   12.83    3.08
   5   5   8   14.77    2.39
   5   5   8   20.47    1.97
   5   5   8   16.28    1.79
   5   5   8   22.25    2.69
   5   5   8   20.47    1.97
   5   5   8   22.25    2.69
  -6  -5  -8   18.86    3.00
  -6  -5  -8   18.51    3.49
  -6  -5  -8   26.25    2.48
  -6  -5  -8   23.74    3.65
  -6  -5  -8   26.25    2.48
  -6  -5  -8   23.73    3.65
  -6  -5  -8   18.51    3.49
  -6  -5  -8   18.70    2.84
  -6  -5  -8   19.15    3.13
  -6  -5  -8   18.70    2.84
  -6  -5  -8   23.13    3.50
  -6  -5  -8   20.64    2.33
   6   5   8   21.46    4.40
   6   5   8   21.46    4.40
   6   5   8   22.50    3.15
   6   5   8   19.57    2.32
   6   5   8   19.57    2.32
   6   5   8   22.60    3.47
   6   5   8   22.50    3.15
   6   5   8   20.50    2.34
   3  -6  -8   10.88    2.79
   3  -6  -8   10.34    3.23
   3  -6  -8   12.11    5.33
   3  -6  -8   14.25    2.78
   3  -6  -8   14.25    2.78
   3  -6  -8   10.44    3.39
   3  -6  -8   12.11    5.33
  -3   6   8   13.91    3.35
  -3   6   8    9.79    3.26
  -3   6   8    5.55    3.21
  -3   6   8    5.55    3.21
  -3   6   8   10.44    2.70
  -3   6   8    9.79    3.26
   2  -6  -8   53.62    3.42
   2  -6  -8   53.62    3.42
   2  -6  -8   50.96    4.58
   2  -6  -8   60.69    3.96
   2  -6  -8   51.21    4.43
   2  -6  -8   60.69    3.96
   2  -6  -8   57.02    3.47
  -2   6   8   53.32    3.30
  -2   6   8   46.81    3.96
  -2   6   8   45.02    4.13
  -2   6   8   54.74    3.76
  -2   6   8   55.21    3.95
  -2   6   8   45.02    4.13
  -2   6   8   55.21    3.95
  -2   6   8   53.32    3.30
   1  -6  -8    8.88    1.82
   1  -6  -8    8.56    2.26
   1  -6  -8    5.84    2.02
   1  -6  -8    5.84    2.02
   1  -6  -8    8.57    2.26
   1  -6  -8    8.88    1.82
   1  -6  -8   12.05    2.47
   1  -6  -8   12.03    2.36
   1  -6  -8   10.91    2.48
  -1   6   8   10.95    1.80
  -1   6   8    7.10    2.51
  -1   6   8    7.21    1.73
  -1   6   8    7.40    2.15
  -1   6   8    8.00    2.33
  -1   6   8    7.10    2.51
  -1   6   8    7.21    1.73
  -1   6   8    8.00    2.33
   0  -6  -8   30.18    3.10
   0  -6  -8   34.13    2.29
   0  -6  -8   29.94    2.56
   0  -6  -8   29.94    2.56
   0  -6  -8   34.13    2.29
   0  -6  -8   33.87    3.33
   0  -6  -8   33.88    3.33
   0   6   8   34.29    2.44
   0   6   8   29.93    2.29
   0   6   8   34.81    3.03
   0   6   8   35.78    2.60
   0   6   8   34.29    2.43
   0   6   8   35.13    2.06
   0   6   8   34.81    3.03
   0   6   8   35.13    2.06
  -1  -6  -8   46.76    2.05
  -1  -6  -8   44.43    2.60
  -1  -6  -8   44.70    4.38
  -1  -6  -8   44.82    2.46
  -1  -6  -8   44.74    4.39
  -1  -6  -8   46.76    2.05
  -1  -6  -8   44.97    2.56
  -1  -6  -8   44.43    2.60
  -1  -6  -8   45.99    2.17
  -1  -6  -8   43.99    3.65
   1   6   8   44.34    2.54
   1   6   8   45.72    2.13
   1   6   8   41.63    2.58
   1   6   8   44.29    2.24
   1   6   8   45.72    2.13
   1   6   8   43.85    2.95
   1   6   8   43.90    2.96
   1   6   8   44.34    2.54
  -2  -6  -8    2.96    1.07
  -2  -6  -8    1.24    1.04
  -2  -6  -8    1.39    2.21
  -2  -6  -8    2.96    1.07
  -2  -6  -8    4.85    2.35
  -2  -6  -8    4.85    2.35
   2   6   8    2.20    1.23
   2   6   8    2.20    1.23
   2   6   8    0.90    1.10
   2   6   8    2.08    1.38
   2   6   8    1.47    1.02
   2   6   8    1.47    1.02
   2   6   8    2.08    1.37
   2   6   8    0.85    1.02
  -3  -6  -8    5.04    2.45
  -3  -6  -8    5.53    1.30
  -3  -6  -8    4.97    1.32
  -3  -6  -8    6.94    1.26
  -3  -6  -8    7.28    2.52
  -3  -6  -8    6.94    1.26
  -3  -6  -8    5.04    1.21
  -3  -6  -8    5.05    2.46
  -3  -6  -8    5.53    1.30
   3   6   8    4.82    1.21
   3   6   8    6.98    1.23
   3   6   8    5.16    1.32
   3   6   8    6.16    1.40
   3   6   8    4.82    1.21
   3   6   8    5.16    1.32
  -4  -6  -8   45.80    2.71
  -4  -6  -8   45.36    2.86
  -4  -6  -8   45.40    2.29
  -4  -6  -8   45.42    2.19
  -4  -6  -8   46.19    4.08
  -4  -6  -8   45.80    2.71
  -4  -6  -8   45.42    2.19
  -4  -6  -8   44.12    4.11
  -4  -6  -8   40.53    3.35
  -4  -6  -8   40.48    3.35
  -4  -6  -8   44.14    4.11
   4   6   8   43.64    2.63
   4   6   8   45.01    3.32
   4   6   8   45.01    3.32
   4   6   8   45.20    2.28
   4   6   8   47.46    2.52
   4   6   8   47.46    2.52
   4   6   8   43.64    2.63
   4   6   8   42.92    2.87
  -5  -6  -8   21.17    2.58
  -5  -6  -8   21.17    2.58
  -5  -6  -8   22.51    1.92
  -5  -6  -8   16.27    3.07
  -5  -6  -8   25.61    3.44
  -5  -6  -8   22.67    2.42
  -5  -6  -8   22.51    1.92
  -5  -6  -8   22.82    2.52
  -5  -6  -8   25.61    3.44
  -5  -6  -8   14.21    2.67
  -5  -6  -8   18.54    1.85
  -5  -6  -8   14.22    2.67
   5   6   8   25.79    2.50
   5   6   8   25.19    3.67
   5   6   8   22.79    2.60
   5   6   8   25.79    2.50
   5   6   8   19.90    1.87
   5   6   8   22.83    1.87
   5   6   8   27.34    3.24
   5   6   8   27.34    3.23
   5   6   8   25.19    3.67
   5   6   8   22.83    1.87
   2  -7  -8   35.42    2.99
   2  -7  -8   34.75    3.54
   2  -7  -8   30.51    3.50
   2  -7  -8   30.51    3.50
   2  -7  -8   35.42    2.99
   2  -7  -8   35.01    3.71
   2  -7  -8   32.56    3.01
  -2   7   8   31.24    3.88
  -2   7   8   31.24    3.88
  -2   7   8   31.99    3.10
  -2   7   8   35.52    3.12
  -2   7   8   30.20    3.58
  -2   7   8   39.26    3.85
  -2   7   8   39.26    3.85
  -2   7   8   35.52    3.12
   1  -7  -8   18.14    2.88
   1  -7  -8   18.14    2.88
  -1   7   8   20.92    2.32
  -1   7   8   22.94    2.69
  -1   7   8   16.99    2.04
  -1   7   8   16.99    2.04
  -1   7   8   13.80    2.86
  -1   7   8   22.94    2.69
  -1   7   8   13.80    2.86
  -1   7   8   17.00    2.70
   0  -7  -8    5.03    2.46
   0  -7  -8    1.23    1.43
   0  -7  -8    2.32    1.87
   0  -7  -8    4.75    1.86
   0  -7  -8    4.98    2.40
   0  -7  -8    2.31    1.95
   0  -7  -8    4.75    1.86
   0  -7  -8    1.23    1.43
   0  -7  -8    5.03    2.46
   0   7   8    2.39    1.53
   0   7   8    4.21    2.23
   0   7   8    4.21    2.23
   0   7   8    2.16    1.24
   0   7   8   -0.27    1.59
   0   7   8    3.04    1.99
   0   7   8    3.04    1.99
   0   7   8    2.16    1.24
  -1  -7  -8   51.69    2.85
  -1  -7  -8   49.47    3.51
  -1  -7  -8   49.46    3.51
  -1  -7  -8   46.75    2.91
  -1  -7  -8   54.29    2.35
  -1  -7  -8   54.29    2.35
  -1  -7  -8   58.22    2.41
  -1  -7  -8   46.68    2.81
  -1  -7  -8   46.11    3.41
  -1  -7  -8   51.69    2.85
   1   7   8   58.58    2.84
   1   7   8   54.13    2.88
   1   7   8   52.97    2.39
   1   7   8   47.44    2.20
   1   7   8   47.44    2.20
   1   7   8   58.58    2.84
  -2  -7  -8   12.68    1.56
  -2  -7  -8   13.80    2.77
  -2  -7  -8   13.18    1.68
  -2  -7  -8   12.28    1.32
  -2  -7  -8   12.65    1.50
  -2  -7  -8    9.52    1.28
  -2  -7  -8    7.67    2.71
  -2  -7  -8   13.18    1.68
  -2  -7  -8    7.64    2.71
  -2  -7  -8    9.52    1.28
   2   7   8   11.59    1.26
   2   7   8   11.84    1.52
   2   7   8   11.59    1.26
   2   7   8    9.70    1.31
   2   7   8   11.57    1.55
   2   7   8   11.57    1.55
  -3  -7  -8   55.37    2.42
  -3  -7  -8   55.37    2.42
  -3  -7  -8   66.70    4.42
  -3  -7  -8   66.78    4.43
  -3  -7  -8   58.32    4.27
   3   7   8   55.35    2.55
   3   7   8   57.92    2.35
   3   7   8   56.65    2.38
   3   7   8   57.92    2.35
  -4  -7  -8    1.99    1.61
  -4  -7  -8    1.99    1.61
  -4  -7  -8    2.21    1.12
  -4  -7  -8    3.44    1.99
  -4  -7  -8    1.41    2.09
  -4  -7  -8    1.41    2.09
  -4  -7  -8    1.50    1.69
   4   7   8    1.00    1.14
   4   7   8   -1.07    2.64
   4   7   8    2.08    1.12
   4   7   8   -1.06    2.64
   4   7   8    1.00    1.14
   4   7   8    0.74    2.57
   4   7   8    1.85    1.46
   4   7   8    0.74    2.57
  -5  -7  -8    8.87    2.75
  -5  -7  -8   10.75    2.21
  -5  -7  -8    8.86    2.75
  -5  -7  -8   13.80    3.41
  -5  -7  -8   10.75    2.21
  -5  -7  -8    6.53    3.15
  -5  -7  -8   13.81    3.41
  -5  -7  -8   10.15    1.46
  -5  -7  -8    9.46    1.97
  -5  -7  -8    9.48    2.05
   5   7   8    7.19    3.29
   5   7   8   11.75    1.44
   5   7   8    7.18    3.28
   5   7   8   11.75    1.44
   5   7   8    9.25    2.05
   5   7   8   13.81    3.71
   5   7   8   13.81    3.71
   5   7   8   11.67    1.53
   1  -8  -8    1.11    2.10
   1  -8  -8    2.00    2.77
   1  -8  -8    2.00    2.77
   1  -8  -8    3.12    1.97
   1  -8  -8    1.11    2.20
   1  -8  -8    5.62    2.05
   1  -8  -8    5.62    2.05
  -1   8   8    3.49    2.46
  -1   8   8    4.02    2.13
  -1   8   8    4.02    2.13
  -1   8   8    4.74    2.60
  -1   8   8    1.70    2.05
  -1   8   8    3.49    2.46
   0  -8  -8    6.20    2.19
   0  -8  -8    6.20    2.19
   0  -8  -8    6.68    1.78
   0  -8  -8    6.68    1.78
   0  -8  -8    6.55    1.64
   0  -8  -8    5.59    2.14
   0  -8  -8    5.66    2.25
   0   8   8    6.50    1.67
   0   8   8    6.50    1.67
   0   8   8   11.39    2.70
   0   8   8    8.81    2.26
   0   8   8    4.62    2.06
   0   8   8   11.39    2.70
   0   8   8    8.81    2.26
   0   8   8    6.27    1.77
  -1  -8  -8   12.93    1.59
  -1  -8  -8   12.93    1.59
  -1  -8  -8   15.35    3.03
  -1  -8  -8   14.47    2.02
  -1  -8  -8   14.42    1.93
  -1  -8  -8   16.26    2.08
  -1  -8  -8   12.79    3.07
  -1  -8  -8   16.26    2.08
  -1  -8  -8   12.79    3.07
   1   8   8   13.89    1.59
   1   8   8   13.10    1.39
   1   8   8   13.10    1.39
   1   8   8   12.53    2.45
   1   8   8   12.53    2.45
   1   8   8   16.92    2.09
  -2  -8  -8   31.74    1.87
  -2  -8  -8   35.48    3.80
  -2  -8  -8   33.90    1.93
  -2  -8  -8   34.77    3.75
  -2  -8  -8   33.90    1.93
  -2  -8  -8   35.49    3.81
  -2  -8  -8   32.09    2.15
  -2  -8  -8   32.09    2.23
   2   8   8   36.41    2.39
   2   8   8   38.18    2.36
   2   8   8   29.40    1.82
   2   8   8   29.40    1.82
   2   8   8   38.18    2.36
   2   8   8   33.14    2.03
  -3  -8  -8    0.18    1.16
  -3  -8  -8    0.18    1.16
  -3  -8  -8    2.73    2.89
  -3  -8  -8    2.19    2.74
  -3  -8  -8    2.64    1.05
  -3  -8  -8    0.49    0.94
  -3  -8  -8    2.73    2.89
  -3  -8  -8    0.49    0.99
   3   8   8    2.79    1.17
   3   8   8    1.21    1.08
   3   8   8    2.76    1.05
   3   8   8    2.76    1.05
   3   8   8    2.65    1.99
   3   8   8    1.21    1.08
   3   8   8    2.26    1.18
   3   8   8    2.64    1.99
  -4  -8  -8   70.69    5.27
  -4  -8  -8   88.77    5.54
  -4  -8  -8   88.80    5.53
   4   8   8   73.01    4.95
   4   8   8   72.97    4.95
   4   8   8   72.32    4.99
   4   8   8   72.32    4.99
  -5  -8  -8   -2.80    3.18
  -5  -8  -8   -0.62    3.31
  -5  -8  -8    0.95    1.52
  -5  -8  -8    0.95    1.52
  -5  -8  -8   -0.57    3.30
  -5  -8  -8    0.76    1.13
  -5  -8  -8    0.76    1.13
   5   8   8    5.30    3.78
   5   8   8    0.12    0.97
   5   8   8    5.30    3.78
   5   8   8   -0.02    1.30
   5   8   8   -1.06    1.17
   5   8   8   -0.02    1.30
   5   8   8    7.93    3.85
   5   8   8    1.00    1.52
   5   8   8    7.92    3.85
   5   8   8    0.12    0.97
   0  -9  -8   35.07    3.02
   0  -9  -8   45.07    3.78
   0  -9  -8   34.16    3.10
   0  -9  -8   35.07    3.02
   0  -9  -8   33.73    2.95
   0  -9  -8   45.07    3.78
   0  -9  -8   38.25    2.95
   0   9   8   38.94    3.79
   0   9   8   35.60    3.93
   0   9   8   42.37    3.14
   0   9   8   47.02    3.90
   0   9   8   42.28    2.76
   0   9   8   38.91    3.79
   0   9   8   35.60    3.93
   0   9   8   42.28    2.76
   0   9   8   36.88    3.12
   0   9   8   36.88    3.12
  -1  -9  -8    3.14    1.41
  -1  -9  -8    2.59    1.77
  -1  -9  -8    0.53    1.43
  -1  -9  -8    0.53    1.43
  -1  -9  -8    2.54    1.87
   1   9   8    4.22    1.80
   1   9   8    3.86    2.00
   1   9   8    3.40    2.92
   1   9   8    1.94    1.77
   1   9   8    4.22    1.80
   1   9   8    3.40    2.92
   1   9   8    1.94    1.77
   1   9   8    2.84    1.45
  -2  -9  -8    2.46    1.13
  -2  -9  -8    5.59    1.68
  -2  -9  -8    2.46    1.13
  -2  -9  -8    3.85    1.49
  -2  -9  -8    1.23    2.54
  -2  -9  -8   -0.10    2.51
  -2  -9  -8    5.54    1.62
  -2  -9  -8    3.85    1.49
  -2  -9  -8    1.23    2.54
   2   9   8    4.17    1.26
   2   9   8    4.17    1.26
   2   9   8    3.67    2.83
   2   9   8    3.07    0.99
   2   9   8    5.34    1.54
   2   9   8    3.07    0.99
   2   9   8    1.98    1.15
   2   9   8    3.68    2.83
  -3  -9  -8    1.36    0.80
  -3  -9  -8    5.54    3.34
  -3  -9  -8    4.47    3.21
  -3  -9  -8    1.36    0.80
  -3  -9  -8    0.41    0.79
  -3  -9  -8    0.41    0.79
  -3  -9  -8    5.60    3.34
   3   9   8    1.09    0.93
   3   9   8   -3.63    2.72
   3   9   8   -2.26    2.14
   3   9   8   -3.63    2.72
   3   9   8   -2.26    2.14
   3   9   8    0.11    0.87
  -4  -9  -8   30.85    4.15
  -4  -9  -8   26.88    4.30
  -4  -9  -8   26.88    4.30
   4   9   8   19.72    3.86
   4   9   8   19.72    3.86
   4   9   8   37.24    4.15
   4   9   8   37.24    4.15
   3   5  -9   34.15    3.16
   3   5  -9   34.15    3.16
   3   5  -9   33.52    3.37
   3   5  -9   30.32    3.31
  -3  -5   9   29.72    3.13
  -3  -5   9   29.72    3.13
  -3  -5   9   25.66    3.36
  -3  -5   9   38.91    4.41
  -3  -5   9   30.39    3.35
  -3  -5   9   38.91    4.41
   2   5  -9   13.32    2.57
   2   5  -9   10.57    2.64
   2   5  -9    3.37    2.19
   2   5  -9   13.32    2.57
   2   5  -9    2.02    2.31
   2   5  -9    3.37    2.19
  -2  -5   9    3.65    2.57
  -2  -5   9   10.45    3.02
  -2  -5   9    7.27    2.52
  -2  -5   9    9.76    2.74
  -2  -5   9    7.12    2.55
  -2  -5   9   10.45    3.02
  -2  -5   9    7.12    2.55
  -2  -5   9    3.65    2.57
   1   5  -9   25.49    3.10
   1   5  -9   39.16    3.21
   1   5  -9   25.49    3.10
   1   5  -9   29.98    3.22
   1   5  -9   32.25    3.08
   1   5  -9   39.16    3.21
  -1  -5   9   33.15    2.65
  -1  -5   9   31.98    3.45
  -1  -5   9   33.15    2.65
  -1  -5   9   29.73    3.18
  -1  -5   9   29.73    3.18
  -1  -5   9   31.76    3.10
   0   5  -9   12.81    1.61
   0   5  -9   10.89    1.94
   0   5  -9   15.55    2.50
   0   5  -9   11.49    2.97
   0   5  -9   10.89    1.94
   0   5  -9   12.81    1.61
   0   5  -9   11.49    2.97
   0   5  -9   14.62    3.07
   0  -5   9   14.73    2.91
   0  -5   9    8.75    3.02
   0  -5   9   12.77    2.38
   0  -5   9   15.90    2.94
   0  -5   9   15.90    2.94
   0  -5   9   12.77    2.38
   0  -5   9   14.73    2.91
   0  -5   9   14.87    2.65
  -1   5  -9   18.99    2.74
  -1   5  -9   26.23    2.46
  -1   5  -9   19.38    3.73
  -1   5  -9   26.23    2.47
  -1   5  -9   25.97    3.65
  -1   5  -9   23.01    2.90
  -1   5  -9   25.97    3.65
  -1   5  -9   18.99    2.74
   1  -5   9   16.03    3.53
   1  -5   9   18.20    2.79
   1  -5   9   16.03    3.53
   1  -5   9   22.52    3.82
   1  -5   9   25.83    3.03
   1  -5   9   25.83    3.03
   1  -5   9   20.12    2.78
   1  -5   9   20.12    2.78
   4   4  -9   33.38    3.32
  -4  -4   9   27.52    3.82
   3   4  -9   -1.39    2.09
   3   4  -9    0.52    2.03
   3   4  -9   -1.39    2.09
   3   4  -9   -4.00    2.27
   3   4  -9   -4.00    2.27
  -3  -4   9    2.81    2.32
  -3  -4   9   -0.16    2.15
  -3  -4   9    8.05    3.07
  -3  -4   9    8.05    3.07
  -3  -4   9   -0.16    2.15
  -3  -4   9    5.33    2.46
   2   4  -9   18.42    2.46
   2   4  -9   11.69    2.35
   2   4  -9   11.69    2.35
   2   4  -9   15.12    2.51
   2   4  -9   19.25    2.43
   2   4  -9   18.42    2.46
  -2  -4   9   17.11    3.23
  -2  -4   9   18.46    2.57
  -2  -4   9   17.11    3.23
  -2  -4   9   16.99    2.62
  -2  -4   9   18.46    2.57
  -2  -4   9   18.86    2.56
   1   4  -9    2.76    1.40
   1   4  -9    3.40    2.20
   1   4  -9    3.57    2.10
   1   4  -9   -0.07    1.63
   1   4  -9    2.76    1.40
   1   4  -9    3.57    2.10
  -1  -4   9    0.76    1.94
  -1  -4   9    2.78    2.14
   0   4  -9   93.35    3.96
   0   4  -9   92.16    4.01
   0   4  -9   92.16    4.01
   0   4  -9   92.32    3.00
   0   4  -9   95.53    4.22
   0   4  -9   93.35    3.96
   0   4  -9   93.74    4.10
   0   4  -9   92.36    3.00
   0  -4   9   89.33    4.71
   0  -4   9   66.92    4.30
   0  -4   9   90.34    3.87
   0  -4   9   95.62    4.19
   0  -4   9  100.56    4.88
   0  -4   9   66.92    4.30
   0  -4   9  100.56    4.88
   0  -4   9   90.34    3.87
  -1   4  -9    0.36    1.86
  -1   4  -9    2.89    1.63
  -1   4  -9   -0.19    2.53
  -1   4  -9   -1.02    2.61
  -1   4  -9   -0.19    2.53
  -1   4  -9    2.89    1.63
  -1   4  -9    0.36    1.86
  -1   4  -9    0.91    1.87
   1  -4   9   -2.14    1.96
   1  -4   9   -0.21    2.49
   1  -4   9    2.26    2.42
   1  -4   9    0.76    1.83
   1  -4   9   -2.56    1.70
   1  -4   9    2.26    2.42
   1  -4   9   -0.21    2.49
   1  -4   9   -2.56    1.70
  -2   4  -9   23.31    3.75
  -2   4  -9   19.94    2.71
  -2   4  -9   23.31    3.75
  -2   4  -9   20.09    3.05
  -2   4  -9   19.94    2.71
  -2   4  -9   22.60    2.59
  -2   4  -9   21.55    2.67
  -2   4  -9   22.61    2.59
   2  -4   9   21.38    2.63
   2  -4   9   23.97    3.93
   2  -4   9   21.38    2.63
   2  -4   9   14.91    3.63
   2  -4   9   14.91    3.63
   2  -4   9   17.87    2.84
   4   3  -9   21.24    2.73
   4   3  -9   22.75    2.91
   4   3  -9   28.16    3.47
   4   3  -9   28.35    3.64
   4   3  -9   19.60    3.16
   4   3  -9   22.75    2.91
   4   3  -9   19.60    3.16
  -4  -3   9   27.87    4.45
  -4  -3   9   27.84    3.70
  -4  -3   9   27.87    4.45
  -4  -3   9   23.27    2.89
  -4  -3   9   22.04    2.75
  -4  -3   9   25.76    3.38
  -4  -3   9   22.04    2.75
  -4  -3   9   25.76    3.38
   3   3  -9   36.56    3.28
   3   3  -9   48.89    3.32
   3   3  -9   48.89    3.32
   3   3  -9   43.28    3.42
   3   3  -9   36.56    3.28
  -3  -3   9   49.06    4.33
  -3  -3   9   42.10    3.45
  -3  -3   9   51.60    3.36
  -3  -3   9   42.10    3.45
  -3  -3   9   44.91    3.79
  -3  -3   9   49.06    4.33
   2   3  -9   26.65    2.57
   2   3  -9   26.65    2.57
   2   3  -9   24.55    2.55
   2   3  -9   24.23    2.53
   2   3  -9   19.02    2.42
   2   3  -9   19.02    2.42
  -2  -3   9   20.77    2.63
  -2  -3   9   27.73    3.35
  -2  -3   9   22.57    2.52
  -2  -3   9   27.73    3.35
  -2  -3   9   22.57    2.52
  -2  -3   9   24.54    2.54
   1   3  -9    3.09    1.91
   1   3  -9    4.98    1.97
   1   3  -9    5.64    1.78
   1   3  -9    3.81    1.38
   1   3  -9    3.09    1.91
   1   3  -9    3.81    1.38
  -1  -3   9    4.77    2.15
  -1  -3   9    2.36    1.86
  -1  -3   9    2.98    1.74
  -1  -3   9    2.98    1.74
  -1  -3   9    2.04    1.85
  -1  -3   9    2.04    1.85
   0   3  -9   28.26    2.72
   0   3  -9   36.67    2.28
   0   3  -9   30.98    2.81
   0   3  -9   31.85    2.35
   0   3  -9   28.16    1.93
   0   3  -9   28.16    1.93
   0   3  -9   28.26    2.72
   0   3  -9   36.67    2.28
   0  -3   9   25.83    2.58
   0  -3   9   29.00    2.53
   0  -3   9   32.28    2.84
   0  -3   9   29.00    2.53
   0  -3   9   28.62    3.08
   0  -3   9   28.62    3.08
  -1   3  -9   17.97    2.21
  -1   3  -9   19.84    1.95
  -1   3  -9   17.97    2.21
  -1   3  -9   24.32    2.87
  -1   3  -9   21.40    2.41
  -1   3  -9   21.45    2.85
  -1   3  -9   24.32    2.87
  -1   3  -9   19.84    1.95
   1  -3   9   21.00    2.70
   1  -3   9   20.00    2.34
   1  -3   9   20.00    2.34
   1  -3   9   21.00    2.70
   1  -3   9   24.94    2.58
   1  -3   9   24.94    2.58
   1  -3   9   22.43    2.18
   1  -3   9   17.99    2.83
  -2   3  -9    3.17    1.95
  -2   3  -9    2.81    2.73
  -2   3  -9    4.67    1.94
  -2   3  -9    5.87    2.68
  -2   3  -9    4.67    1.94
  -2   3  -9    2.81    2.73
  -2   3  -9    3.17    1.95
  -2   3  -9    3.29    1.85
   2  -3   9    5.96    2.03
   2  -3   9    5.96    2.03
   2  -3   9   -0.83    2.62
   2  -3   9    4.06    2.08
   2  -3   9   -0.83    2.62
   2  -3   9    1.73    2.81
  -3   3  -9   23.94    2.53
  -3   3  -9   26.86    3.00
  -3   3  -9   19.92    3.11
  -3   3  -9   23.94    2.53
  -3   3  -9   19.85    3.86
  -3   3  -9   23.87    3.88
  -3   3  -9   19.92    3.11
  -3   3  -9   19.85    3.86
   3  -3   9   21.30    3.24
   3  -3   9   32.74    3.31
   3  -3   9   26.21    2.97
   3  -3   9   21.30    3.24
   3  -3   9   25.74    3.10
   3  -3   9   32.74    3.31
   3  -3   9   21.24    3.92
   3  -3   9   26.21    2.97
   4   2  -9    1.00    2.48
   4   2  -9    1.73    2.02
   4   2  -9    2.97    2.19
   4   2  -9    1.26    2.25
   4   2  -9    1.73    2.02
   4   2  -9    2.97    2.19
   4   2  -9    1.01    2.60
  -4  -2   9    2.90    0.63
  -4  -2   9    4.84    3.47
  -4  -2   9    6.75    2.37
  -4  -2   9    3.62    2.79
  -4  -2   9    1.33    2.23
  -4  -2   9    6.75    2.37
  -4  -2   9    2.90    0.63
  -4  -2   9    4.84    3.47
  -4  -2   9    3.59    3.06
  -4  -2   9    3.62    2.79
   3   2  -9  103.39    4.55
   3   2  -9  103.39    4.55
   3   2  -9  104.43    4.25
   3   2  -9  104.43    4.25
   3   2  -9  103.63    4.38
  -3  -2   9   99.75    4.58
  -3  -2   9   99.75    4.58
  -3  -2   9  103.01    5.71
  -3  -2   9  103.59    4.27
  -3  -2   9  103.01    5.71
  -3  -2   9  105.07    4.21
  -3  -2   9  103.14    4.95
  -3  -2   9  105.07    4.21
   2   2  -9    7.28    1.84
   2   2  -9    7.28    1.84
   2   2  -9    2.97    1.82
   2   2  -9    4.67    2.48
  -2  -2   9    7.59    2.18
  -2  -2   9    7.59    2.18
  -2  -2   9    8.71    2.01
  -2  -2   9    8.71    2.01
  -2  -2   9    3.79    1.84
  -2  -2   9    6.95    1.52
  -2  -2   9    6.73    1.79
  -2  -2   9    6.95    1.52
   1   2  -9   13.80    1.77
   1   2  -9   10.15    1.88
   1   2  -9   13.42    2.10
   1   2  -9   12.82    1.66
   1   2  -9   12.82    1.66
   1   2  -9   10.15    1.88
  -1  -2   9   11.33    1.96
  -1  -2   9   15.83    2.09
  -1  -2   9   14.47    2.18
  -1  -2   9   11.33    1.96
  -1  -2   9   15.83    2.09
  -1  -2   9   12.55    2.08
   0   2  -9   45.06    2.16
   0   2  -9   44.99    3.05
   0   2  -9   44.99    3.05
   0   2  -9   45.01    2.16
   0   2  -9   52.55    2.86
   0   2  -9   48.82    2.81
   0   2  -9   47.13    2.89
   0   2  -9   48.82    2.81
   0  -2   9   47.39    3.66
   0  -2   9   44.34    3.09
   0  -2   9   44.56    2.92
   0  -2   9   44.88    2.85
   0  -2   9   47.39    3.66
   0  -2   9   52.36    3.34
   0  -2   9   44.88    2.85
   0  -2   9   44.34    3.09
  -1   2  -9   50.94    2.60
  -1   2  -9   57.63    3.23
  -1   2  -9   49.02    3.53
  -1   2  -9   44.51    2.85
  -1   2  -9   54.31    2.73
  -1   2  -9   50.94    2.60
  -1   2  -9   44.51    2.85
  -1   2  -9   54.31    2.73
   1  -2   9   50.00    2.59
   1  -2   9   53.88    3.06
   1  -2   9   52.04    3.61
   1  -2   9   50.00    2.59
   1  -2   9   53.06    3.52
   1  -2   9   53.06    3.52
  -2   2  -9   26.63    2.72
  -2   2  -9   26.44    2.18
  -2   2  -9   26.63    2.72
  -2   2  -9   25.70    2.41
  -2   2  -9   24.68    3.05
  -2   2  -9   26.44    2.18
  -2   2  -9   24.65    2.58
  -2   2  -9   25.71    2.41
   2  -2   9   26.93    2.15
   2  -2   9   26.93    2.15
   2  -2   9   25.63    2.67
   2  -2   9   29.96    3.28
   2  -2   9   25.63    2.67
   2  -2   9   24.38    2.54
  -3   2  -9    2.09    2.15
  -3   2  -9    0.22    2.03
  -3   2  -9    0.32    1.39
  -3   2  -9    2.08    2.15
  -3   2  -9   -1.36    2.80
  -3   2  -9    0.32    1.39
  -3   2  -9   -1.36    2.80
  -3   2  -9    1.88    2.65
   3  -2   9    0.15    1.99
   3  -2   9    2.39    1.53
   3  -2   9    2.39    1.53
   3  -2   9    1.83    2.88
   3  -2   9    7.33    2.39
   3  -2   9    1.83    2.88
   4  -2   9   12.34    3.95
   4   1  -9   12.57    3.10
   4   1  -9   10.65    3.09
   4   1  -9   12.57    3.10
   4   1  -9   10.60    2.96
   4   1  -9   14.47    2.16
   4   1  -9   14.47    2.16
   4   1  -9   17.50    2.69
  -4  -1   9   11.61    2.36
  -4  -1   9   14.17    2.55
  -4  -1   9   11.40    3.66
  -4  -1   9   11.40    3.66
  -4  -1   9   11.16    1.44
  -4  -1   9   14.17    2.55
  -4  -1   9   11.16    1.44
  -4  -1   9   11.61    2.36
  -4  -1   9   16.73    2.72
  -4  -1   9   12.24    2.80
   3   1  -9   61.85    3.88
   3   1  -9   55.34    2.85
   3   1  -9   62.33    4.06
   3   1  -9   63.87    3.85
   3   1  -9   55.34    2.85
   3   1  -9   55.06    3.28
   3   1  -9   63.87    3.85
  -3  -1   9   61.25    4.84
  -3  -1   9   61.25    4.84
  -3  -1   9   51.88    2.19
  -3  -1   9   58.71    3.34
  -3  -1   9   57.43    3.78
  -3  -1   9   57.43    3.78
  -3  -1   9   51.88    2.19
  -3  -1   9   58.71    3.34
  -3  -1   9   56.06    3.39
  -3  -1   9   55.29    3.46
   2   1  -9   14.49    2.03
   2   1  -9   13.52    2.02
   2   1  -9   13.52    2.02
   2   1  -9    9.85    2.15
  -2  -1   9   12.59    1.26
  -2  -1   9   14.10    2.29
  -2  -1   9   14.10    2.29
  -2  -1   9   13.35    2.01
  -2  -1   9   13.10    1.80
  -2  -1   9   12.59    1.26
  -2  -1   9   16.88    2.29
  -2  -1   9   11.80    2.74
  -2  -1   9   11.80    2.74
  -2  -1   9   13.35    2.01
   1   1  -9   -0.35    1.12
   1   1  -9   -0.33    1.73
   1   1  -9    2.49    1.66
   1   1  -9   -0.33    1.73
   1   1  -9   -2.13    1.01
   1   1  -9   -0.35    1.12
  -1  -1   9    1.48    1.16
  -1  -1   9   -0.36    1.57
  -1  -1   9   -0.36    1.57
  -1  -1   9   -0.21    1.50
  -1  -1   9    0.04    1.45
  -1  -1   9    1.48    1.16
  -1  -1   9   -1.28    1.07
  -1  -1   9   -1.28    1.07
   0   1  -9   69.52    2.90
   0   1  -9   69.93    2.57
   0   1  -9   67.28    3.37
   0   1  -9   69.94    2.57
   0   1  -9   72.50    3.28
   0   1  -9   72.50    3.28
   0   1  -9   69.52    2.90
   0   1  -9   71.77    3.25
   0  -1   9   70.78    3.44
   0  -1   9   74.82    3.04
   0  -1   9   74.56    4.06
   0  -1   9   74.82    3.04
   0  -1   9   68.70    2.90
   0  -1   9   68.70    2.90
   0  -1   9   74.56    4.06
   0  -1   9   67.10    3.19
  -1   1  -9   70.13    3.42
  -1   1  -9   76.45    3.60
  -1   1  -9   77.62    3.66
  -1   1  -9   75.42    3.01
  -1   1  -9   70.13    3.42
  -1   1  -9   70.50    3.27
  -1   1  -9   76.45    3.60
  -1   1  -9   75.42    3.01
   1  -1   9   74.20    3.33
   1  -1   9   66.49    3.40
   1  -1   9   79.13    3.65
   1  -1   9   79.13    3.65
   1  -1   9   72.01    3.30
   1  -1   9   66.49    3.40
  -2   1  -9   24.62    2.70
  -2   1  -9   20.76    2.20
  -2   1  -9   18.07    2.10
  -2   1  -9   21.11    2.28
  -2   1  -9   18.07    2.10
  -2   1  -9   21.11    2.28
  -2   1  -9   20.91    2.21
  -2   1  -9   20.76    2.20
   2  -1   9   20.29    2.24
   2  -1   9   20.29    2.24
   2  -1   9   22.71    2.74
   2  -1   9   23.32    1.94
   2  -1   9   20.55    2.25
   2  -1   9   23.32    1.94
  -3   1  -9   25.92    2.81
  -3   1  -9   25.92    2.81
  -3   1  -9   20.91    2.35
  -3   1  -9   20.91    2.35
  -3   1  -9   24.03    3.21
  -3   1  -9   27.71    2.73
  -3   1  -9   25.67    2.30
  -3   1  -9   27.72    2.72
   3  -1   9   23.00    3.11
   3  -1   9   22.61    2.49
   3  -1   9   17.28    2.98
   3  -1   9   19.58    2.31
   3  -1   9   23.00    3.11
   3  -1   9   19.58    2.31
  -4   1  -9    7.95    3.37
  -4   1  -9    7.42    2.24
  -4   1  -9    6.99    2.45
  -4   1  -9   15.86    3.59
  -4   1  -9   15.86    3.59
  -4   1  -9    9.26    2.69
  -4   1  -9    9.26    2.69
  -4   1  -9    7.42    2.24
   4  -1   9   13.29    2.42
   4  -1   9   11.32    1.99
   4  -1   9   13.90    3.28
   4  -1   9    9.98    2.68
   4  -1   9   11.32    1.99
   4  -1   9    9.98    2.68
   4   0  -9   33.18    3.02
   4   0  -9   33.26    3.21
   4   0  -9   37.00    3.76
   4   0  -9   33.26    3.21
   4   0  -9   38.41    3.47
   4   0  -9   33.18    3.02
   4   0  -9   37.16    3.93
  -4   0   9   30.73    3.15
  -4   0   9   28.04    3.96
  -4   0   9   37.44    3.19
  -4   0   9   32.39    3.18
  -4   0   9   32.39    3.18
  -4   0   9   28.04    3.96
  -4   0   9   32.20    3.83
  -4   0   9   37.44    3.19
   3   0  -9   14.29    2.61
   3   0  -9   18.71    2.76
   3   0  -9   19.74    2.31
   3   0  -9   19.74    2.31
   3   0  -9   16.95    2.18
   3   0  -9   18.71    2.76
   3   0  -9   14.38    2.73
  -3   0   9   16.64    2.30
  -3   0   9   23.18    2.79
  -3   0   9   21.75    3.33
  -3   0   9   16.64    2.30
  -3   0   9   20.59    1.87
  -3   0   9   21.75    3.33
  -3   0   9   17.69    2.28
  -3   0   9   14.16    2.57
  -3   0   9   14.16    2.57
  -3   0   9   20.60    1.87
   2   0  -9    7.19    1.66
   2   0  -9    7.19    1.66
   2   0  -9    8.41    1.84
   2   0  -9    8.00    1.47
   2   0  -9    8.00    1.47
  -2   0   9    7.42    1.44
  -2   0   9    5.18    1.85
  -2   0   9    7.78    1.82
  -2   0   9    9.44    2.17
  -2   0   9    7.81    2.01
  -2   0   9    5.18    1.85
  -2   0   9    7.42    1.44
  -2   0   9    5.19    1.26
  -2   0   9    9.44    2.17
  -2   0   9    5.19    1.25
   1   0  -9   60.12    3.15
   1   0  -9   60.12    3.15
   1   0  -9   66.88    2.87
   1   0  -9   64.59    3.03
   1   0  -9   64.59    3.03
   1   0  -9   60.84    2.92
  -1   0   9   66.67    3.02
  -1   0   9   60.24    3.17
  -1   0   9   65.49    3.07
  -1   0   9   61.64    2.90
  -1   0   9   68.55    2.56
  -1   0   9   60.24    3.17
  -1   0   9   66.67    3.02
  -1   0   9   68.55    2.56
   0   0  -9   44.15    2.80
   0   0  -9   43.54    2.31
   0   0  -9   43.54    2.31
   0   0  -9   48.39    2.79
   0   0  -9   51.24    2.69
   0   0  -9   51.24    2.69
   0   0   9   47.43    2.48
   0   0   9   44.44    2.30
   0   0   9   50.60    2.81
   0   0   9   44.44    2.30
   0   0   9   47.75    3.44
   0   0   9   47.43    2.49
   0   0   9   47.75    3.44
   0   0   9   46.93    2.70
  -1   0  -9   26.61    2.28
  -1   0  -9   25.86    2.25
  -1   0  -9   24.96    2.29
  -1   0  -9   27.09    2.12
  -1   0  -9   26.42    2.22
  -1   0  -9   27.09    2.11
  -1   0  -9   26.61    2.28
  -1   0  -9   26.42    2.22
   1   0   9   24.36    2.10
   1   0   9   23.65    2.18
   1   0   9   25.98    2.44
   1   0   9   25.98    2.44
   1   0   9   23.65    2.19
   1   0   9   27.48    2.42
  -2   0  -9   -1.64    1.37
  -2   0  -9   -0.58    1.72
  -2   0  -9    1.76    1.38
  -2   0  -9    2.15    1.45
  -2   0  -9    2.15    1.45
  -2   0  -9   -1.64    1.37
  -2   0  -9   -0.58    1.72
  -2   0  -9    1.39    1.52
   2   0   9   -0.95    0.96
   2   0   9    0.73    1.84
   2   0   9   -0.95    0.96
   2   0   9    1.28    1.77
   2   0   9    1.28    1.77
   2   0   9    0.51    1.49
  -3   0  -9   60.31    3.86
  -3   0  -9   55.45    3.95
  -3   0  -9   51.04    3.33
  -3   0  -9   51.79    3.17
  -3   0  -9   51.49    3.15
  -3   0  -9   60.31    3.86
  -3   0  -9   51.49    3.15
  -3   0  -9   51.03    3.33
   3   0   9   53.76    2.99
   3   0   9   53.76    2.99
   3   0   9   55.31    3.22
   3   0   9   50.07    3.32
   3   0   9   53.88    3.15
   3   0   9   55.31    3.22
  -4   0  -9   54.69    3.58
  -4   0  -9   61.44    4.75
  -4   0  -9   57.26    3.40
  -4   0  -9   54.80    4.00
  -4   0  -9   54.77    4.00
  -4   0  -9   57.26    3.40
  -4   0  -9   63.96    4.89
  -4   0  -9   61.44    4.75
   4   0   9   59.14    3.82
   4   0   9   52.75    3.94
   4   0   9   61.57    3.48
   4   0   9   61.57    3.48
   4   0   9   64.02    3.69
   4   0   9   59.14    3.82
   4  -1  -9    0.18    1.76
   4  -1  -9    4.10    3.06
   4  -1  -9   -1.87    1.97
   4  -1  -9    3.07    1.81
   4  -1  -9   -2.77    2.24
   4  -1  -9    0.17    1.71
   4  -1  -9   -1.87    1.97
   4  -1  -9    4.07    2.92
   4  -1  -9    0.17    1.71
   4  -1  -9    3.07    1.81
  -4   1   9    1.07    2.08
  -4   1   9    1.07    2.08
  -4   1   9   -0.01    2.50
  -4   1   9   -0.01    2.50
  -4   1   9    3.90    2.32
  -4   1   9    3.90    2.32
  -4   1   9    1.95    2.48
   3  -1  -9   14.39    2.53
   3  -1  -9   12.13    2.56
   3  -1  -9   14.54    2.66
   3  -1  -9   11.77    2.16
   3  -1  -9    8.22    2.06
   3  -1  -9   12.13    2.56
   3  -1  -9    8.22    2.06
  -3   1   9    9.56    3.13
  -3   1   9   13.08    2.21
  -3   1   9   12.01    2.67
  -3   1   9    8.55    2.62
  -3   1   9   12.01    2.67
  -3   1   9    9.56    3.13
  -3   1   9   13.08    2.21
  -3   1   9   11.95    2.65
   2  -1  -9   36.02    3.15
   2  -1  -9   35.60    2.60
   2  -1  -9   35.60    2.60
   2  -1  -9   39.44    2.81
   2  -1  -9   39.03    2.68
   2  -1  -9   36.02    3.15
  -2   1   9   37.78    2.64
  -2   1   9   37.18    3.06
  -2   1   9   37.78    2.64
  -2   1   9   47.42    3.99
  -2   1   9   35.60    3.07
  -2   1   9   37.47    2.39
  -2   1   9   38.64    2.09
  -2   1   9   47.42    3.99
  -2   1   9   37.18    3.06
  -2   1   9   38.65    2.09
   1  -1  -9   44.97    2.70
   1  -1  -9   41.07    2.18
   1  -1  -9   40.35    2.88
   1  -1  -9   41.07    2.18
  -1   1   9   37.77    2.58
  -1   1   9   34.91    2.25
  -1   1   9   35.26    2.48
  -1   1   9   40.26    2.75
  -1   1   9   35.26    2.48
  -1   1   9   42.58    2.32
  -1   1   9   42.58    2.31
  -1   1   9   34.91    2.25
   0  -1  -9  114.60    4.01
   0  -1  -9  111.65    3.69
   0  -1  -9  119.42    3.87
   0  -1  -9  119.42    3.87
   0  -1  -9  112.68    3.74
   0  -1  -9  111.65    3.69
   0   1   9  117.21    3.99
   0   1   9  115.24    3.86
   0   1   9  113.80    3.65
   0   1   9  115.24    3.86
   0   1   9  119.50    4.05
   0   1   9  116.47    3.94
   0   1   9  116.47    3.94
   0   1   9  113.77    3.65
  -1  -1  -9   33.28    2.45
  -1  -1  -9   31.27    2.06
  -1  -1  -9   32.04    2.33
  -1  -1  -9   38.18    2.28
  -1  -1  -9   31.27    2.05
  -1  -1  -9   32.04    2.33
  -1  -1  -9   38.18    2.28
   1   1   9   32.36    2.47
   1   1   9   32.36    2.47
   1   1   9   33.58    2.23
   1   1   9   35.68    2.40
   1   1   9   33.58    2.23
   1   1   9   35.49    2.63
   1   1   9   37.86    2.49
   1   1   9   37.86    2.49
  -2  -1  -9    7.19    1.72
  -2  -1  -9    9.84    1.64
  -2  -1  -9    7.19    1.72
  -2  -1  -9   10.41    1.92
  -2  -1  -9   10.04    1.77
  -2  -1  -9    7.72    1.53
  -2  -1  -9    9.84    1.64
  -2  -1  -9    7.72    1.53
   2   1   9   12.72    2.58
   2   1   9    9.11    1.70
   2   1   9    6.63    1.71
   2   1   9    7.58    1.80
   2   1   9    6.63    1.71
   2   1   9    8.41    1.54
   2   1   9   12.72    2.58
   2   1   9    8.41    1.54
  -3  -1  -9   51.71    2.98
  -3  -1  -9   55.34    3.29
  -3  -1  -9   46.80    2.43
  -3  -1  -9   55.34    3.29
  -3  -1  -9   46.80    2.43
  -3  -1  -9   52.95    3.65
   3   1   9   50.26    3.42
   3   1   9   52.06    3.57
   3   1   9   50.42    2.78
   3   1   9   54.07    2.98
   3   1   9   50.42    2.78
   3   1   9   50.26    3.42
  -4  -1  -9   27.17    2.49
  -4  -1  -9   27.93    2.56
  -4  -1  -9   21.93    3.13
  -4  -1  -9   27.32    2.96
  -4  -1  -9   27.33    2.96
  -4  -1  -9   27.17    2.49
   4   1   9   27.71    2.54
   4   1   9   22.44    2.33
   4   1   9   24.01    3.06
   4   1   9   22.44    2.33
   4   1   9   24.01    3.06
   4   1   9   23.92    3.05
  -5  -1  -9   26.24    2.86
  -5  -1  -9   27.67    3.60
  -5  -1  -9   33.04    3.27
  -5  -1  -9   27.72    3.60
  -5  -1  -9   29.59    4.01
  -5  -1  -9   32.09    3.93
  -5  -1  -9   32.09    3.93
  -5  -1  -9   26.24    2.86
   5   1   9   37.19    4.30
   5   1   9   27.25    3.66
   5   1   9   37.19    4.30
   5   1   9   27.25    3.66
   5   1   9   26.03    2.78
   5   1   9   26.03    2.78
   5   1   9   31.05    2.99
   5   1   9   32.58    3.86
   4  -2  -9   30.85    3.29
   4  -2  -9   30.85    3.29
   4  -2  -9   32.66    4.26
   4  -2  -9   25.67    2.24
   4  -2  -9   27.00    3.09
   4  -2  -9   27.65    3.14
   4  -2  -9   25.68    2.24
   4  -2  -9   27.65    3.14
   4  -2  -9   26.64    2.24
   4  -2  -9   32.45    4.07
  -4   2   9   29.55    3.21
  -4   2   9   29.55    3.21
  -4   2   9   28.71    3.78
  -4   2   9   26.29    3.21
  -4   2   9   28.11    3.97
  -4   2   9   28.71    3.78
  -4   2   9   26.61    3.15
  -4   2   9   26.61    3.15
   3  -2  -9    7.38    2.57
   3  -2  -9    7.41    2.69
   3  -2  -9    7.24    2.48
   3  -2  -9    4.18    1.99
   3  -2  -9    7.24    2.48
   3  -2  -9    9.30    2.12
   3  -2  -9    9.30    2.12
   3  -2  -9    6.42    1.75
   3  -2  -9    7.49    2.17
   3  -2  -9    7.49    2.17
  -3   2   9    7.43    2.49
  -3   2   9   11.90    3.31
  -3   2   9    6.80    2.14
  -3   2   9    7.43    2.49
  -3   2   9   11.90    3.31
  -3   2   9    6.80    2.14
  -3   2   9    7.60    2.22
   2  -2  -9   29.64    2.89
   2  -2  -9   25.58    2.28
   2  -2  -9   29.83    3.02
   2  -2  -9   27.48    2.33
   2  -2  -9   31.08    2.86
   2  -2  -9   31.08    2.86
   2  -2  -9   25.58    2.28
  -2   2   9   26.19    2.42
  -2   2   9   27.51    3.35
  -2   2   9   26.72    2.84
  -2   2   9   27.51    3.35
  -2   2   9   30.93    2.46
  -2   2   9   30.93    2.46
  -2   2   9   24.27    2.28
  -2   2   9   26.19    2.42
  -2   2   9   24.27    2.28
  -2   2   9   28.26    2.43
   1  -2  -9   14.86    1.74
   1  -2  -9   15.55    2.09
   1  -2  -9   17.05    1.92
   1  -2  -9   15.55    2.09
   1  -2  -9   14.86    1.74
  -1   2   9   15.30    1.59
  -1   2   9   15.30    1.59
  -1   2   9   11.61    1.94
  -1   2   9   14.24    1.66
  -1   2   9   10.92    2.97
  -1   2   9   14.25    1.66
  -1   2   9   15.01    1.63
  -1   2   9   10.92    2.97
   0  -2  -9   43.26    3.62
   0  -2  -9   40.25    2.46
   0  -2  -9   40.25    2.46
   0  -2  -9   41.22    2.68
   0  -2  -9   39.43    2.06
   0  -2  -9   39.43    2.06
   0   2   9   48.83    2.57
   0   2   9   44.58    2.43
   0   2   9   40.85    2.58
   0   2   9   39.90    2.21
   0   2   9   44.58    2.43
   0   2   9   39.90    2.21
   0   2   9   43.16    2.40
   0   2   9   43.16    2.40
  -1  -2  -9   56.72    2.70
  -1  -2  -9   50.99    2.60
  -1  -2  -9   57.57    2.60
  -1  -2  -9   50.99    2.60
  -1  -2  -9   55.45    2.62
  -1  -2  -9   55.45    2.62
  -1  -2  -9   57.57    2.60
  -1  -2  -9   55.15    2.76
   1   2   9   53.33    2.85
   1   2   9   58.09    2.72
   1   2   9   50.07    2.56
   1   2   9   50.07    2.56
   1   2   9   53.32    2.85
   1   2   9   59.21    2.73
   1   2   9   53.71    2.82
   1   2   9   59.21    2.73
  -2  -2  -9   54.48    2.82
  -2  -2  -9   54.48    2.82
  -2  -2  -9   54.62    2.79
  -2  -2  -9   53.57    2.61
  -2  -2  -9   53.57    2.61
  -2  -2  -9   49.54    2.79
  -2  -2  -9   51.05    2.71
  -2  -2  -9   54.61    2.79
   2   2   9   53.68    3.15
   2   2   9   53.92    2.85
   2   2   9   53.92    2.85
   2   2   9   51.28    2.39
   2   2   9   51.96    2.83
   2   2   9   51.28    2.39
   2   2   9   55.36    2.72
   2   2   9   53.68    3.15
  -3  -2  -9    7.61    2.01
  -3  -2  -9    8.49    1.63
  -3  -2  -9   10.02    1.70
  -3  -2  -9    6.33    1.50
  -3  -2  -9    8.48    1.62
  -3  -2  -9    6.33    1.50
   3   2   9    8.88    2.09
   3   2   9    9.27    1.57
   3   2   9    9.22    2.45
   3   2   9    8.80    1.95
   3   2   9    9.22    2.45
   3   2   9    9.27    1.57
   3   2   9    8.80    1.95
   3   2   9    9.88    1.56
  -4  -2  -9   31.62    2.95
  -4  -2  -9   34.54    2.19
  -4  -2  -9   34.54    2.19
  -4  -2  -9   33.93    3.19
  -4  -2  -9   31.63    2.95
  -4  -2  -9   33.74    2.86
   4   2   9   37.34    3.31
   4   2   9   34.76    2.65
   4   2   9   34.76    2.65
   4   2   9   29.39    2.68
   4   2   9   37.09    3.08
   4   2   9   37.09    3.08
  -5  -2  -9   -1.38    2.63
  -5  -2  -9   -1.38    2.63
  -5  -2  -9   -2.36    2.90
  -5  -2  -9    0.38    1.95
  -5  -2  -9   -0.56    2.68
  -5  -2  -9   -0.56    2.68
  -5  -2  -9    0.24    2.21
  -5  -2  -9    0.38    1.95
   5   2   9   -1.53    3.28
   5   2   9   -1.74    1.70
   5   2   9    1.21    2.00
   5   2   9   -1.74    1.70
   5   2   9    0.80    3.01
   5   2   9   -1.71    2.65
   5   2   9   -1.53    3.28
   5   2   9   -1.71    2.65
   4  -3  -9    7.24    3.22
   4  -3  -9   10.18    3.32
   4  -3  -9   10.18    3.32
   4  -3  -9    7.26    3.35
   4  -3  -9    5.11    2.83
   4  -3  -9    6.38    2.89
   4  -3  -9    6.38    2.89
  -4   3   9   10.01    2.88
  -4   3   9    8.59    2.29
  -4   3   9    5.79    3.58
  -4   3   9   14.25    4.06
  -4   3   9    8.59    2.29
  -4   3   9    5.79    3.58
  -4   3   9    9.26    3.51
  -4   3   9   14.25    4.06
   3  -3  -9   49.61    3.61
   3  -3  -9   36.60    3.53
   3  -3  -9   48.64    3.35
   3  -3  -9   36.73    3.67
   3  -3  -9   54.13    3.50
   3  -3  -9   48.64    3.35
   3  -3  -9   54.13    3.50
   3  -3  -9   44.96    3.23
   3  -3  -9   49.22    3.24
   3  -3  -9   44.96    3.23
  -3   3   9   49.23    4.25
  -3   3   9   42.99    3.75
  -3   3   9   58.81    3.21
  -3   3   9   42.99    3.75
  -3   3   9   48.22    4.44
  -3   3   9   49.17    2.91
  -3   3   9   49.17    2.91
  -3   3   9   48.22    4.44
   2  -3  -9   94.47    4.49
   2  -3  -9   98.99    4.09
   2  -3  -9   94.29    4.64
   2  -3  -9   99.47    4.47
   2  -3  -9   99.47    4.47
   2  -3  -9   97.48    3.93
   2  -3  -9   99.02    4.09
   2  -3  -9  103.55    3.88
   2  -3  -9  103.55    3.88
   2  -3  -9   99.62    4.03
  -2   3   9   94.64    5.16
  -2   3   9  104.49    4.11
  -2   3   9   94.64    5.16
  -2   3   9   89.76    4.18
  -2   3   9   96.87    3.81
  -2   3   9   97.63    3.97
  -2   3   9  104.49    4.11
  -2   3   9   96.87    3.81
   1  -3  -9    5.30    1.79
   1  -3  -9    8.42    2.00
   1  -3  -9    5.30    1.79
   1  -3  -9    5.25    1.57
   1  -3  -9    8.55    2.12
   1  -3  -9    5.98    1.48
   1  -3  -9    5.98    1.48
  -1   3   9    9.54    1.98
  -1   3   9    8.94    1.67
  -1   3   9    3.87    2.27
  -1   3   9    5.89    1.25
  -1   3   9    7.67    1.48
  -1   3   9    5.89    1.25
  -1   3   9    9.44    1.65
  -1   3   9    3.87    2.27
  -1   3   9    7.67    1.48
  -1   3   9    8.94    1.67
   0  -3  -9   46.25    2.58
   0  -3  -9   49.81    2.45
   0  -3  -9   43.54    2.70
   0  -3  -9   49.81    2.45
   0   3   9   47.26    2.47
   0   3   9   47.42    2.43
   0   3   9   42.79    3.02
   0   3   9   42.79    3.02
   0   3   9   46.49    2.56
   0   3   9   47.42    2.43
   0   3   9   43.44    2.68
   0   3   9   46.49    2.56
  -1  -3  -9   22.94    2.06
  -1  -3  -9   20.27    1.87
  -1  -3  -9   22.06    1.94
  -1  -3  -9   21.94    1.98
  -1  -3  -9   20.27    1.87
  -1  -3  -9   22.06    1.94
   1   3   9   22.72    1.97
   1   3   9   22.72    1.97
   1   3   9   24.04    2.11
   1   3   9   24.08    2.06
   1   3   9   24.08    2.06
   1   3   9   22.50    2.04
  -2  -3  -9   50.51    2.75
  -2  -3  -9   53.00    2.85
  -2  -3  -9   55.78    2.68
  -2  -3  -9   53.00    2.86
  -2  -3  -9   55.54    2.32
  -2  -3  -9   55.54    2.32
  -2  -3  -9   55.78    2.68
  -2  -3  -9   52.52    2.66
   2   3   9   57.68    2.87
   2   3   9   52.56    3.21
   2   3   9   52.56    3.21
   2   3   9   59.03    2.77
   2   3   9   59.03    2.77
  -3  -3  -9   15.72    2.18
  -3  -3  -9   11.14    1.92
  -3  -3  -9   15.72    2.18
  -3  -3  -9   13.75    1.83
  -3  -3  -9   12.96    1.88
  -3  -3  -9   12.75    1.63
  -3  -3  -9   12.96    1.88
  -3  -3  -9   12.75    1.63
   3   3   9   11.43    1.71
   3   3   9   16.57    2.11
   3   3   9   14.85    1.99
   3   3   9   12.42    2.42
   3   3   9   12.42    2.41
   3   3   9   14.85    1.99
   3   3   9   14.23    1.64
   3   3   9   14.23    1.64
  -4  -3  -9   40.39    2.68
  -4  -3  -9   40.39    2.68
  -4  -3  -9   47.58    3.82
  -4  -3  -9   49.26    2.87
  -4  -3  -9   39.39    3.40
  -4  -3  -9   39.40    3.40
   4   3   9   51.86    2.74
   4   3   9   43.86    3.36
   4   3   9   51.86    2.74
   4   3   9   53.92    2.99
   4   3   9   43.86    3.36
   4   3   9   45.42    3.58
  -5  -3  -9    3.47    1.76
  -5  -3  -9    0.83    2.57
  -5  -3  -9    0.84    2.57
  -5  -3  -9    3.69    2.64
  -5  -3  -9    4.51    1.93
  -5  -3  -9    3.47    1.76
  -5  -3  -9    3.69    2.64
  -5  -3  -9    2.30    2.70
   5   3   9    4.10    2.50
   5   3   9    4.10    2.50
   5   3   9    7.53    3.53
   5   3   9    4.37    2.01
   5   3   9   -0.31    1.79
   5   3   9    7.53    3.53
   5   3   9    5.32    2.84
   5   3   9   -0.31    1.79
   3  -4  -9    5.70    3.12
   3  -4  -9   10.01    2.05
   3  -4  -9    8.85    1.98
   3  -4  -9    8.85    1.98
   3  -4  -9    6.77    2.42
   3  -4  -9   12.94    3.00
   3  -4  -9    5.72    3.25
   3  -4  -9    8.62    2.38
   3  -4  -9   12.94    3.00
   3  -4  -9    8.62    2.38
  -3   4   9    6.88    2.78
  -3   4   9    9.41    2.47
  -3   4   9    7.35    2.35
  -3   4   9    6.38    3.31
  -3   4   9    7.35    2.35
  -3   4   9    6.88    2.78
  -3   4   9   10.25    2.91
  -3   4   9    6.38    3.31
   2  -4  -9   22.06    3.00
   2  -4  -9   23.15    2.87
   2  -4  -9   22.26    3.15
   2  -4  -9   23.15    2.87
   2  -4  -9   21.33    2.43
   2  -4  -9   21.33    2.43
   2  -4  -9   21.44    2.28
   2  -4  -9   16.33    2.27
  -2   4   9   17.24    2.69
  -2   4   9   20.21    2.36
  -2   4   9    9.58    2.83
  -2   4   9   20.21    2.36
  -2   4   9   17.89    2.32
  -2   4   9    9.58    2.83
   1  -4  -9  113.73    4.65
   1  -4  -9  110.41    4.47
   1  -4  -9  108.49    4.27
   1  -4  -9  109.96    4.32
   1  -4  -9  105.49    4.53
   1  -4  -9  111.77    3.86
   1  -4  -9  113.72    4.65
   1  -4  -9  108.49    4.27
  -1   4   9  116.34    3.86
  -1   4   9  105.59    4.24
  -1   4   9  103.06    5.10
  -1   4   9  116.34    3.86
  -1   4   9  103.06    5.10
  -1   4   9  102.97    4.30
  -1   4   9  106.92    3.87
  -1   4   9  105.59    4.24
  -1   4   9  109.71    4.05
  -1   4   9  109.72    4.05
   0  -4  -9    8.47    1.42
   0  -4  -9    6.97    1.70
   0  -4  -9    4.97    2.28
   0  -4  -9    8.47    1.42
   0  -4  -9    6.43    2.20
   0  -4  -9    4.97    2.28
   0  -4  -9    6.97    1.70
   0  -4  -9    4.72    1.41
   0   4   9    9.06    1.46
   0   4   9    6.06    1.72
   0   4   9    7.70    1.56
   0   4   9    6.14    1.69
   0   4   9    9.06    1.46
   0   4   9    6.06    1.72
   0   4   9    6.14    1.69
  -1  -4  -9   42.88    2.30
  -1  -4  -9   45.74    2.50
  -1  -4  -9   49.48    2.52
  -1  -4  -9   45.74    2.50
  -1  -4  -9   42.88    2.30
  -1  -4  -9   44.78    2.61
   1   4   9   47.93    2.46
   1   4   9   50.33    2.41
   1   4   9   43.82    2.52
   1   4   9   43.61    2.89
   1   4   9   43.50    2.88
   1   4   9   43.82    2.52
   1   4   9   50.33    2.41
  -2  -4  -9    0.16    1.27
  -2  -4  -9   -0.07    1.18
  -2  -4  -9   -0.10    1.19
  -2  -4  -9   -0.10    1.19
  -2  -4  -9   -0.68    1.17
  -2  -4  -9   -0.07    1.18
   2   4   9    0.31    1.34
   2   4   9    0.51    1.23
   2   4   9    0.98    1.17
   2   4   9    0.31    1.34
   2   4   9    1.68    1.32
   2   4   9    0.51    1.23
  -3  -4  -9   27.61    2.37
  -3  -4  -9   28.21    2.52
  -3  -4  -9   28.22    2.53
  -3  -4  -9   27.61    2.37
  -3  -4  -9   25.27    2.03
  -3  -4  -9   25.27    2.03
  -3  -4  -9   22.05    2.21
   3   4   9   31.17    2.05
   3   4   9   28.29    2.41
   3   4   9   24.89    2.53
   3   4   9   31.17    2.05
   3   4   9   28.29    2.41
   3   4   9   25.66    2.23
   3   4   9   24.89    2.53
   3   4   9   24.33    2.18
  -4  -4  -9   24.90    2.23
  -4  -4  -9   26.14    2.80
  -4  -4  -9   26.16    2.80
  -4  -4  -9   24.90    2.23
   4   4   9   27.17    2.58
   4   4   9   23.48    2.61
   4   4   9   27.17    2.58
   4   4   9   22.23    2.08
   4   4   9   23.41    2.13
   4   4   9   23.41    2.13
  -5  -4  -9   16.05    3.64
  -5  -4  -9   15.89    2.69
  -5  -4  -9   15.90    2.70
  -5  -4  -9   13.06    3.14
  -5  -4  -9   17.01    2.10
  -5  -4  -9   17.01    2.10
  -5  -4  -9   13.06    3.14
  -5  -4  -9   13.05    2.13
   5   4   9   20.11    3.03
   5   4   9   17.56    2.93
   5   4   9   17.56    2.93
   5   4   9   17.02    2.02
   5   4   9   17.02    2.02
   5   4   9   15.07    2.09
   5   4   9   14.04    3.79
   5   4   9   14.04    3.79
   3  -5  -9    9.52    3.52
   3  -5  -9   13.50    3.29
   3  -5  -9    7.06    2.40
   3  -5  -9    6.31    2.61
   3  -5  -9   13.50    3.29
   3  -5  -9    7.06    2.40
   3  -5  -9    9.49    3.37
  -3   5   9    9.98    3.32
  -3   5   9    4.11    2.40
  -3   5   9    6.11    2.58
  -3   5   9   11.71    3.44
  -3   5   9    4.11    2.40
  -3   5   9    6.11    2.58
  -3   5   9   11.71    3.44
  -3   5   9    7.59    2.65
   2  -5  -9   11.15    2.35
   2  -5  -9    6.27    2.19
   2  -5  -9   13.37    3.10
   2  -5  -9    6.27    2.19
   2  -5  -9   10.19    2.62
   2  -5  -9   10.19    2.62
   2  -5  -9   13.30    2.96
   2  -5  -9    9.53    2.16
  -2   5   9    9.52    2.66
  -2   5   9   11.63    2.85
  -2   5   9    6.39    2.88
  -2   5   9    8.09    2.05
  -2   5   9   12.90    2.31
  -2   5   9    6.39    2.88
  -2   5   9    9.52    2.66
  -2   5   9    8.09    2.05
   1  -5  -9   44.28    3.86
   1  -5  -9   43.74    3.92
   1  -5  -9   43.52    2.69
   1  -5  -9   36.91    3.21
   1  -5  -9   48.29    3.32
   1  -5  -9   36.70    3.08
   1  -5  -9   45.91    2.80
   1  -5  -9   48.29    3.32
   1  -5  -9   43.75    3.92
   1  -5  -9   43.52    2.69
  -1   5   9   42.76    3.72
  -1   5   9   46.82    3.25
  -1   5   9   44.34    3.17
  -1   5   9   47.97    2.69
  -1   5   9   44.34    3.17
  -1   5   9   47.97    2.69
  -1   5   9   42.76    3.72
  -1   5   9   46.93    2.91
  -1   5   9   38.38    3.28
  -1   5   9   46.82    3.25
   0  -5  -9   42.25    3.16
   0  -5  -9   42.16    3.28
   0  -5  -9   38.58    3.46
   0  -5  -9   38.21    2.76
   0  -5  -9   36.52    2.27
   0  -5  -9   35.65    3.38
   0  -5  -9   38.21    2.76
   0  -5  -9   37.91    2.30
   0  -5  -9   38.57    3.46
   0  -5  -9   36.52    2.27
   0   5   9   37.05    2.42
   0   5   9   35.36    2.90
   0   5   9   37.64    2.25
   0   5   9   40.19    2.76
   0   5   9   33.71    2.71
   0   5   9   35.35    2.90
   0   5   9   40.19    2.76
   0   5   9   37.64    2.25
  -1  -5  -9   36.91    3.40
  -1  -5  -9   39.86    3.60
  -1  -5  -9   39.47    2.20
  -1  -5  -9   39.47    2.20
  -1  -5  -9   36.94    3.40
   1   5   9   36.00    2.92
   1   5   9   43.86    2.62
   1   5   9   37.75    2.33
   1   5   9   36.01    2.92
   1   5   9   37.75    2.33
   1   5   9   41.26    2.39
  -2  -5  -9    0.83    1.14
  -2  -5  -9    1.58    2.18
  -2  -5  -9    0.83    1.14
  -2  -5  -9   -0.54    1.21
  -2  -5  -9    2.75    1.31
  -2  -5  -9    1.58    2.18
  -2  -5  -9    0.95    2.10
  -2  -5  -9    2.75    1.31
   2   5   9   -1.68    1.80
   2   5   9   -1.68    1.80
   2   5   9    3.29    1.36
   2   5   9    2.50    1.27
   2   5   9    3.29    1.36
   2   5   9    1.18    1.29
  -3  -5  -9   19.79    1.74
  -3  -5  -9   19.79    1.74
  -3  -5  -9   20.13    1.94
  -3  -5  -9   19.48    2.41
  -3  -5  -9   23.29    2.10
  -3  -5  -9   18.51    2.48
  -3  -5  -9   20.13    1.94
  -3  -5  -9   19.48    2.42
  -3  -5  -9   21.74    2.77
  -3  -5  -9   21.74    2.78
   3   5   9   20.26    1.87
   3   5   9   20.96    1.86
   3   5   9   23.84    2.13
   3   5   9   20.26    1.87
   3   5   9   23.84    2.13
   3   5   9   18.57    2.76
   3   5   9   18.57    2.76
  -4  -5  -9   67.44    3.83
  -4  -5  -9   72.62    3.76
  -4  -5  -9   65.69    2.83
  -4  -5  -9   70.08    3.06
  -4  -5  -9   70.08    3.06
  -4  -5  -9   67.39    3.83
  -4  -5  -9   60.99    3.90
  -4  -5  -9   78.81    4.25
  -4  -5  -9   78.83    4.25
  -4  -5  -9   72.62    3.76
   4   5   9   64.79    2.77
   4   5   9   69.63    3.04
   4   5   9   63.64    3.75
   4   5   9   69.26    3.39
   4   5   9   69.26    3.39
   4   5   9   64.79    2.77
  -5  -5  -9    1.01    1.65
  -5  -5  -9    0.66    2.84
  -5  -5  -9    2.73    2.35
  -5  -5  -9    2.95    3.07
  -5  -5  -9   -2.45    2.20
  -5  -5  -9   -3.29    2.38
  -5  -5  -9   -0.98    1.66
  -5  -5  -9    2.73    2.35
  -5  -5  -9   -0.98    1.66
  -5  -5  -9   -3.29    2.38
  -5  -5  -9    2.94    3.07
   5   5   9   -0.91    3.38
   5   5   9    0.77    1.64
   5   5   9   -1.63    2.50
   5   5   9   -1.63    2.50
   5   5   9   -3.44    3.38
   5   5   9    0.77    1.64
   5   5   9   -3.44    3.38
   5   5   9   -0.91    3.38
   5   5   9    0.74    1.67
   2  -6  -9   28.45    3.77
   2  -6  -9   27.56    3.66
   2  -6  -9   28.44    3.77
   2  -6  -9   33.77    3.49
   2  -6  -9   33.77    3.49
   2  -6  -9   35.49    3.02
   2  -6  -9   35.49    3.02
   2  -6  -9   35.52    3.91
   2  -6  -9   35.43    3.75
   2  -6  -9   27.92    2.89
  -2   6   9   23.40    3.31
  -2   6   9   41.59    3.56
  -2   6   9   37.07    3.92
  -2   6   9   23.40    3.31
  -2   6   9   37.07    3.92
  -2   6   9   34.41    2.96
  -2   6   9   33.23    3.68
  -2   6   9   34.41    2.96
   1  -6  -9   19.40    2.90
   1  -6  -9   22.51    2.90
   1  -6  -9   21.66    2.77
   1  -6  -9   21.93    2.91
   1  -6  -9   19.40    2.90
   1  -6  -9   21.66    2.77
   1  -6  -9   22.59    3.03
  -1   6   9   22.38    2.74
  -1   6   9   16.93    2.90
  -1   6   9   26.03    2.27
  -1   6   9   26.03    2.27
  -1   6   9   19.23    2.65
  -1   6   9   19.23    2.65
  -1   6   9   16.93    2.90
  -1   6   9   20.44    2.32
   0  -6  -9    6.70    1.46
   0  -6  -9    6.62    2.32
   0  -6  -9    1.03    2.27
   0  -6  -9    6.70    1.46
   0  -6  -9    1.03    2.27
   0   6   9    5.71    1.57
   0   6   9    6.61    1.95
   0   6   9    4.57    2.50
   0   6   9    0.69    1.51
   0   6   9    3.67    2.06
   0   6   9    4.15    1.69
   0   6   9    0.69    1.51
   0   6   9    4.14    1.69
   0   6   9    4.57    2.50
   0   6   9    3.67    2.06
  -1  -6  -9   10.41    2.76
  -1  -6  -9   12.94    1.52
  -1  -6  -9   11.14    1.82
  -1  -6  -9   10.41    2.76
  -1  -6  -9   12.23    1.94
  -1  -6  -9   11.14    1.82
  -1  -6  -9   12.94    1.52
  -1  -6  -9   10.78    2.78
  -1  -6  -9   12.16    1.86
   1   6   9    9.85    1.92
   1   6   9    9.85    1.92
   1   6   9   12.83    2.33
   1   6   9   10.99    1.53
   1   6   9    8.98    1.69
   1   6   9   10.99    1.53
   1   6   9   12.83    2.33
  -2  -6  -9   26.90    3.41
  -2  -6  -9   26.87    3.41
  -2  -6  -9   33.01    3.48
  -2  -6  -9   25.31    2.12
  -2  -6  -9   30.38    1.98
  -2  -6  -9   30.38    1.98
   2   6   9   24.73    2.11
   2   6   9   25.90    2.14
   2   6   9   26.02    2.83
   2   6   9   24.73    2.11
   2   6   9   26.02    2.82
   2   6   9   24.21    2.21
  -3  -6  -9   30.96    2.22
  -3  -6  -9   30.50    3.51
  -3  -6  -9   27.20    3.48
  -3  -6  -9   35.48    2.44
  -3  -6  -9   27.20    3.48
  -3  -6  -9   29.88    2.23
  -3  -6  -9   30.96    2.22
  -3  -6  -9   35.48    2.44
   3   6   9   27.77    2.14
   3   6   9   28.82    2.17
   3   6   9   27.77    2.14
   3   6   9   31.17    2.38
   3   6   9   31.17    2.38
   3   6   9   30.63    2.45
  -4  -6  -9   15.58    2.44
  -4  -6  -9    7.41    3.12
  -4  -6  -9   12.66    1.67
  -4  -6  -9   20.80    3.30
  -4  -6  -9   14.63    2.12
  -4  -6  -9   14.63    2.12
  -4  -6  -9   13.94    2.14
  -4  -6  -9   13.95    2.14
  -4  -6  -9   12.66    1.67
  -4  -6  -9    7.41    3.12
  -4  -6  -9    9.82    1.66
   4   6   9   14.32    1.69
   4   6   9    9.83    1.99
   4   6   9    9.83    1.99
   4   6   9   13.30    1.65
   4   6   9   11.22    2.02
   4   6   9   14.32    1.69
  -5  -6  -9   12.41    3.15
  -5  -6  -9   29.44    2.52
  -5  -6  -9   20.73    3.08
  -5  -6  -9   29.44    2.52
  -5  -6  -9   24.82    3.85
  -5  -6  -9   12.41    3.15
  -5  -6  -9   20.74    3.08
  -5  -6  -9   22.73    2.72
  -5  -6  -9   22.42    2.12
  -5  -6  -9   24.74    3.84
  -5  -6  -9   24.78    3.85
   5   6   9   20.31    2.83
   5   6   9   19.27    2.68
   5   6   9   21.35    4.00
   5   6   9   15.75    3.91
   5   6   9   24.01    2.12
   5   6   9   21.36    3.99
   5   6   9   15.75    3.91
   5   6   9   24.01    2.12
   5   6   9   19.53    2.10
   5   6   9   20.31    2.83
   2  -7  -9   59.94    4.01
   2  -7  -9   57.04    3.96
   2  -7  -9   62.60    4.62
   2  -7  -9   55.09    4.75
   2  -7  -9   62.60    4.62
   2  -7  -9   54.80    4.55
   2  -7  -9   59.94    4.01
  -2   7   9   53.30    4.45
  -2   7   9   64.61    3.91
  -2   7   9   64.61    3.91
  -2   7   9   62.31    5.13
  -2   7   9   53.30    4.45
  -2   7   9   64.20    4.53
  -2   7   9   62.31    5.13
  -2   7   9   61.39    5.07
   1  -7  -9    4.11    2.21
   1  -7  -9    5.25    2.78
   1  -7  -9    1.80    2.88
   1  -7  -9    3.51    2.76
   1  -7  -9    1.80    2.76
   1  -7  -9    5.25    2.78
   1  -7  -9    3.51    2.76
   1  -7  -9    4.11    2.21
   1  -7  -9    5.72    2.66
  -1   7   9    0.48    2.64
  -1   7   9    2.26    1.90
  -1   7   9    6.94    2.16
  -1   7   9    4.66    2.64
  -1   7   9    4.38    2.85
  -1   7   9    0.48    2.64
  -1   7   9    2.26    1.90
  -1   7   9    4.38    2.85
   0  -7  -9    3.75    2.52
   0  -7  -9   -1.10    1.90
   0  -7  -9    1.25    1.95
   0  -7  -9   -1.10    1.90
   0  -7  -9    3.93    2.52
   0  -7  -9    1.25    1.87
   0  -7  -9    3.75    2.52
   0   7   9   -3.25    1.97
   0   7   9   -5.79    2.42
   0   7   9    0.88    1.63
   0   7   9    1.81    2.23
   0   7   9   -3.25    1.97
   0   7   9    0.88    1.63
   0   7   9   -5.79    2.42
   0   7   9    0.56    1.91
   0   7   9    1.81    2.24
   0   7   9    1.36    1.79
  -1  -7  -9   44.64    2.56
  -1  -7  -9   44.62    3.08
  -1  -7  -9   44.53    2.96
  -1  -7  -9   52.03    4.38
  -1  -7  -9   47.63    3.11
  -1  -7  -9   44.64    2.56
  -1  -7  -9   52.04    4.38
  -1  -7  -9   47.63    3.11
  -1  -7  -9   50.66    4.30
   1   7   9   46.39    3.00
   1   7   9   50.35    2.50
   1   7   9   42.42    2.56
   1   7   9   46.39    3.00
   1   7   9   47.94    3.21
   1   7   9   50.35    2.50
  -2  -7  -9   13.84    2.61
  -2  -7  -9   12.19    1.59
  -2  -7  -9   11.48    1.83
  -2  -7  -9   17.11    2.64
  -2  -7  -9   11.37    1.74
  -2  -7  -9    9.88    1.75
  -2  -7  -9   13.84    2.61
  -2  -7  -9    9.88    1.75
  -2  -7  -9   12.19    1.59
   2   7   9   12.60    1.79
   2   7   9   13.60    1.64
   2   7   9   13.17    1.52
   2   7   9   13.17    1.52
   2   7   9   11.83    1.84
   2   7   9   11.83    1.84
  -3  -7  -9    5.39    2.28
  -3  -7  -9    8.74    1.71
  -3  -7  -9    6.88    2.39
  -3  -7  -9    8.74    1.71
  -3  -7  -9    6.88    2.39
   3   7   9    6.61    1.51
   3   7   9    6.61    1.51
   3   7   9    5.59    1.47
   3   7   9    6.57    1.55
  -4  -7  -9    3.56    3.21
  -4  -7  -9    6.22    3.34
  -4  -7  -9    6.23    3.34
  -4  -7  -9    4.74    1.45
  -4  -7  -9    7.89    1.94
  -4  -7  -9    5.06    1.81
  -4  -7  -9    5.62    1.48
  -4  -7  -9    4.74    1.45
  -4  -7  -9    7.89    1.94
   4   7   9    7.06    1.83
   4   7   9    7.06    1.83
   4   7   9    6.03    1.50
   4   7   9    6.03    1.50
   4   7   9    3.52    3.16
   4   7   9    5.81    1.89
   4   7   9    4.73    2.38
   4   7   9    4.73    2.38
   4   7   9    5.97    1.47
   4   7   9    3.52    3.16
  -5  -7  -9    9.32    1.71
  -5  -7  -9   11.80    2.49
  -5  -7  -9    6.79    1.67
  -5  -7  -9    8.04    2.24
  -5  -7  -9   13.34    3.48
  -5  -7  -9   11.80    2.48
  -5  -7  -9   13.01    3.10
  -5  -7  -9    6.79    1.67
  -5  -7  -9    8.18    2.33
  -5  -7  -9   13.00    3.10
   5   7   9    4.40    2.18
   5   7   9    4.40    2.18
   5   7   9    6.37    3.81
   5   7   9    5.99    2.23
   5   7   9    7.57    1.67
   5   7   9    9.28    4.10
   5   7   9    6.37    3.81
   5   7   9    7.57    1.67
   5   7   9    9.28    4.10
   5   7   9   11.13    1.78
   1  -8  -9    7.83    2.13
   1  -8  -9   15.89    3.41
   1  -8  -9    5.64    4.23
   1  -8  -9   15.89    3.41
   1  -8  -9   12.82    2.41
   1  -8  -9   12.82    2.41
   1  -8  -9    5.72    4.46
  -1   8   9   10.72    2.96
  -1   8   9    9.15    2.12
  -1   8   9   13.88    3.26
  -1   8   9   11.59    3.61
  -1   8   9    7.55    2.33
  -1   8   9   10.72    2.96
  -1   8   9    9.15    2.12
  -1   8   9   11.59    3.61
   0  -8  -9    3.33    2.66
   0  -8  -9    5.98    2.45
   0  -8  -9    5.98    2.45
   0  -8  -9    5.33    1.78
   0  -8  -9    5.33    3.12
   0  -8  -9    7.64    2.46
   0  -8  -9    8.05    3.25
   0  -8  -9    8.04    3.25
   0  -8  -9    7.62    2.36
   0  -8  -9    3.33    2.66
   0   8   9    8.03    2.58
   0   8   9    2.70    1.84
   0   8   9    9.36    3.00
   0   8   9    5.11    1.67
   0   8   9    6.74    2.52
   0   8   9    8.03    2.58
   0   8   9    4.82    2.90
   0   8   9    5.11    1.67
   0   8   9    4.82    2.90
   0   8   9    9.36    3.00
  -1  -8  -9    7.09    1.72
  -1  -8  -9   10.09    2.64
  -1  -8  -9    7.49    2.24
  -1  -8  -9    7.50    2.15
  -1  -8  -9    7.09    1.72
  -1  -8  -9   12.53    2.62
  -1  -8  -9    7.66    2.12
  -1  -8  -9   10.24    1.66
  -1  -8  -9   10.09    2.64
  -1  -8  -9    7.66    2.12
   1   8   9    7.84    1.66
   1   8   9    4.49    2.03
   1   8   9   10.92    2.14
   1   8   9    7.73    1.59
   1   8   9   10.92    2.14
   1   8   9    7.73    1.59
  -2  -8  -9   59.90    2.93
  -2  -8  -9   56.70    3.21
  -2  -8  -9   61.96    5.07
  -2  -8  -9   59.85    3.03
  -2  -8  -9   58.53    4.97
  -2  -8  -9   61.96    5.06
  -2  -8  -9   56.70    3.21
   2   8   9   56.91    2.58
   2   8   9   56.27    2.75
   2   8   9   56.91    2.58
  -3  -8  -9   -0.19    2.00
  -3  -8  -9   -0.19    2.00
  -3  -8  -9    3.02    1.44
  -3  -8  -9    3.03    3.27
  -3  -8  -9    3.01    1.38
  -3  -8  -9    3.44    1.50
  -3  -8  -9    0.17    3.18
  -3  -8  -9    3.00    3.27
  -3  -8  -9    3.44    1.50
   3   8   9    1.70    1.38
   3   8   9    1.70    1.38
   3   8   9    3.02    2.79
   3   8   9    3.04    2.78
   3   8   9    1.43    1.50
   3   8   9    1.43    1.50
   3   8   9    1.46    1.46
   3   8   9    3.02    1.51
  -4  -8  -9   -0.79    3.21
  -4  -8  -9    4.88    1.71
  -4  -8  -9    5.13    3.39
  -4  -8  -9    4.88    1.71
  -4  -8  -9   -0.82    1.28
  -4  -8  -9    1.05    1.63
  -4  -8  -9    5.12    3.39
  -4  -8  -9   -0.83    1.34
   4   8   9   -0.18    1.93
   4   8   9   -0.63    3.27
   4   8   9   -0.01    1.51
   4   8   9   -0.57    3.13
   4   8   9   -0.01    1.51
   4   8   9   -0.63    3.26
   4   8   9   -0.18    1.93
   4   8   9    0.07    1.36
   4   8   9   -1.27    1.61
   4   8   9   -0.57    3.13
  -1  -9  -9   10.10    2.46
  -1  -9  -9    6.42    1.70
  -1  -9  -9    3.69    2.19
  -1  -9  -9    3.67    2.09
  -1  -9  -9   10.10    2.46
   1   9   9    7.49    1.74
   1   9   9   -1.13    2.96
   1   9   9    7.86    1.61
   1   9   9   -1.14    2.96
   1   9   9    7.86    1.61
   1   9   9    9.48    2.39
   1   9   9    4.76    2.24
   1   9   9    4.76    2.24
  -2  -9  -9    7.68    1.60
  -2  -9  -9    8.33    1.76
  -2  -9  -9    8.33    1.76
  -2  -9  -9    7.56    3.79
  -2  -9  -9    8.19    3.97
  -2  -9  -9    8.17    1.41
  -2  -9  -9    8.19    3.97
  -2  -9  -9    3.86    1.50
  -2  -9  -9    3.86    1.50
  -2  -9  -9    7.73    1.68
   2   9   9    5.16    3.21
   2   9   9    7.93    1.96
   2   9   9    5.79    1.33
   2   9   9    5.79    1.33
   2   9   9    6.95    2.51
   2   9   9    6.95    2.51
   2   9   9    5.16    3.22
   2   9   9    6.88    1.48
  -3  -9  -9   14.28    4.17
  -3  -9  -9   16.78    4.13
  -3  -9  -9    0.72    1.32
  -3  -9  -9    0.72    1.32
  -3  -9  -9   14.31    4.17
  -3  -9  -9    3.51    1.46
  -3  -9  -9    1.32    0.88
  -3  -9  -9    1.32    0.92
  -3  -9  -9    3.51    1.46
   3   9   9    0.49    1.08
   3   9   9    0.49    1.08
   3   9   9    6.86    3.25
   3   9   9    1.95    1.07
   3   9   9    1.20    1.39
   3   9   9    1.95    1.07
   3   9   9    6.87    3.25
   3   9   9    3.38    1.32
   2   4 -10   69.77    4.64
   2   4 -10   73.05    4.44
   2   4 -10   71.68    4.16
   2   4 -10   75.11    4.40
   2   4 -10   75.11    4.40
   2   4 -10   71.68    4.16
  -2  -4  10   79.55    4.26
  -2  -4  10   71.52    5.27
  -2  -4  10   71.52    5.27
  -2  -4  10   70.90    4.37
  -2  -4  10   70.90    4.37
  -2  -4  10   75.25    4.72
  -2  -4  10   79.55    4.26
  -2  -4  10   70.46    4.59
   1   4 -10   20.07    2.59
   1   4 -10   20.07    2.59
   1   4 -10   27.14    2.98
   1   4 -10   22.60    2.61
   1   4 -10   22.60    2.61
   1   4 -10   21.77    2.96
  -1  -4  10   27.45    3.30
  -1  -4  10   18.27    3.40
  -1  -4  10   26.88    3.10
  -1  -4  10   20.20    2.75
  -1  -4  10   22.18    3.12
  -1  -4  10   20.20    2.75
  -1  -4  10   22.18    3.12
  -1  -4  10   18.27    3.40
   0   4 -10   24.90    2.18
   0   4 -10   30.29    3.62
   0   4 -10   31.31    3.44
   0   4 -10   24.89    2.18
   0   4 -10   26.14    2.80
   0   4 -10   27.57    2.95
   0   4 -10   26.14    2.80
   0   4 -10   31.31    3.44
   0  -4  10   27.35    3.34
   0  -4  10   27.35    3.34
   0  -4  10   31.21    2.99
   0  -4  10   32.74    3.65
   0  -4  10   31.79    3.63
   0  -4  10   31.79    3.63
   0  -4  10   22.76    2.76
   0  -4  10   22.76    2.76
  -1   4 -10    1.06    1.76
  -1   4 -10    1.06    1.76
  -1   4 -10    1.36    1.88
  -1   4 -10    2.44    3.08
  -1   4 -10    1.36    1.88
  -1   4 -10    1.49    3.24
  -1   4 -10   -2.71    1.78
  -1   4 -10    2.44    3.08
   1  -4  10    0.07    2.35
   1  -4  10    1.86    2.31
   1  -4  10    7.35    2.77
   1  -4  10    7.35    2.77
   1  -4  10    0.07    2.35
   1  -4  10    1.86    2.31
   1  -4  10    3.27    3.09
   1  -4  10   -0.12    2.30
   3   3 -10   24.30    3.23
   3   3 -10   24.30    3.23
   3   3 -10   22.47    2.80
   3   3 -10   22.47    2.80
   3   3 -10   22.29    3.05
  -3  -3  10   20.82    4.05
  -3  -3  10   17.35    2.94
  -3  -3  10   20.82    4.05
  -3  -3  10   19.93    2.93
  -3  -3  10   22.96    3.05
  -3  -3  10   19.93    2.93
  -3  -3  10   24.17    3.34
  -3  -3  10   17.35    2.94
   2   3 -10    3.53    2.26
   2   3 -10   12.99    2.61
   2   3 -10    3.53    2.26
   2   3 -10    5.49    2.39
   2   3 -10    0.74    2.19
   2   3 -10    0.74    2.19
  -2  -3  10    4.98    2.33
  -2  -3  10   11.05    1.99
  -2  -3  10    9.82    3.31
  -2  -3  10    4.98    2.33
  -2  -3  10    9.82    3.31
  -2  -3  10   10.72    2.61
  -2  -3  10   11.05    1.99
  -2  -3  10    7.87    2.33
   1   3 -10   10.18    2.47
   1   3 -10    4.96    2.00
   1   3 -10    3.03    2.30
   1   3 -10    8.15    2.16
   1   3 -10    8.15    2.16
   1   3 -10   10.18    2.47
  -1  -3  10    3.31    1.91
  -1  -3  10    8.41    2.37
  -1  -3  10    5.80    2.87
  -1  -3  10    5.64    1.92
  -1  -3  10    9.39    2.22
  -1  -3  10    9.39    2.22
  -1  -3  10    5.64    1.92
  -1  -3  10    5.80    2.87
   0   3 -10   47.79    3.83
   0   3 -10   52.72    3.56
   0   3 -10   52.42    2.54
   0   3 -10   53.96    3.41
   0   3 -10   52.43    2.54
   0   3 -10   50.10    3.96
   0   3 -10   50.10    3.96
   0   3 -10   53.96    3.41
   0  -3  10   43.98    3.95
   0  -3  10   43.98    3.95
   0  -3  10   54.61    4.53
   0  -3  10   55.71    2.95
   0  -3  10   52.76    3.52
   0  -3  10   53.22    4.15
   0  -3  10   54.61    4.53
   0  -3  10   55.71    2.95
  -1   3 -10    4.35    2.14
  -1   3 -10    4.35    2.14
  -1   3 -10    0.53    2.12
  -1   3 -10    0.46    2.68
  -1   3 -10    3.24    1.68
  -1   3 -10    7.21    2.67
  -1   3 -10    7.21    2.67
  -1   3 -10    3.24    1.68
   1  -3  10    0.56    2.09
   1  -3  10    6.29    2.66
   1  -3  10    6.29    2.66
   1  -3  10    4.34    2.22
   1  -3  10    3.37    2.81
   1  -3  10    0.56    2.09
   1  -3  10    4.79    1.62
   1  -3  10    4.79    1.62
  -2   3 -10   10.01    3.51
  -2   3 -10    7.52    2.41
  -2   3 -10    9.09    2.24
  -2   3 -10   10.01    3.51
  -2   3 -10    9.09    2.24
  -2   3 -10    8.69    2.41
  -2   3 -10   11.01    3.30
  -2   3 -10    7.52    2.41
   2  -3  10   12.90    2.86
   2  -3  10   12.26    3.48
   2  -3  10   12.26    3.48
   2  -3  10    9.60    2.43
   2  -3  10    9.60    2.43
   3   2 -10   27.04    3.36
   3   2 -10   30.85    3.02
   3   2 -10   28.23    3.04
   3   2 -10   27.04    3.36
   3   2 -10   30.85    3.02
  -3  -2  10   29.18    3.38
  -3  -2  10   31.12    2.70
  -3  -2  10   37.92    4.40
  -3  -2  10   31.12    2.70
  -3  -2  10   38.73    3.58
  -3  -2  10   37.92    4.40
  -3  -2  10   38.73    3.58
  -3  -2  10   33.16    3.12
   2   2 -10   31.42    2.77
   2   2 -10   36.93    3.21
   2   2 -10   36.93    3.21
   2   2 -10   27.35    2.80
  -2  -2  10   25.71    2.81
  -2  -2  10   25.13    2.85
  -2  -2  10   28.67    3.21
  -2  -2  10   29.17    2.80
  -2  -2  10   28.42    2.89
  -2  -2  10   28.42    2.89
  -2  -2  10   28.67    3.21
  -2  -2  10   29.17    2.80
   1   2 -10   11.98    1.83
   1   2 -10   16.68    2.09
   1   2 -10   15.85    2.40
   1   2 -10   13.75    2.30
   1   2 -10   15.85    2.40
   1   2 -10   11.98    1.83
  -1  -2  10   14.57    3.01
  -1  -2  10   14.57    3.01
  -1  -2  10   16.16    2.42
  -1  -2  10   16.16    2.42
  -1  -2  10   12.49    2.25
  -1  -2  10   16.77    2.52
  -1  -2  10   12.49    2.25
  -1  -2  10   20.38    2.56
   0   2 -10   -0.69    2.00
   0   2 -10    4.35    1.48
   0   2 -10    4.35    1.48
   0   2 -10    3.04    2.10
   0   2 -10   -0.69    2.00
   0  -2  10    4.32    1.73
   0  -2  10    2.89    2.43
   0  -2  10    3.10    2.04
   0  -2  10    1.15    1.34
   0  -2  10    1.15    1.34
   0  -2  10    4.32    1.73
   0  -2  10    2.89    2.43
   0  -2  10    1.76    1.86
  -1   2 -10   45.00    3.13
  -1   2 -10   41.61    3.06
  -1   2 -10   42.18    3.87
  -1   2 -10   41.61    3.06
  -1   2 -10   45.00    3.13
  -1   2 -10   36.86    2.64
  -1   2 -10   36.85    2.63
   1  -2  10   43.99    3.14
   1  -2  10   35.38    3.44
   1  -2  10   43.99    3.14
   1  -2  10   38.05    3.03
   1  -2  10   38.05    3.03
   1  -2  10   44.82    3.34
  -2   2 -10    5.53    2.76
  -2   2 -10   12.22    3.05
  -2   2 -10    6.30    1.68
  -2   2 -10   12.22    3.05
  -2   2 -10    5.13    2.69
  -2   2 -10    6.30    1.68
   2  -2  10   10.23    1.83
   2  -2  10   10.23    1.83
   2  -2  10    7.29    2.73
   2  -2  10   15.35    3.04
   2  -2  10   15.35    3.04
  -3   2 -10   12.17    3.65
  -3   2 -10    9.21    2.56
  -3   2 -10    0.31    1.77
  -3   2 -10    3.56    2.50
  -3   2 -10    9.23    2.57
  -3   2 -10    0.25    2.54
  -3   2 -10    0.25    2.54
  -3   2 -10    0.31    1.77
   3  -2  10    6.35    1.91
   3  -2  10    6.35    1.91
   3  -2  10    2.39    2.63
   3  -2  10    2.39    2.63
   3  -2  10    2.01    2.30
   3  -2  10    7.00    3.53
   4   1 -10   -0.14    1.89
   4   1 -10    6.14    3.07
   4   1 -10    0.46    2.53
   4   1 -10    6.10    2.93
   4   1 -10   -0.48    2.30
   4   1 -10   -0.14    1.89
   4   1 -10   -0.48    2.30
  -4  -1  10   -1.19    2.68
  -4  -1  10   -1.29    3.17
  -4  -1  10   -1.47    3.77
  -4  -1  10   -1.29    3.17
  -4  -1  10   -2.47    2.48
  -4  -1  10    1.06    1.30
  -4  -1  10    2.99    3.42
  -4  -1  10   -1.47    3.77
  -4  -1  10    1.06    1.30
  -4  -1  10   -2.47    2.48
   3   1 -10   51.92    3.54
   3   1 -10   51.92    3.54
   3   1 -10   43.67    3.74
   3   1 -10   51.38    4.27
   3   1 -10   43.67    3.74
   3   1 -10   50.95    4.08
  -3  -1  10   46.79    4.21
  -3  -1  10   45.80    4.60
  -3  -1  10   45.80    4.60
  -3  -1  10   49.24    3.62
  -3  -1  10   47.17    3.28
  -3  -1  10   47.17    3.28
  -3  -1  10   47.51    2.18
  -3  -1  10   49.24    3.62
  -3  -1  10   43.87    3.72
  -3  -1  10   47.51    2.18
   2   1 -10   12.31    2.27
   2   1 -10   13.21    2.28
   2   1 -10   13.21    2.28
  -2  -1  10   14.94    1.96
  -2  -1  10   14.94    1.96
  -2  -1  10    8.97    1.35
  -2  -1  10   16.76    2.37
  -2  -1  10   11.98    2.00
  -2  -1  10   11.98    2.00
  -2  -1  10    8.69    3.04
  -2  -1  10    8.97    1.35
  -2  -1  10    8.69    3.04
  -2  -1  10   11.75    2.38
   1   1 -10   22.47    2.47
   1   1 -10   16.85    2.30
   1   1 -10   17.49    2.46
   1   1 -10   16.85    2.30
   1   1 -10   17.79    2.33
   1   1 -10   17.79    2.33
  -1  -1  10   17.02    2.31
  -1  -1  10   19.24    2.06
  -1  -1  10   18.95    2.35
  -1  -1  10   25.28    2.61
  -1  -1  10   21.77    3.25
  -1  -1  10   19.24    2.06
  -1  -1  10   18.95    2.35
  -1  -1  10   21.77    3.25
   0   1 -10   40.65    2.62
   0   1 -10   40.35    2.87
   0   1 -10   40.65    2.62
   0   1 -10   42.60    3.03
   0   1 -10   40.35    2.87
   0  -1  10   34.68    2.55
   0  -1  10   34.68    2.55
   0  -1  10   38.27    3.56
   0  -1  10   38.27    3.56
   0  -1  10   37.57    2.90
   0  -1  10   36.02    2.82
   0  -1  10   36.02    2.82
   0  -1  10   29.46    3.34
  -1   1 -10   44.61    2.42
  -1   1 -10   48.42    3.13
  -1   1 -10   43.97    3.59
  -1   1 -10   40.31    2.88
  -1   1 -10   40.31    2.88
  -1   1 -10   44.60    2.41
  -1   1 -10   43.64    2.91
  -1   1 -10   43.64    2.91
   1  -1  10   51.35    3.15
   1  -1  10   42.00    2.87
   1  -1  10   42.54    2.89
   1  -1  10   42.00    2.87
   1  -1  10   42.54    2.89
  -2   1 -10    0.99    1.94
  -2   1 -10    0.64    1.71
  -2   1 -10    3.12    2.32
  -2   1 -10    3.12    2.32
  -2   1 -10    0.64    1.71
  -2   1 -10    4.28    1.77
  -2   1 -10    4.28    1.77
  -2   1 -10   -3.16    2.28
   2  -1  10   -1.58    1.67
   2  -1  10    1.63    1.76
   2  -1  10    3.91    2.20
   2  -1  10    1.63    1.76
   2  -1  10    2.87    2.80
   2  -1  10   -1.58    1.67
  -3   1 -10   19.39    2.62
  -3   1 -10   26.74    2.90
  -3   1 -10   22.13    3.49
  -3   1 -10   26.74    2.90
  -3   1 -10   19.13    3.43
  -3   1 -10   20.63    2.58
  -3   1 -10   22.13    3.49
  -3   1 -10   20.63    2.58
   3  -1  10   18.63    2.61
   3  -1  10   23.14    3.01
   3  -1  10   18.63    2.61
   3  -1  10   16.59    3.36
   3  -1  10   20.12    2.53
   3  -1  10   16.59    3.36
   4   0 -10    9.76    3.40
   4   0 -10    1.91    3.30
   4   0 -10    9.78    3.55
   4   0 -10    4.85    2.13
   4   0 -10    9.50    2.78
   4   0 -10    1.91    3.30
   4   0 -10    4.85    2.13
  -4   0  10    6.09    1.82
  -4   0  10    4.74    2.65
  -4   0  10    2.40    3.83
  -4   0  10    8.72    2.80
  -4   0  10   11.40    3.43
  -4   0  10    2.40    3.83
  -4   0  10    4.74    2.65
  -4   0  10   11.40    3.43
  -4   0  10    6.09    1.82
   3   0 -10    4.18    2.76
   3   0 -10    0.78    1.99
   3   0 -10    4.15    2.63
   3   0 -10    1.39    2.10
   3   0 -10    0.78    1.99
   3   0 -10   -2.91    1.83
   3   0 -10    1.39    2.10
  -3   0  10   -1.80    2.17
  -3   0  10    4.19    3.25
  -3   0  10   -1.91    1.34
  -3   0  10    0.81    1.68
  -3   0  10    2.57    2.83
  -3   0  10   -1.08    2.34
  -3   0  10   -1.80    2.17
  -3   0  10    4.19    3.25
  -3   0  10   -1.08    2.34
  -3   0  10   -1.90    1.34
   2   0 -10   85.06    3.92
   2   0 -10   81.48    3.70
   2   0 -10   73.09    3.66
   2   0 -10   73.09    3.66
   2   0 -10   81.48    3.70
  -2   0  10   81.67    4.29
  -2   0  10   84.23    3.76
  -2   0  10   82.45    3.91
  -2   0  10   76.17    3.00
  -2   0  10   70.30    4.31
  -2   0  10   75.99    3.56
  -2   0  10   84.23    3.76
  -2   0  10   75.99    3.56
  -2   0  10   70.30    4.31
  -2   0  10   76.16    2.99
   1   0 -10   28.71    2.22
   1   0 -10   28.71    2.22
   1   0 -10   26.77    2.26
   1   0 -10   26.77    2.26
   1   0 -10   23.99    2.88
   1   0 -10   26.87    2.61
  -1   0  10   22.49    2.19
  -1   0  10   22.49    2.19
  -1   0  10   28.79    2.56
  -1   0  10   27.42    3.38
  -1   0  10   30.71    2.24
  -1   0  10   25.29    2.63
  -1   0  10   24.42    2.16
  -1   0  10   27.42    3.38
  -1   0  10   30.71    2.24
  -1   0  10   24.42    2.16
   0   0 -10    5.92    1.87
   0   0 -10    5.92    1.87
   0   0 -10    5.58    1.86
   0   0 -10    9.98    2.22
   0   0 -10    4.64    1.74
   0   0 -10    9.98    2.22
   0   0  10    5.43    1.84
   0   0  10    4.21    1.32
   0   0  10    8.36    1.89
   0   0  10    5.02    1.72
   0   0  10    7.53    1.89
   0   0  10    4.21    1.32
   0   0  10    5.02    1.72
   0   0  10    8.36    1.89
   0   0  10    3.48    2.31
   0   0  10    3.48    2.31
  -1   0 -10   20.07    2.33
  -1   0 -10   15.94    1.87
  -1   0 -10   20.07    2.33
  -1   0 -10   15.94    1.87
  -1   0 -10   22.17    2.40
  -1   0 -10   11.33    2.22
   1   0  10   19.63    2.26
   1   0  10   17.91    2.02
   1   0  10   17.91    2.02
   1   0  10   20.77    2.39
   1   0  10   19.07    1.89
   1   0  10   19.07    1.89
  -2   0 -10   49.20    3.63
  -2   0 -10   47.75    3.25
  -2   0 -10   48.64    2.98
  -2   0 -10   50.63    3.04
  -2   0 -10   51.37    3.07
  -2   0 -10   51.37    3.07
  -2   0 -10   48.68    2.98
  -2   0 -10   50.63    3.04
   2   0  10   50.60    3.77
   2   0  10   50.94    2.65
   2   0  10   57.98    3.72
   2   0  10   50.94    2.65
   2   0  10   51.33    3.09
   2   0  10   57.98    3.72
  -3   0 -10   29.24    2.50
  -3   0 -10   28.60    2.93
  -3   0 -10   36.66    3.01
  -3   0 -10   30.46    3.34
  -3   0 -10   28.30    2.60
  -3   0 -10   36.66    3.01
  -3   0 -10   28.30    2.60
  -3   0 -10   30.46    3.34
   3   0  10   27.50    2.58
   3   0  10   28.12    3.31
   3   0  10   28.12    3.31
   3   0  10   27.50    2.58
   3   0  10   28.53    3.40
   3   0  10   28.92    2.70
  -4   0 -10   14.89    3.09
  -4   0 -10   16.90    3.59
  -4   0 -10   12.98    2.87
  -4   0 -10   12.98    2.87
  -4   0 -10   13.47    2.52
  -4   0 -10   14.89    3.10
  -4   0 -10   11.25    2.48
  -4   0 -10   13.47    2.52
   4   0  10   11.92    2.50
   4   0  10   11.92    3.64
   4   0  10   12.07    3.41
   4   0  10   14.88    3.63
   4   0  10   11.92    2.50
   4   0  10   14.88    3.63
   4   0  10   16.83    2.68
   4   0  10   12.07    3.41
   4  -1 -10    0.77    2.29
   4  -1 -10   -5.55    3.10
   4  -1 -10    7.57    3.33
   4  -1 -10    6.13    2.15
   4  -1 -10   -5.50    2.95
   4  -1 -10    1.16    2.21
   4  -1 -10    0.74    2.29
   4  -1 -10    7.57    3.33
   4  -1 -10    6.13    2.15
   4  -1 -10    5.22    2.86
  -4   1  10    3.69    2.14
  -4   1  10    3.69    2.14
  -4   1  10    2.38    2.79
  -4   1  10    3.90    3.51
  -4   1  10    1.30    4.06
  -4   1  10    1.30    4.06
  -4   1  10    0.11    3.24
  -4   1  10    0.11    3.24
   3  -1 -10   16.03    3.11
   3  -1 -10   17.99    3.09
   3  -1 -10   17.99    3.09
   3  -1 -10   16.00    2.56
   3  -1 -10   15.95    2.21
   3  -1 -10   16.00    2.56
   3  -1 -10   16.21    3.28
  -3   1  10   10.03    2.82
  -3   1  10   23.06    3.78
  -3   1  10   23.06    3.78
  -3   1  10   18.46    2.04
  -3   1  10   14.54    2.58
  -3   1  10   14.97    3.78
  -3   1  10   10.03    2.82
  -3   1  10   16.79    2.50
  -3   1  10   14.54    2.58
  -3   1  10   18.46    2.04
   2  -1 -10   72.48    3.59
   2  -1 -10   67.94    3.49
   2  -1 -10   67.94    3.49
   2  -1 -10   67.57    4.16
   2  -1 -10   72.48    3.59
   2  -1 -10   74.53    3.70
   2  -1 -10   66.83    3.98
  -2   1  10   72.44    3.31
  -2   1  10   72.55    3.64
  -2   1  10   71.21    4.19
  -2   1  10   70.53    3.52
  -2   1  10   81.64    5.09
  -2   1  10   70.53    3.52
  -2   1  10   72.55    3.64
  -2   1  10   81.64    5.09
  -2   1  10   73.31    3.08
  -2   1  10   73.31    3.07
   1  -1 -10   34.53    2.74
   1  -1 -10   34.73    3.10
   1  -1 -10   30.21    2.56
   1  -1 -10   34.53    2.74
  -1   1  10   35.38    2.37
  -1   1  10   29.65    2.62
  -1   1  10   27.54    2.31
  -1   1  10   28.27    2.46
  -1   1  10   28.27    2.46
  -1   1  10   29.65    2.62
  -1   1  10   35.12    3.61
  -1   1  10   35.12    3.61
  -1   1  10   27.54    2.31
  -1   1  10   29.80    2.79
   0  -1 -10    5.10    1.73
   0  -1 -10    5.10    1.73
   0  -1 -10    4.87    1.79
   0  -1 -10    6.65    1.78
   0  -1 -10    4.87    1.79
   0  -1 -10    4.82    1.82
   0   1  10    5.20    1.66
   0   1  10    8.35    1.54
   0   1  10    5.69    1.67
   0   1  10    5.90    2.49
   0   1  10    8.35    1.54
   0   1  10    5.90    2.49
   0   1  10    6.53    1.61
   0   1  10    6.53    1.61
   0   1  10    5.20    1.66
   0   1  10    7.26    1.82
  -1  -1 -10   14.85    2.00
  -1  -1 -10   16.63    1.82
  -1  -1 -10   16.63    1.82
  -1  -1 -10   18.90    2.19
  -1  -1 -10   17.71    2.04
  -1  -1 -10   17.71    2.04
  -1  -1 -10   21.30    2.26
  -1  -1 -10   14.85    2.00
   1   1  10   14.86    1.68
   1   1  10   22.97    2.36
   1   1  10   16.72    1.94
   1   1  10   16.08    2.00
   1   1  10   18.14    2.25
   1   1  10   16.72    1.94
   1   1  10   18.14    2.25
   1   1  10   14.86    1.68
  -2  -1 -10    0.64    1.95
  -2  -1 -10    1.35    1.57
  -2  -1 -10    0.23    1.65
  -2  -1 -10   -1.23    1.05
  -2  -1 -10    0.23    1.65
  -2  -1 -10   -1.23    1.05
   2   1  10   -0.96    1.80
   2   1  10   -0.96    1.80
   2   1  10   -1.15    1.41
   2   1  10   -1.15    1.41
   2   1  10   -0.50    1.54
   2   1  10   -2.13    1.81
  -3  -1 -10  105.54    4.22
  -3  -1 -10  105.54    4.22
  -3  -1 -10  115.73    5.03
  -3  -1 -10  117.28    4.44
  -3  -1 -10  105.39    4.41
  -3  -1 -10  105.39    4.41
   3   1  10  116.45    4.91
   3   1  10  113.79    4.36
   3   1  10  108.69    4.12
   3   1  10  112.18    5.00
   3   1  10  116.45    4.91
   3   1  10  108.69    4.12
  -4  -1 -10   14.45    2.34
  -4  -1 -10   18.08    2.88
  -4  -1 -10   20.45    2.65
  -4  -1 -10   18.67    2.76
  -4  -1 -10   18.67    2.76
  -4  -1 -10   14.45    2.34
  -4  -1 -10   18.09    2.88
  -4  -1 -10   14.12    3.07
   4   1  10   14.43    3.21
   4   1  10   17.70    2.33
   4   1  10   17.82    2.56
   4   1  10   14.43    3.21
   4   1  10   21.01    3.44
   4   1  10   17.70    2.33
   3  -2 -10    9.73    2.50
   3  -2 -10   14.82    2.47
   3  -2 -10    9.89    2.38
   3  -2 -10    8.91    2.41
   3  -2 -10    9.94    3.15
   3  -2 -10    9.92    3.02
   3  -2 -10    9.73    2.50
   3  -2 -10   14.82    2.47
   3  -2 -10   13.29    2.55
   3  -2 -10    8.91    2.41
  -3   2  10   10.39    3.09
  -3   2  10    9.68    2.40
  -3   2  10   17.60    2.31
  -3   2  10    9.68    2.40
  -3   2  10   17.30    2.31
  -3   2  10   13.91    2.59
  -3   2  10   13.91    2.59
  -3   2  10   17.31    2.31
  -3   2  10   12.29    3.08
  -3   2  10   12.29    3.08
   2  -2 -10   50.84    3.75
   2  -2 -10   54.31    3.27
   2  -2 -10   50.84    3.75
   2  -2 -10   52.81    3.39
   2  -2 -10   54.31    3.27
   2  -2 -10   61.40    4.07
   2  -2 -10   61.41    3.92
  -2   2  10   49.95    3.20
  -2   2  10   48.65    3.73
  -2   2  10   53.16    4.72
  -2   2  10   53.16    4.72
  -2   2  10   55.28    3.03
  -2   2  10   56.47    3.98
  -2   2  10   55.28    3.03
  -2   2  10   53.50    2.92
  -2   2  10   49.95    3.20
  -2   2  10   48.65    3.73
   1  -2 -10   16.27    2.03
   1  -2 -10   16.84    2.42
   1  -2 -10   19.65    2.25
   1  -2 -10   16.27    2.03
   1  -2 -10   16.84    2.42
  -1   2  10   17.26    3.05
  -1   2  10   13.91    1.96
  -1   2  10   17.26    3.05
  -1   2  10   13.49    2.15
  -1   2  10   15.22    1.88
  -1   2  10   13.49    2.15
  -1   2  10   13.91    1.96
  -1   2  10   17.89    4.04
  -1   2  10   15.24    1.89
  -1   2  10   11.99    1.94
   0  -2 -10   16.64    1.95
   0  -2 -10   16.64    1.95
   0  -2 -10   18.86    2.06
   0  -2 -10   13.81    1.99
   0  -2 -10   16.55    1.80
   0  -2 -10   16.55    1.80
   0   2  10   15.55    2.51
   0   2  10   15.51    1.94
   0   2  10   14.52    1.95
   0   2  10   15.51    1.94
   0   2  10   14.01    1.92
   0   2  10   14.01    1.92
   0   2  10   14.59    2.01
   0   2  10   14.59    2.01
   0   2  10   14.43    2.62
   0   2  10   14.43    2.62
  -1  -2 -10   37.84    2.68
  -1  -2 -10   36.86    2.47
  -1  -2 -10   36.86    2.47
  -1  -2 -10   39.29    2.41
   1   2  10   31.30    2.56
   1   2  10   31.30    2.56
   1   2  10   41.75    2.85
   1   2  10   34.70    2.80
   1   2  10   32.52    2.97
   1   2  10   33.90    2.46
   1   2  10   34.70    2.81
   1   2  10   33.90    2.46
  -2  -2 -10   82.74    3.10
  -2  -2 -10   81.19    3.98
  -2  -2 -10   82.74    3.10
  -2  -2 -10   84.98    3.55
   2   2  10   89.32    4.13
   2   2  10   77.59    3.29
   2   2  10   82.37    3.76
   2   2  10   89.34    4.13
   2   2  10   81.33    3.77
   2   2  10   77.59    3.29
   2   2  10   82.37    3.76
   2   2  10   79.76    3.46
  -3  -2 -10    5.10    2.03
  -3  -2 -10    4.34    1.89
  -3  -2 -10    5.21    2.10
  -3  -2 -10   11.68    1.85
  -3  -2 -10   11.68    1.85
  -3  -2 -10    5.10    2.04
   3   2  10    5.22    2.17
   3   2  10    7.60    2.18
   3   2  10    7.60    2.18
   3   2  10    4.57    1.60
   3   2  10    7.17    1.73
   3   2  10    7.17    1.73
  -4  -2 -10   24.93    3.37
  -4  -2 -10   22.22    2.80
  -4  -2 -10   22.22    2.81
  -4  -2 -10   26.14    2.63
  -4  -2 -10   25.43    2.52
  -4  -2 -10   25.43    2.52
   4   2  10   28.42    3.23
   4   2  10   28.42    3.23
   4   2  10   24.24    2.41
   4   2  10   24.24    2.41
   4   2  10   28.26    3.39
   4   2  10   25.31    2.59
   3  -3 -10   18.33    3.27
   3  -3 -10   14.80    2.63
   3  -3 -10   14.32    2.52
   3  -3 -10   19.85    3.16
   3  -3 -10   18.33    3.27
   3  -3 -10   17.73    2.29
   3  -3 -10   14.80    2.63
   3  -3 -10   17.73    2.29
   3  -3 -10   18.76    2.70
   3  -3 -10   20.01    3.31
  -3   3  10   15.79    3.92
  -3   3  10   18.25    2.77
  -3   3  10   19.75    3.56
  -3   3  10   17.27    2.81
  -3   3  10   18.25    2.77
  -3   3  10   13.18    3.38
  -3   3  10   13.18    3.38
  -3   3  10   15.79    3.92
   2  -3 -10   34.33    3.42
   2  -3 -10   28.32    3.76
   2  -3 -10   32.71    2.81
   2  -3 -10   29.59    3.03
   2  -3 -10   36.74    3.01
   2  -3 -10   35.79    3.17
   2  -3 -10   35.79    3.17
   2  -3 -10   28.32    3.76
   2  -3 -10   34.68    3.59
   2  -3 -10   36.74    3.01
  -2   3  10   31.81    2.76
  -2   3  10   36.03    3.38
  -2   3  10   30.17    3.91
  -2   3  10   33.20    3.10
  -2   3  10   30.17    3.91
  -2   3  10   31.81    2.76
  -2   3  10   33.20    3.10
  -2   3  10   36.59    2.97
  -2   3  10   36.60    2.97
  -2   3  10   39.10    3.13
   1  -3 -10    0.09    1.50
   1  -3 -10    7.45    2.09
   1  -3 -10    7.57    2.21
   1  -3 -10    6.38    1.92
   1  -3 -10    0.09    1.50
  -1   3  10    6.62    1.77
  -1   3  10    6.61    1.77
  -1   3  10    6.06    2.91
  -1   3  10    6.31    2.06
  -1   3  10    6.31    2.06
  -1   3  10    5.38    2.18
  -1   3  10    6.06    2.91
  -1   3  10    8.94    1.78
   0  -3 -10   33.43    2.89
   0  -3 -10   41.00    2.74
   0   3  10   37.85    2.19
   0   3  10   39.03    3.12
   0   3  10   38.73    2.74
   0   3  10   37.85    2.19
   0   3  10   33.62    2.63
   0   3  10   36.83    2.76
   0   3  10   36.83    2.76
   0   3  10   37.67    2.82
   0   3  10   38.72    2.74
   0   3  10   39.03    3.12
  -1  -3 -10   79.61    3.42
  -1  -3 -10   73.40    3.29
  -1  -3 -10   79.23    3.45
  -1  -3 -10   73.40    3.29
   1   3  10   81.15    3.75
   1   3  10   83.47    3.35
   1   3  10   76.32    3.30
   1   3  10   76.32    3.30
   1   3  10   84.98    3.48
   1   3  10   81.43    3.48
   1   3  10   83.47    3.35
   1   3  10   81.17    3.74
  -2  -3 -10   52.88    2.73
  -2  -3 -10   44.06    3.02
  -2  -3 -10   46.77    2.96
  -2  -3 -10   51.63    2.92
  -2  -3 -10   44.06    3.02
  -2  -3 -10   51.63    2.92
  -2  -3 -10   52.88    2.73
  -2  -3 -10   46.28    2.82
   2   3  10   44.43    2.82
   2   3  10   45.43    2.62
   2   3  10   48.36    3.54
   2   3  10   43.45    2.70
   2   3  10   47.84    3.00
   2   3  10   45.43    2.62
   2   3  10   48.36    3.54
   2   3  10   44.43    2.82
  -3  -3 -10    2.61    2.00
  -3  -3 -10    2.15    1.56
  -3  -3 -10    3.03    1.92
  -3  -3 -10    2.15    1.56
  -3  -3 -10    3.03    1.92
  -3  -3 -10    6.23    1.76
   3   3  10    5.53    1.98
   3   3  10    5.53    1.98
   3   3  10    5.94    1.63
   3   3  10    0.85    2.43
   3   3  10    0.85    2.42
   3   3  10    5.98    1.62
   3   3  10    5.98    1.62
   3   3  10    3.65    2.08
  -4  -3 -10   11.69    2.61
  -4  -3 -10    8.80    1.85
  -4  -3 -10    8.59    2.36
  -4  -3 -10   11.69    2.61
  -4  -3 -10    8.95    2.64
  -4  -3 -10    8.59    2.36
  -4  -3 -10    8.80    1.85
  -4  -3 -10   11.16    2.08
   4   3  10   14.15    2.77
   4   3  10   16.63    2.08
   4   3  10   10.37    1.97
   4   3  10   14.93    2.67
   4   3  10   10.37    1.97
   4   3  10   14.93    2.67
  -5  -3 -10    2.53    2.25
  -5  -3 -10    7.46    3.09
  -5  -3 -10    3.19    2.24
  -5  -3 -10    6.22    3.13
  -5  -3 -10    6.22    3.13
  -5  -3 -10    6.61    2.78
  -5  -3 -10    2.53    2.25
  -5  -3 -10    6.60    2.78
   5   3  10   -0.18    1.93
   5   3  10    3.96    2.13
   5   3  10    3.08    3.85
   5   3  10   -0.18    1.93
   5   3  10    3.08    3.85
   5   3  10    4.82    3.24
   3  -4 -10   26.38    2.97
   3  -4 -10   27.88    3.18
   3  -4 -10   28.17    2.97
   3  -4 -10   26.39    2.97
   3  -4 -10   26.38    3.20
   3  -4 -10   22.70    3.65
   3  -4 -10   22.70    3.65
   3  -4 -10   27.88    3.18
   3  -4 -10   23.13    3.73
   3  -4 -10   23.00    3.57
  -3   4  10   29.33    3.17
  -3   4  10   24.97    3.67
  -3   4  10   30.30    3.31
  -3   4  10   30.30    3.31
  -3   4  10   22.38    2.60
  -3   4  10   15.36    4.17
  -3   4  10   15.36    4.17
  -3   4  10   22.38    2.60
   2  -4 -10   14.57    2.85
   2  -4 -10   14.32    2.83
   2  -4 -10   11.66    2.33
   2  -4 -10   13.68    2.91
   2  -4 -10   13.75    3.04
   2  -4 -10   14.57    2.85
  -2   4  10   11.45    2.21
  -2   4  10   13.70    2.67
  -2   4  10    8.33    3.29
  -2   4  10   15.32    2.33
  -2   4  10   15.32    2.33
  -2   4  10   17.93    2.54
  -2   4  10    8.33    3.29
  -2   4  10   11.88    2.34
  -2   4  10   17.93    2.54
  -2   4  10   11.45    2.21
   1  -4 -10   52.08    3.08
   1  -4 -10   49.07    3.91
   1  -4 -10   65.93    4.93
   1  -4 -10   47.11    4.27
   1  -4 -10   39.38    2.81
   1  -4 -10   49.07    3.77
   1  -4 -10   39.38    2.81
   1  -4 -10   65.92    4.93
  -1   4  10   49.06    3.13
  -1   4  10   48.32    3.66
  -1   4  10   50.66    3.20
  -1   4  10   51.74    2.97
  -1   4  10   56.95    4.61
  -1   4  10   51.74    2.97
  -1   4  10   50.67    3.21
  -1   4  10   56.95    4.61
  -1   4  10   42.71    3.43
  -1   4  10   42.71    3.43
   0  -4 -10    0.69    2.45
   0  -4 -10    0.69    2.45
   0  -4 -10    2.54    1.39
   0  -4 -10   -0.18    1.51
   0  -4 -10    2.54    1.39
   0  -4 -10    2.93    2.37
   0   4  10    2.23    1.52
   0   4  10    3.16    1.50
   0   4  10    1.14    1.85
   0   4  10    2.15    2.32
   0   4  10   -0.79    1.64
   0   4  10    2.83    1.84
   0   4  10    2.23    1.52
   0   4  10    2.15    2.32
   0   4  10    1.14    1.85
   0   4  10   -0.79    1.64
  -1  -4 -10   41.50    2.54
  -1  -4 -10   38.96    2.74
  -1  -4 -10   38.23    2.83
  -1  -4 -10   41.50    2.54
  -1  -4 -10   43.27    2.70
  -1  -4 -10   43.27    2.70
   1   4  10   39.38    2.86
   1   4  10   40.13    2.62
   1   4  10   38.60    2.49
   1   4  10   40.13    2.62
   1   4  10   40.67    2.66
   1   4  10   37.40    3.13
   1   4  10   38.60    2.49
   1   4  10   37.40    3.13
  -2  -4 -10   39.13    2.50
  -2  -4 -10   34.92    2.82
  -2  -4 -10   33.10    2.74
  -2  -4 -10   33.10    2.74
  -2  -4 -10   39.13    2.50
   2   4  10   37.75    3.38
   2   4  10   31.75    2.60
   2   4  10   32.82    2.39
   2   4  10   37.00    2.85
   2   4  10   30.58    2.40
   2   4  10   37.00    2.85
   2   4  10   32.82    2.39
   2   4  10   37.75    3.38
  -3  -4 -10    8.38    2.20
  -3  -4 -10    5.13    1.57
  -3  -4 -10    5.13    1.57
  -3  -4 -10    4.33    1.77
  -3  -4 -10    8.37    2.20
   3   4  10    5.64    1.51
   3   4  10    6.40    1.93
   3   4  10    7.79    1.62
   3   4  10    6.40    1.93
   3   4  10    7.79    1.62
   3   4  10    8.06    2.03
  -4  -4 -10   17.64    2.25
  -4  -4 -10   20.16    2.78
  -4  -4 -10   17.64    2.25
  -4  -4 -10   22.25    3.09
  -4  -4 -10   20.16    2.78
  -4  -4 -10   22.25    3.09
  -4  -4 -10   19.91    2.38
   4   4  10   21.47    2.91
   4   4  10   19.39    2.24
   4   4  10   20.49    3.59
   4   4  10   21.31    2.21
   4   4  10   21.47    2.91
   4   4  10   24.28    2.96
   4   4  10   19.39    2.24
   4   4  10   20.50    3.59
  -5  -4 -10   25.01    3.41
  -5  -4 -10   26.37    2.41
  -5  -4 -10   22.15    2.59
  -5  -4 -10   26.37    2.41
  -5  -4 -10   18.21    3.08
  -5  -4 -10   28.02    3.46
  -5  -4 -10   25.01    3.41
  -5  -4 -10   28.02    3.46
   5   4  10   25.37    3.29
   5   4  10   24.35    2.46
   5   4  10   15.72    4.20
   5   4  10   15.72    4.20
   5   4  10   27.86    3.64
   5   4  10   24.35    2.46
   5   4  10   25.37    3.29
   5   4  10   25.37    2.67
   2  -5 -10   29.29    3.65
   2  -5 -10   31.56    3.54
   2  -5 -10   25.56    2.99
   2  -5 -10   22.30    2.76
   2  -5 -10   24.57    4.01
   2  -5 -10   24.58    4.02
   2  -5 -10   31.56    3.54
   2  -5 -10   23.06    3.87
   2  -5 -10   25.56    2.99
   2  -5 -10   29.49    3.82
  -2   5  10   24.11    3.32
  -2   5  10   23.21    3.98
  -2   5  10   23.21    3.98
  -2   5  10   24.11    3.32
  -2   5  10   25.43    3.49
  -2   5  10   26.10    2.96
  -2   5  10   22.55    2.72
  -2   5  10   22.55    2.72
   1  -5 -10   55.12    4.00
   1  -5 -10   61.35    4.21
   1  -5 -10   61.36    4.21
   1  -5 -10   60.36    4.14
   1  -5 -10   64.09    3.81
   1  -5 -10   54.85    4.13
   1  -5 -10   55.75    3.20
   1  -5 -10   64.09    3.81
  -1   5  10   57.44    3.76
  -1   5  10   57.44    3.76
  -1   5  10   51.56    3.30
  -1   5  10   54.90    3.13
  -1   5  10   50.77    3.71
  -1   5  10   52.30    3.91
  -1   5  10   50.76    3.71
  -1   5  10   52.30    3.91
  -1   5  10   54.90    3.13
  -1   5  10   53.07    3.92
   0  -5 -10   12.05    1.88
   0  -5 -10   11.73    2.30
   0  -5 -10   15.83    3.04
   0  -5 -10   13.29    2.87
   0  -5 -10   11.73    2.30
   0  -5 -10   13.30    2.87
   0  -5 -10   12.33    2.78
   0  -5 -10   15.83    3.04
   0  -5 -10   14.07    2.35
   0  -5 -10   14.16    2.46
   0   5  10   11.33    2.13
   0   5  10   18.44    3.09
   0   5  10   12.14    1.78
   0   5  10    9.01    2.06
   0   5  10   12.73    2.35
   0   5  10   12.73    2.35
   0   5  10   12.14    1.78
   0   5  10   11.33    2.13
   0   5  10    9.42    1.86
   0   5  10   18.44    3.09
  -1  -5 -10   20.44    3.20
  -1  -5 -10   23.10    2.15
  -1  -5 -10   23.10    2.15
  -1  -5 -10   20.49    3.25
  -1  -5 -10   20.48    3.24
   1   5  10   18.59    2.48
   1   5  10   22.03    2.18
   1   5  10   22.03    2.18
   1   5  10   18.59    2.48
   1   5  10   21.62    1.96
   1   5  10   21.62    1.96
   1   5  10   17.52    2.07
   1   5  10   23.68    2.14
  -2  -5 -10    1.53    1.63
  -2  -5 -10    1.41    2.58
  -2  -5 -10   -0.46    2.53
  -2  -5 -10   -1.02    1.60
  -2  -5 -10   -0.47    2.53
  -2  -5 -10    1.53    1.63
  -2  -5 -10   -1.02    1.60
   2   5  10    0.17    1.56
   2   5  10   -3.12    2.27
   2   5  10   -0.08    1.61
   2   5  10   -0.96    1.36
   2   5  10    2.07    1.50
   2   5  10   -0.08    1.61
   2   5  10   -3.12    2.27
   2   5  10    0.17    1.56
  -3  -5 -10   33.28    3.00
  -3  -5 -10   33.27    3.00
  -3  -5 -10   34.76    2.42
  -3  -5 -10   34.76    2.42
  -3  -5 -10   26.00    3.59
  -3  -5 -10   26.02    3.59
  -3  -5 -10   31.45    3.63
   3   5  10   32.44    2.71
   3   5  10   34.01    2.62
   3   5  10   34.01    2.62
   3   5  10   32.44    2.71
   3   5  10   32.36    2.52
   3   5  10   33.98    2.76
  -4  -5 -10   11.20    3.49
  -4  -5 -10   12.59    3.24
  -4  -5 -10   12.59    3.24
  -4  -5 -10   10.16    3.32
  -4  -5 -10   10.91    1.88
  -4  -5 -10   13.36    2.68
  -4  -5 -10   15.75    2.10
  -4  -5 -10   13.37    2.68
  -4  -5 -10   15.75    2.10
  -4  -5 -10   11.24    3.48
   4   5  10   13.19    2.00
   4   5  10   15.32    3.41
   4   5  10   10.20    2.55
   4   5  10   13.02    2.61
   4   5  10   15.33    3.41
   4   5  10   14.26    1.98
   4   5  10   14.26    1.98
   4   5  10   13.02    2.61
  -5  -5 -10    9.18    2.18
  -5  -5 -10    6.53    3.20
  -5  -5 -10    6.53    3.20
  -5  -5 -10    9.18    2.18
  -5  -5 -10    7.69    2.88
  -5  -5 -10    8.14    2.77
  -5  -5 -10    7.82    2.99
  -5  -5 -10    7.71    2.87
  -5  -5 -10   12.70    2.97
  -5  -5 -10    6.64    1.92
  -5  -5 -10    7.81    2.98
   5   5  10   -0.20    3.64
   5   5  10    7.66    2.75
   5   5  10    9.32    1.98
   5   5  10   13.22    2.29
   5   5  10    9.32    1.98
   5   5  10    7.66    2.75
   5   5  10   -0.20    3.64
   5   5  10    0.09    3.76
   5   5  10    7.11    3.07
   5   5  10    0.10    3.77
   2  -6 -10   10.38    3.15
   2  -6 -10   15.29    3.28
   2  -6 -10   15.48    3.69
   2  -6 -10   12.16    2.59
   2  -6 -10    9.90    2.50
   2  -6 -10   15.32    3.28
   2  -6 -10    9.90    2.50
   2  -6 -10   15.48    3.84
   2  -6 -10   11.59    3.11
   2  -6 -10   10.38    3.15
  -2   6  10   11.37    3.38
  -2   6  10   16.15    3.44
  -2   6  10   16.15    3.44
  -2   6  10   11.32    2.59
  -2   6  10    9.20    2.75
  -2   6  10   11.32    2.59
  -2   6  10   10.80    3.71
  -2   6  10   10.80    3.71
   1  -6 -10   20.81    3.22
   1  -6 -10   21.21    3.29
   1  -6 -10   22.05    2.45
   1  -6 -10   25.21    2.93
   1  -6 -10   21.23    3.29
   1  -6 -10   17.28    3.10
   1  -6 -10   22.05    2.45
   1  -6 -10   18.71    2.53
   1  -6 -10   25.21    2.93
   1  -6 -10   17.37    3.25
  -1   6  10   17.11    3.04
  -1   6  10   22.51    2.39
  -1   6  10   16.94    2.89
  -1   6  10   16.94    2.89
  -1   6  10   22.51    2.39
  -1   6  10   20.77    3.45
  -1   6  10   20.77    3.45
  -1   6  10   21.62    2.92
  -1   6  10   21.62    2.92
  -1   6  10   17.85    2.42
   0  -6 -10   10.88    2.94
   0  -6 -10   10.88    2.94
   0  -6 -10    8.99    2.35
   0  -6 -10    5.55    2.26
   0  -6 -10    5.56    2.36
   0  -6 -10    8.99    2.35
   0  -6 -10    7.68    2.81
   0   6  10    5.72    1.85
   0   6  10    5.26    1.84
   0   6  10   10.02    2.28
   0   6  10    6.36    2.10
   0   6  10    4.81    2.90
   0   6  10    4.81    2.90
   0   6  10   10.02    2.28
   0   6  10    5.26    1.84
  -1  -6 -10   28.97    2.54
  -1  -6 -10   27.99    3.54
  -1  -6 -10   26.43    2.55
  -1  -6 -10   28.00    3.55
  -1  -6 -10   26.43    2.55
  -1  -6 -10   26.99    3.50
  -1  -6 -10   28.97    2.54
   1   6  10   21.73    2.18
   1   6  10   24.45    2.50
   1   6  10   30.13    2.55
   1   6  10   30.13    2.55
   1   6  10   24.45    2.50
   1   6  10   20.90    2.41
  -2  -6 -10   50.29    4.57
  -2  -6 -10   41.92    2.82
  -2  -6 -10   41.92    2.82
  -2  -6 -10   36.49    4.14
  -2  -6 -10   36.48    4.14
   2   6  10   39.60    2.49
   2   6  10   40.08    2.81
   2   6  10   44.49    2.86
   2   6  10   39.60    2.49
   2   6  10   44.49    2.86
   2   6  10   40.51    2.63
  -3  -6 -10    1.63    1.97
  -3  -6 -10    1.85    3.01
  -3  -6 -10    2.58    1.65
  -3  -6 -10    2.58    1.65
  -3  -6 -10    1.63    1.97
  -3  -6 -10    2.48    2.88
  -3  -6 -10    1.85    3.01
  -3  -6 -10    0.39    1.69
  -3  -6 -10   -1.16    1.48
   3   6  10    2.85    1.79
   3   6  10    2.26    2.14
   3   6  10   -0.50    1.51
   3   6  10    1.95    1.79
   3   6  10    0.21    1.38
   3   6  10    2.26    2.14
   3   6  10    0.21    1.38
   3   6  10    1.95    1.79
  -4  -6 -10   10.73    1.88
  -4  -6 -10    2.48    3.33
  -4  -6 -10   11.68    2.75
  -4  -6 -10   11.68    2.75
  -4  -6 -10    4.52    2.15
  -4  -6 -10    6.80    3.64
  -4  -6 -10    6.78    3.64
  -4  -6 -10    9.27    1.90
  -4  -6 -10   10.73    1.88
   4   6  10    9.27    2.43
   4   6  10    7.71    2.26
   4   6  10   12.96    1.87
   4   6  10   10.63    3.61
   4   6  10    9.44    1.76
   4   6  10   12.96    1.87
   4   6  10   10.63    3.61
   4   6  10    9.27    2.43
   1  -7 -10   -4.22    2.81
   1  -7 -10    0.73    3.11
   1  -7 -10    0.73    3.11
   1  -7 -10   -4.22    2.92
   1  -7 -10    2.97    2.53
   1  -7 -10    2.97    2.53
   1  -7 -10    0.46    3.02
   1  -7 -10   -2.24    2.05
   1  -7 -10   -2.24    2.05
   1  -7 -10    0.47    1.99
  -1   7  10   -3.72    3.11
  -1   7  10   -2.28    1.92
  -1   7  10   -3.01    2.62
  -1   7  10    2.80    3.15
  -1   7  10    2.80    3.15
  -1   7  10   -1.28    2.68
  -1   7  10   -2.28    1.92
  -1   7  10   -3.72    3.11
  -1   7  10   -2.02    2.11
  -1   7  10   -1.28    2.68
   0  -7 -10   13.37    3.55
   0  -7 -10    7.57    2.43
   0  -7 -10   12.50    3.42
   0  -7 -10    7.57    2.43
   0  -7 -10   12.63    2.20
   0  -7 -10   13.38    3.54
   0  -7 -10    2.69    2.96
   0  -7 -10   12.63    2.20
   0  -7 -10    2.67    2.82
   0   7  10   16.86    2.19
   0   7  10   16.86    2.19
   0   7  10   13.81    2.84
   0   7  10   14.61    2.73
   0   7  10    8.12    3.31
   0   7  10    9.22    2.87
   0   7  10    8.12    3.31
   0   7  10   13.81    2.84
   0   7  10   10.08    2.19
   0   7  10    9.21    2.87
  -1  -7 -10   24.28    3.66
  -1  -7 -10   21.29    2.50
  -1  -7 -10   21.29    2.50
  -1  -7 -10   19.13    3.60
  -1  -7 -10   17.86    1.93
  -1  -7 -10   17.31    2.45
  -1  -7 -10   17.36    2.55
  -1  -7 -10   19.13    3.60
   1   7  10   21.53    2.57
   1   7  10   16.77    1.86
   1   7  10   17.32    2.07
   1   7  10   16.77    1.86
   1   7  10   16.66    2.33
   1   7  10   21.20    3.13
   1   7  10   21.53    2.57
   1   7  10   21.20    3.12
  -2  -7 -10   22.95    2.38
  -2  -7 -10   22.95    2.38
  -2  -7 -10   20.97    2.03
  -2  -7 -10   20.97    2.03
  -2  -7 -10   19.63    2.40
  -2  -7 -10   22.03    3.66
  -2  -7 -10   20.38    1.99
  -2  -7 -10   19.50    2.30
  -2  -7 -10   24.50    3.75
  -2  -7 -10   24.50    3.75
   2   7  10   27.33    3.12
   2   7  10   19.71    2.20
   2   7  10   21.28    2.03
   2   7  10   21.49    1.99
   2   7  10   19.71    2.20
   2   7  10   21.49    1.99
   2   7  10   20.13    2.24
   2   7  10   27.33    3.11
  -3  -7 -10    0.24    1.83
  -3  -7 -10    2.82    1.79
  -3  -7 -10    5.23    2.68
  -3  -7 -10    0.24    1.83
  -3  -7 -10    5.22    2.68
  -3  -7 -10    0.57    2.40
   3   7  10    4.52    1.78
   3   7  10    3.34    1.70
   3   7  10    2.13    1.72
   3   7  10    2.34    1.65
   3   7  10    0.57    3.34
   3   7  10    0.55    3.34
   3   7  10    3.34    1.70
   3   7  10    4.52    1.78
  -4  -7 -10    8.97    3.74
  -4  -7 -10   -5.93    3.18
  -4  -7 -10    8.97    3.74
  -4  -7 -10    6.39    2.24
  -4  -7 -10    5.94    1.82
  -4  -7 -10    6.68    1.81
  -4  -7 -10    6.68    1.81
   4   7  10    3.17    3.34
   4   7  10    6.38    1.74
   4   7  10    6.32    2.19
   4   7  10    8.84    1.86
   4   7  10    6.58    2.23
   4   7  10    6.58    2.23
   4   7  10    3.17    3.34
   4   7  10    8.84    1.86
   0  -8 -10    4.48    2.57
   0  -8 -10    3.27    2.83
   0  -8 -10    5.26    3.32
   0  -8 -10    1.99    3.31
   0  -8 -10    1.99    3.32
   0  -8 -10    2.45    2.00
   0  -8 -10    3.98    2.17
   0  -8 -10    4.49    2.68
   0  -8 -10    3.98    2.17
   0  -8 -10    3.27    2.83
   0   8  10    7.67    3.71
   0   8  10    7.67    3.71
   0   8  10    4.96    2.09
   0   8  10    6.88    2.71
   0   8  10    6.88    2.71
   0   8  10    2.71    2.05
   0   8  10    4.73    3.01
   0   8  10    4.73    3.01
   0   8  10    4.28    2.84
   0   8  10    2.71    2.05
  -1  -8 -10   13.63    2.61
  -1  -8 -10   12.24    2.45
  -1  -8 -10   17.12    3.90
  -1  -8 -10   15.46    3.88
  -1  -8 -10   15.77    2.03
  -1  -8 -10   15.46    3.88
  -1  -8 -10   12.24    2.45
  -1  -8 -10   13.58    2.50
  -1  -8 -10   14.39    2.52
  -1  -8 -10   14.39    2.52
   1   8  10   18.87    2.07
   1   8  10   18.87    2.07
   1   8  10   14.77    2.58
   1   8  10   10.88    1.93
   1   8  10   14.77    2.58
   1   8  10   13.94    3.35
   1   8  10   18.54    2.67
   1   8  10   13.94    3.35
  -2  -8 -10   14.25    2.22
  -2  -8 -10   16.13    3.75
  -2  -8 -10   15.34    2.32
  -2  -8 -10   14.38    2.33
  -2  -8 -10   15.34    2.32
  -2  -8 -10   10.28    3.00
  -2  -8 -10   16.13    3.75
  -2  -8 -10   10.51    1.84
   2   8  10   13.55    2.33
   2   8  10   13.31    1.85
   2   8  10    9.46    3.15
   2   8  10    9.46    3.14
   2   8  10   13.31    1.85
   2   8  10   16.29    2.28
   2   8  10   13.55    2.33
   2   8  10   14.34    1.90
  -3  -8 -10   -0.11    1.65
  -3  -8 -10   -0.65    1.74
  -3  -8 -10   -1.50    1.81
  -3  -8 -10    3.33    2.82
  -3  -8 -10    0.74    2.15
  -3  -8 -10    2.34    2.73
  -3  -8 -10    3.33    2.82
  -3  -8 -10   -1.50    1.81
  -3  -8 -10    0.74    2.15
  -3  -8 -10   -0.11    1.73
   3   8  10   -0.41    1.75
   3   8  10    9.63    3.34
   3   8  10    2.39    1.81
   3   8  10    0.77    1.71
   3   8  10   -0.41    1.75
   3   8  10    2.58    1.76
   3   8  10    2.58    1.76
   3   8  10    9.64    3.34
   1   3 -11    0.12    2.21
   1   3 -11    0.93    2.65
   1   3 -11   -0.44    2.34
   1   3 -11    0.93    2.65
   1   3 -11   -1.12    2.62
   1   3 -11   -0.44    2.34
  -1  -3  11    1.76    3.26
  -1  -3  11   -3.41    1.97
  -1  -3  11   -3.41    1.97
  -1  -3  11    1.99    2.80
  -1  -3  11    1.76    3.26
  -1  -3  11    6.10    2.59
  -1  -3  11    6.10    2.59
  -1  -3  11   -6.47    2.27
   0   3 -11   24.00    3.52
   0   3 -11   23.29    2.91
   0   3 -11   26.25    3.54
   0   3 -11   24.00    3.52
   0   3 -11   26.35    3.15
   0   3 -11   23.29    2.91
   0  -3  11   24.28    2.98
   0  -3  11   26.53    3.63
   0  -3  11   23.67    3.58
   0  -3  11   26.53    3.63
   0  -3  11   29.40    3.09
   0  -3  11   29.82    3.16
   0  -3  11   29.40    3.09
   0  -3  11   24.28    2.98
   2   2 -11    0.66    1.89
   2   2 -11    0.66    1.89
   2   2 -11    1.76    2.53
   2   2 -11    3.75    2.44
  -2  -2  11    4.23    2.48
  -2  -2  11    6.93    3.48
  -2  -2  11    4.23    2.48
  -2  -2  11    0.07    1.85
  -2  -2  11    0.07    1.85
  -2  -2  11    0.33    2.45
  -2  -2  11    6.93    3.48
  -2  -2  11    4.32    2.69
   1   2 -11    3.88    2.34
   1   2 -11    4.98    1.93
   1   2 -11    3.88    2.34
   1   2 -11    2.24    2.37
   1   2 -11    2.24    2.37
   1   2 -11    8.24    2.13
  -1  -2  11    5.27    2.26
  -1  -2  11    6.89    2.72
  -1  -2  11    2.45    2.53
  -1  -2  11    5.27    2.26
  -1  -2  11    6.01    2.63
  -1  -2  11    7.08    3.23
  -1  -2  11    6.01    2.63
  -1  -2  11    7.08    3.23
   0   2 -11   10.17    2.37
   0   2 -11   10.13    2.49
   0   2 -11    5.56    2.01
   0   2 -11   10.17    2.37
   0   2 -11    9.67    2.74
   0   2 -11    5.56    2.01
   0  -2  11    6.15    2.95
   0  -2  11    6.60    2.30
   0  -2  11    9.22    2.74
   0  -2  11    3.00    2.64
   0  -2  11    6.15    2.95
   0  -2  11    4.34    2.27
   0  -2  11    9.22    2.74
   0  -2  11    4.34    2.27
  -1   2 -11   89.58    3.72
  -1   2 -11   72.49    5.11
  -1   2 -11   95.89    4.55
  -1   2 -11   88.95    4.35
  -1   2 -11   84.24    5.11
  -1   2 -11   84.24    5.11
  -1   2 -11   88.95    4.35
  -1   2 -11   89.67    3.72
   1  -2  11   93.14    5.53
   1  -2  11   86.30    5.29
   1  -2  11   82.18    5.06
   1  -2  11   94.82    4.31
   1  -2  11   94.82    4.31
   1  -2  11   90.16    5.03
   1  -2  11   82.18    5.06
   1  -2  11   93.14    5.53
  -2   2 -11   -8.56    3.14
  -2   2 -11   -7.07    2.83
  -2   2 -11    1.08    1.79
  -2   2 -11    1.08    1.79
  -2   2 -11   -1.29    2.42
  -2   2 -11    1.52    2.24
  -2   2 -11    1.53    2.24
  -2   2 -11   -8.56    3.14
   2  -2  11   -0.34    2.57
   2  -2  11   -0.50    3.26
   2  -2  11    1.97    2.45
   2  -2  11    0.25    1.73
   2  -2  11   -0.50    3.26
   2  -2  11    0.25    1.73
   3   1 -11   27.16    3.76
   3   1 -11   27.16    3.76
   3   1 -11   24.55    3.71
   3   1 -11   26.07    3.25
   3   1 -11   26.07    3.25
   3   1 -11   32.06    3.37
   3   1 -11   24.93    3.91
  -3  -1  11   29.49    3.96
  -3  -1  11   26.85    2.16
  -3  -1  11   29.49    3.96
  -3  -1  11   26.41    3.27
  -3  -1  11   21.79    2.79
  -3  -1  11   26.85    2.16
  -3  -1  11   31.66    3.87
  -3  -1  11   26.41    3.27
  -3  -1  11   27.23    3.14
  -3  -1  11   27.23    3.14
   2   1 -11   15.14    2.55
   2   1 -11   15.14    2.55
   2   1 -11    6.08    2.06
   2   1 -11   13.66    2.71
  -2  -1  11   12.34    1.61
  -2  -1  11   13.30    2.84
  -2  -1  11   12.34    1.61
  -2  -1  11    8.75    2.56
  -2  -1  11   13.30    2.84
  -2  -1  11    8.15    2.59
  -2  -1  11    8.75    2.56
  -2  -1  11   15.17    3.17
  -2  -1  11    8.70    2.54
  -2  -1  11   15.17    3.17
   1   1 -11    9.60    1.99
   1   1 -11    9.60    1.99
   1   1 -11    9.22    2.46
   1   1 -11   12.77    2.50
   1   1 -11   12.77    2.50
   1   1 -11    9.34    2.39
  -1  -1  11   16.09    2.29
  -1  -1  11    6.05    2.37
  -1  -1  11    6.05    2.37
  -1  -1  11   15.04    2.50
  -1  -1  11   10.51    3.25
  -1  -1  11   10.51    3.25
  -1  -1  11   10.27    2.64
  -1  -1  11   15.04    2.50
   0   1 -11   11.97    2.37
   0   1 -11    7.80    2.16
   0   1 -11    7.38    2.23
   0   1 -11    8.59    2.40
   0   1 -11    7.38    2.23
   0   1 -11    8.59    2.40
   0  -1  11    5.53    2.16
   0  -1  11    6.26    2.39
   0  -1  11   11.24    2.31
   0  -1  11    6.26    2.39
   0  -1  11    5.53    2.16
   0  -1  11    8.84    3.10
   0  -1  11   12.86    2.56
   0  -1  11    8.84    3.10
  -1   1 -11   43.97    2.98
  -1   1 -11   44.60    3.53
  -1   1 -11   45.20    3.98
  -1   1 -11   44.30    3.27
  -1   1 -11   48.26    4.03
  -1   1 -11   48.26    4.03
  -1   1 -11   43.97    2.97
  -1   1 -11   44.30    3.27
   1  -1  11   39.78    3.21
   1  -1  11   42.60    3.61
   1  -1  11   42.60    3.61
   1  -1  11   39.78    3.21
   1  -1  11   47.33    3.53
   1  -1  11   35.86    3.50
  -2   1 -11    4.90    2.13
  -2   1 -11    5.19    1.97
  -2   1 -11    1.34    2.21
  -2   1 -11    7.92    3.00
  -2   1 -11    7.92    3.00
  -2   1 -11    4.90    2.13
  -2   1 -11    2.12    2.97
  -2   1 -11    5.19    1.97
   2  -1  11    7.07    2.27
   2  -1  11    4.23    2.36
   2  -1  11    7.07    2.27
   2  -1  11    2.12    2.75
   2  -1  11    4.23    2.36
   2  -1  11    4.84    1.78
   3   0 -11    3.00    3.14
   3   0 -11    2.00    2.52
   3   0 -11    2.15    2.80
   3   0 -11    2.14    2.67
   3   0 -11    3.00    3.14
   3   0 -11    2.80    2.47
   3   0 -11    2.00    2.52
  -3   0  11    1.75    3.72
  -3   0  11    4.29    2.62
  -3   0  11   -0.04    1.65
  -3   0  11    4.29    2.62
  -3   0  11    2.87    2.98
  -3   0  11    1.75    3.72
  -3   0  11   -0.04    1.65
  -3   0  11    1.86    3.06
  -3   0  11    0.44    2.36
  -3   0  11    2.87    2.98
   2   0 -11   45.64    3.11
   2   0 -11   44.90    3.63
   2   0 -11   46.78    3.32
   2   0 -11   44.90    3.63
   2   0 -11   46.78    3.32
  -2   0  11   43.21    3.17
  -2   0  11   43.21    3.17
  -2   0  11   42.13    4.67
  -2   0  11   49.68    3.66
  -2   0  11   42.13    4.67
  -2   0  11   45.30    2.68
  -2   0  11   49.72    3.18
  -2   0  11   45.31    2.68
  -2   0  11   49.68    3.66
   1   0 -11    7.19    2.18
   1   0 -11    7.44    2.25
   1   0 -11    8.43    2.27
   1   0 -11    8.43    2.27
   1   0 -11    7.19    2.18
   1   0 -11   10.63    2.09
  -1   0  11   11.46    2.72
  -1   0  11    9.97    2.38
  -1   0  11    9.97    2.38
  -1   0  11    5.75    2.20
  -1   0  11    7.40    1.82
  -1   0  11    8.00    2.27
  -1   0  11    5.75    2.20
  -1   0  11    7.39    1.82
  -1   0  11   10.50    3.06
  -1   0  11   10.50    3.06
   0   0 -11   28.27    2.73
   0   0 -11   29.27    2.71
   0   0 -11   29.27    2.71
   0   0 -11   18.42    2.58
   0   0 -11   29.79    2.86
   0   0 -11   28.27    2.73
   0   0  11   25.16    2.51
   0   0  11   23.18    3.82
   0   0  11   25.89    2.69
   0   0  11   26.44    3.69
   0   0  11   19.10    2.13
   0   0  11   18.95    3.01
   0   0  11   25.17    2.52
   0   0  11   19.10    2.13
   0   0  11   25.89    2.69
   0   0  11   26.44    3.69
  -1   0 -11   31.38    2.80
  -1   0 -11   40.60    3.10
  -1   0 -11   22.23    2.85
  -1   0 -11   31.38    2.80
  -1   0 -11   36.96    3.00
  -1   0 -11   22.23    2.85
  -1   0 -11   36.96    3.00
  -1   0 -11   23.52    2.53
   1   0  11   27.42    2.64
   1   0  11   27.42    2.64
   1   0  11   25.63    2.90
   1   0  11   25.63    2.90
   1   0  11   25.90    2.97
   1   0  11   31.29    2.76
  -2   0 -11    8.81    2.08
  -2   0 -11   12.90    2.41
  -2   0 -11    8.81    2.09
  -2   0 -11   13.61    2.35
  -2   0 -11   11.96    2.21
  -2   0 -11   11.96    2.21
  -2   0 -11   13.61    2.35
  -2   0 -11    6.53    2.44
   2   0  11   10.30    2.14
   2   0  11   11.45    2.25
   2   0  11    7.26    2.75
   2   0  11   12.90    2.86
   2   0  11   10.30    2.14
   2   0  11   12.90    2.86
  -3   0 -11   17.27    2.42
  -3   0 -11   17.27    2.42
  -3   0 -11   13.55    2.66
  -3   0 -11    7.71    2.51
  -3   0 -11   10.60    2.08
  -3   0 -11    7.71    2.51
  -3   0 -11   13.56    2.66
  -3   0 -11    9.69    3.40
   3   0  11   15.34    2.47
   3   0  11   15.35    2.66
   3   0  11   16.38    3.31
   3   0  11   15.34    2.47
   3   0  11   16.38    3.31
   3  -1 -11   -5.52    2.48
   3  -1 -11    1.29    1.98
   3  -1 -11    1.45    2.43
   3  -1 -11    1.44    2.30
   3  -1 -11   -5.52    2.48
   3  -1 -11   -0.03    3.11
   3  -1 -11   -0.03    3.11
  -3   1  11    0.14    2.67
  -3   1  11    3.22    2.92
  -3   1  11    8.73    3.34
  -3   1  11    0.14    2.67
  -3   1  11   -2.34    1.85
  -3   1  11    8.73    3.34
  -3   1  11    3.22    2.92
  -3   1  11    1.63    2.71
  -3   1  11   -2.34    1.85
  -3   1  11   -0.61    2.36
   2  -1 -11   37.30    3.17
   2  -1 -11   39.17    3.69
   2  -1 -11   31.52    3.02
   2  -1 -11   41.17    3.46
   2  -1 -11   37.30    3.17
   2  -1 -11   31.52    3.02
   2  -1 -11   39.91    3.91
  -2   1  11   42.07    4.48
  -2   1  11   36.76    2.78
  -2   1  11   46.09    3.50
  -2   1  11   46.09    3.50
  -2   1  11   41.19    3.20
  -2   1  11   36.76    2.78
  -2   1  11   41.19    3.20
  -2   1  11   43.06    3.48
  -2   1  11   42.07    4.48
  -2   1  11   31.72    3.47
   1  -1 -11   18.78    2.43
   1  -1 -11   17.34    2.22
   1  -1 -11   20.30    2.48
   1  -1 -11   18.78    2.43
  -1   1  11   13.24    2.46
  -1   1  11   20.34    2.45
  -1   1  11   18.06    2.12
  -1   1  11   18.05    2.12
  -1   1  11   16.93    3.32
  -1   1  11   16.93    3.32
  -1   1  11   20.34    2.45
  -1   1  11   13.24    2.46
  -1   1  11   22.28    2.73
  -1   1  11   18.68    2.50
   0  -1 -11   -2.04    1.69
   0  -1 -11    0.55    1.88
   0  -1 -11   -2.04    1.69
   0  -1 -11    2.48    2.07
   0  -1 -11    0.55    1.88
   0  -1 -11    0.34    2.08
   0   1  11    2.30    1.86
   0   1  11    2.30    1.86
   0   1  11    1.32    1.83
   0   1  11    0.48    2.63
   0   1  11    0.48    2.63
   0   1  11   -0.89    1.82
   0   1  11   -0.89    1.82
   0   1  11    1.01    1.72
   0   1  11    1.49    1.52
   0   1  11    1.32    1.83
  -1  -1 -11   34.27    3.08
  -1  -1 -11   38.26    3.28
  -1  -1 -11   38.26    3.28
  -1  -1 -11   27.94    2.32
  -1  -1 -11   27.94    2.32
  -1  -1 -11   38.46    3.39
   1   1  11   33.67    3.09
   1   1  11   33.73    2.98
   1   1  11   35.07    2.82
   1   1  11   33.68    3.09
   1   1  11   35.98    2.93
   1   1  11   35.98    2.93
   1   1  11   35.07    2.82
   1   1  11   36.57    3.28
  -2  -1 -11   30.50    2.99
  -2  -1 -11   26.54    3.13
  -2  -1 -11   31.32    2.91
  -2  -1 -11   34.56    2.85
  -2  -1 -11   30.50    2.99
  -2  -1 -11   33.16    2.73
  -2  -1 -11   33.15    2.72
  -2  -1 -11   34.56    2.85
   2   1  11   31.90    3.07
   2   1  11   32.60    2.37
   2   1  11   32.95    2.84
   2   1  11   32.95    2.84
   2   1  11   32.60    2.37
   2   1  11   36.79    3.00
  -3  -1 -11   17.71    2.59
  -3  -1 -11   17.72    2.59
  -3  -1 -11   13.54    2.56
  -3  -1 -11   14.66    2.35
  -3  -1 -11    7.53    2.87
  -3  -1 -11   16.87    3.18
  -3  -1 -11    7.53    2.87
  -3  -1 -11   14.66    2.35
   3   1  11   14.71    2.42
   3   1  11   14.00    2.37
   3   1  11   14.00    2.37
   3   1  11   14.71    2.42
   3   1  11   17.26    2.51
   3   1  11   18.57    3.00
   3  -2 -11   22.98    3.05
   3  -2 -11   18.69    3.64
   3  -2 -11   22.98    3.05
   3  -2 -11   22.45    3.32
   3  -2 -11   20.81    3.20
   3  -2 -11   22.21    3.72
   3  -2 -11   22.44    3.31
   3  -2 -11   20.38    3.07
   3  -2 -11   22.21    3.72
   3  -2 -11   18.64    3.49
  -3   2  11   18.46    3.76
  -3   2  11   21.52    3.65
  -3   2  11   19.17    2.58
  -3   2  11   24.39    3.88
  -3   2  11   21.71    2.58
  -3   2  11   18.46    3.76
  -3   2  11   24.39    3.88
  -3   2  11   21.71    2.58
  -3   2  11   19.18    2.59
  -3   2  11   18.76    2.95
   2  -2 -11   13.83    2.47
   2  -2 -11    8.11    2.25
   2  -2 -11   16.66    2.86
   2  -2 -11   13.83    2.47
   2  -2 -11    8.11    2.25
   2  -2 -11   14.96    2.63
   2  -2 -11   16.84    3.00
  -2   2  11    9.21    2.39
  -2   2  11   13.90    2.12
  -2   2  11   12.27    3.61
  -2   2  11   12.27    3.61
  -2   2  11   15.50    2.96
  -2   2  11    9.21    2.39
  -2   2  11   13.28    2.16
  -2   2  11   10.28    2.80
  -2   2  11   13.28    2.16
  -2   2  11   10.28    2.80
   1  -2 -11    7.03    2.08
   1  -2 -11    5.17    2.04
   1  -2 -11    6.18    2.40
   1  -2 -11    7.03    2.08
   1  -2 -11    6.18    2.40
  -1   2  11   10.71    2.44
  -1   2  11    9.46    3.00
  -1   2  11    8.67    2.31
  -1   2  11    5.03    2.12
  -1   2  11    5.03    2.12
  -1   2  11   11.49    2.23
  -1   2  11    8.33    2.11
  -1   2  11    9.46    3.00
  -1   2  11    8.67    2.31
  -1   2  11    8.33    2.11
   0  -2 -11   42.39    3.37
   0  -2 -11   44.61    3.28
   0  -2 -11   37.20    3.02
   0  -2 -11   37.20    3.02
   0   2  11   47.12    2.66
   0   2  11   44.78    3.40
   0   2  11   34.22    2.53
   0   2  11   42.06    3.87
   0   2  11   41.39    2.77
   0   2  11   34.22    2.53
   0   2  11   44.78    3.39
   0   2  11   42.06    3.87
   0   2  11   39.58    3.04
   0   2  11   47.12    2.66
  -1  -2 -11   10.87    2.00
  -1  -2 -11   10.50    2.08
  -1  -2 -11   10.87    2.00
  -1  -2 -11   12.10    2.13
   1   2  11    9.09    2.34
   1   2  11   11.04    2.11
   1   2  11   12.79    2.10
   1   2  11    9.52    2.09
   1   2  11   11.91    2.03
   1   2  11   11.91    2.03
   1   2  11   11.04    2.11
   1   2  11    9.10    2.35
  -2  -2 -11    9.14    2.07
  -2  -2 -11    7.82    1.97
  -2  -2 -11    7.82    1.97
  -2  -2 -11   10.16    2.43
  -2  -2 -11    7.72    2.05
  -2  -2 -11    9.16    2.07
   2   2  11    8.94    2.30
   2   2  11    7.41    2.48
   2   2  11    7.17    1.52
   2   2  11    8.94    2.30
   2   2  11    7.17    1.52
   2   2  11    8.91    1.92
   2   2  11    8.42    2.47
   2   2  11    7.41    2.48
  -3  -2 -11    1.62    2.14
  -3  -2 -11    2.66    2.00
  -3  -2 -11   -2.07    1.92
  -3  -2 -11    1.62    2.15
  -3  -2 -11    2.66    2.00
  -3  -2 -11    0.37    2.60
   3   2  11    6.50    1.93
   3   2  11    6.36    2.02
   3   2  11    5.31    1.87
   3   2  11    5.31    1.87
   3   2  11    5.06    2.49
   3   2  11    6.36    2.02
  -4  -2 -11   28.99    2.89
  -4  -2 -11   26.95    3.61
  -4  -2 -11   28.99    2.89
  -4  -2 -11   34.45    3.90
  -4  -2 -11   28.85    3.05
  -4  -2 -11   31.78    3.50
  -4  -2 -11   31.78    3.49
  -4  -2 -11   26.95    3.61
   4   2  11   24.77    2.37
   4   2  11   30.03    3.64
   4   2  11   24.77    2.37
   4   2  11   30.03    3.64
   4   2  11   35.27    3.81
   4   2  11   26.65    2.96
   3  -3 -11    2.79    2.49
  -3   3  11    4.03    3.10
  -3   3  11    2.32    2.55
  -3   3  11   -3.94    2.69
  -3   3  11    4.03    3.10
   2  -3 -11   -0.50    2.83
   2  -3 -11    6.38    1.86
   2  -3 -11   -0.50    2.69
   2  -3 -11    0.18    3.10
   2  -3 -11    7.04    2.31
   2  -3 -11    7.92    3.64
   2  -3 -11    6.26    2.83
   2  -3 -11    7.91    3.65
   2  -3 -11    6.26    2.83
   2  -3 -11    6.38    1.86
  -2   3  11    3.42    2.76
  -2   3  11    4.70    2.22
  -2   3  11    4.46    3.51
  -2   3  11    2.61    2.19
  -2   3  11    3.42    2.76
  -2   3  11    2.61    2.19
  -2   3  11    4.71    2.22
  -2   3  11   10.14    2.97
  -2   3  11    6.32    2.40
  -2   3  11    4.46    3.51
   1  -3 -11   35.45    3.19
   1  -3 -11   25.90    2.65
   1  -3 -11   36.12    3.38
  -1   3  11   30.07    2.75
  -1   3  11   24.19    3.76
  -1   3  11   29.16    2.35
  -1   3  11   27.24    3.11
  -1   3  11   29.16    2.35
  -1   3  11   25.20    2.60
  -1   3  11   27.67    2.96
  -1   3  11   25.19    2.60
  -1   3  11   27.67    2.96
  -1   3  11   24.19    3.76
   0  -3 -11   31.46    2.87
   0  -3 -11   31.72    3.06
   0   3  11   27.12    3.10
   0   3  11   27.15    2.50
   0   3  11   29.72    2.69
   0   3  11   27.15    2.50
   0   3  11   27.03    2.66
   0   3  11   29.38    2.83
   0   3  11   27.03    2.66
   0   3  11   28.06    2.65
   0   3  11   27.12    3.10
   0   3  11   29.72    2.69
  -1  -3 -11   48.72    3.04
  -1  -3 -11   45.95    3.36
  -1  -3 -11   50.95    3.27
  -1  -3 -11   48.72    3.04
   1   3  11   54.78    3.38
   1   3  11   43.77    3.77
   1   3  11   37.63    3.09
   1   3  11   49.22    3.07
   1   3  11   49.22    3.07
   1   3  11   42.66    2.97
   1   3  11   42.66    2.97
   1   3  11   43.77    3.76
  -2  -3 -11   17.72    2.07
  -2  -3 -11   15.52    2.35
  -2  -3 -11   15.11    2.30
  -2  -3 -11   17.72    2.07
  -2  -3 -11   15.52    2.35
  -2  -3 -11   16.31    2.36
   2   3  11   15.44    2.30
   2   3  11   15.65    2.33
   2   3  11   15.65    2.33
   2   3  11   14.47    2.88
   2   3  11   11.87    2.02
   2   3  11   11.87    2.02
   2   3  11   19.53    2.18
   2   3  11   14.47    2.88
  -3  -3 -11    7.58    2.16
  -3  -3 -11    9.78    2.34
  -3  -3 -11    6.80    2.51
  -3  -3 -11   11.05    2.02
  -3  -3 -11    7.92    2.38
  -3  -3 -11    9.79    2.35
  -3  -3 -11    7.92    2.38
  -3  -3 -11   11.05    2.02
   3   3  11    9.57    2.06
   3   3  11    9.71    2.39
   3   3  11    9.71    2.39
   3   3  11    9.74    2.58
   3   3  11    9.47    1.91
   3   3  11    9.47    1.91
  -4  -3 -11   43.03    3.19
  -4  -3 -11   35.82    3.53
  -4  -3 -11   35.83    3.54
  -4  -3 -11   43.03    3.19
  -4  -3 -11   42.51    3.48
  -4  -3 -11   34.39    3.62
  -4  -3 -11   36.74    3.76
  -4  -3 -11   34.39    3.62
   4   3  11   36.00    3.33
   4   3  11   41.71    3.25
   4   3  11   41.71    3.25
   4   3  11   39.89    3.74
   4   3  11   36.31    3.86
   4   3  11   39.89    3.74
   2  -4 -11    0.54    2.64
   2  -4 -11    2.40    2.44
   2  -4 -11   -2.39    2.85
   2  -4 -11    3.76    2.85
   2  -4 -11   -0.90    2.21
   2  -4 -11   -2.39    2.85
   2  -4 -11    3.76    2.85
   2  -4 -11    2.87    2.91
   2  -4 -11   -0.90    2.21
   2  -4 -11    0.54    2.75
  -2   4  11    4.68    3.13
  -2   4  11    4.37    3.61
  -2   4  11    3.02    2.23
  -2   4  11    0.72    1.77
  -2   4  11    1.64    2.76
  -2   4  11    1.13    2.97
  -2   4  11    0.72    1.77
  -2   4  11    1.64    2.76
  -2   4  11    1.13    2.96
  -2   4  11    4.37    3.61
   1  -4 -11   20.36    3.03
   1  -4 -11   15.98    2.51
   1  -4 -11   20.36    3.03
   1  -4 -11   17.91    3.02
   1  -4 -11   22.61    3.30
   1  -4 -11   23.27    3.37
   1  -4 -11   18.01    3.16
   1  -4 -11   23.27    3.37
  -1   4  11   11.63    2.70
  -1   4  11   20.14    2.71
  -1   4  11   13.13    2.93
  -1   4  11   20.15    2.71
  -1   4  11   14.34    2.45
  -1   4  11   11.63    2.70
  -1   4  11   13.13    2.93
  -1   4  11   20.69    2.86
  -1   4  11   17.32    2.37
  -1   4  11   17.32    2.37
   0  -4 -11   14.59    3.24
   0  -4 -11   21.05    2.50
   0  -4 -11   16.37    3.20
   0  -4 -11   21.05    2.50
   0  -4 -11   21.15    2.38
   0  -4 -11   14.60    3.24
   0   4  11   19.52    2.60
   0   4  11   20.17    2.56
   0   4  11   20.23    2.39
   0   4  11   19.92    2.87
   0   4  11   21.17    2.18
   0   4  11   16.86    2.57
   0   4  11   20.17    2.56
   0   4  11   19.92    2.87
   0   4  11   21.17    2.18
   0   4  11   16.87    2.57
  -1  -4 -11   11.65    2.25
  -1  -4 -11   14.13    2.10
  -1  -4 -11   14.13    2.10
  -1  -4 -11   12.56    2.10
   1   4  11   15.58    2.13
   1   4  11   11.09    2.12
   1   4  11   13.27    2.48
   1   4  11   15.58    2.13
   1   4  11   13.27    2.48
   1   4  11   15.67    2.23
   1   4  11   15.67    2.23
   1   4  11   16.63    2.16
  -2  -4 -11   18.19    2.37
  -2  -4 -11   21.69    2.48
  -2  -4 -11   14.07    2.06
  -2  -4 -11   14.07    2.06
   2   4  11   19.01    2.16
   2   4  11   16.10    2.29
   2   4  11   16.21    2.31
   2   4  11   18.23    2.18
   2   4  11   19.01    2.16
   2   4  11   16.10    2.29
  -3  -4 -11   23.60    2.49
  -3  -4 -11   22.56    2.42
  -3  -4 -11   22.56    2.42
  -3  -4 -11   25.14    2.27
  -3  -4 -11   22.99    2.76
  -3  -4 -11   24.76    2.90
  -3  -4 -11   25.14    2.27
  -3  -4 -11   22.99    2.76
   3   4  11   26.44    2.85
   3   4  11   26.12    2.74
   3   4  11   26.12    3.66
   3   4  11   26.12    2.74
   3   4  11   26.12    3.66
   3   4  11   31.81    2.68
   3   4  11   31.81    2.68
   3   4  11   29.78    2.55
  -4  -4 -11    8.31    2.09
  -4  -4 -11    5.33    2.13
  -4  -4 -11    3.08    2.85
  -4  -4 -11    7.36    2.81
  -4  -4 -11    7.36    2.81
  -4  -4 -11    2.84    2.44
  -4  -4 -11    2.84    2.45
  -4  -4 -11    8.31    2.09
   4   4  11    4.63    2.17
   4   4  11    4.63    2.17
   4   4  11    3.87    2.79
   4   4  11   10.05    3.77
   4   4  11    3.16    2.57
   4   4  11    3.16    2.57
   4   4  11    5.75    2.16
   4   4  11   10.05    3.78
   2  -5 -11   25.05    3.73
   2  -5 -11   21.49    3.34
   2  -5 -11   20.69    2.90
   2  -5 -11   28.14    4.07
   2  -5 -11   20.69    2.90
   2  -5 -11   24.20    3.13
   2  -5 -11   25.05    3.73
   2  -5 -11   27.99    3.89
   2  -5 -11   24.18    3.38
   2  -5 -11   21.52    3.34
  -2   5  11   26.73    3.35
  -2   5  11   25.66    3.78
  -2   5  11   28.61    3.01
  -2   5  11   28.37    4.53
  -2   5  11   26.74    3.36
  -2   5  11   25.40    3.16
  -2   5  11   28.37    4.53
  -2   5  11   25.66    3.78
  -2   5  11   21.08    3.61
  -2   5  11   28.61    3.01
   1  -5 -11   91.14    5.48
   1  -5 -11   89.78    5.24
   1  -5 -11   91.44    5.30
   1  -5 -11   89.78    5.24
   1  -5 -11   86.42    4.38
   1  -5 -11   75.10    3.85
   1  -5 -11   77.19    4.70
   1  -5 -11   77.19    4.70
   1  -5 -11   75.10    3.85
   1  -5 -11   74.02    5.00
  -1   5  11   76.70    5.69
  -1   5  11   80.72    4.74
  -1   5  11   77.48    4.64
  -1   5  11   76.70    5.69
  -1   5  11   79.95    4.05
  -1   5  11   78.86    3.98
  -1   5  11   78.86    3.98
  -1   5  11   77.48    4.64
   0  -5 -11    8.51    2.86
   0  -5 -11   10.55    2.04
   0  -5 -11   10.62    2.16
   0  -5 -11   14.28    2.67
   0  -5 -11   10.55    2.04
   0  -5 -11   14.43    2.81
   0  -5 -11   13.76    3.08
   0  -5 -11   11.29    2.40
   0  -5 -11   13.76    3.09
   0  -5 -11   11.29    2.40
   0   5  11    9.25    2.59
   0   5  11   10.28    2.03
   0   5  11    8.70    2.11
   0   5  11    9.25    2.59
   0   5  11   10.28    2.03
   0   5  11   12.35    3.33
   0   5  11   12.35    3.33
   0   5  11    5.42    2.40
  -1  -5 -11   20.71    3.58
  -1  -5 -11   16.07    3.29
  -1  -5 -11   21.56    3.63
  -1  -5 -11   20.71    3.58
  -1  -5 -11   21.55    3.63
   1   5  11   12.90    1.99
   1   5  11   12.90    1.99
   1   5  11   15.64    2.31
   1   5  11   12.16    2.08
   1   5  11   14.55    2.31
   1   5  11   14.55    2.31
  -2  -5 -11   11.02    1.97
  -2  -5 -11    7.77    3.59
  -2  -5 -11    4.81    3.06
  -2  -5 -11    7.77    3.59
  -2  -5 -11    8.21    2.08
  -2  -5 -11   11.02    1.97
  -2  -5 -11    4.26    3.10
  -2  -5 -11    4.26    3.10
   2   5  11    7.45    1.91
   2   5  11    7.45    1.91
   2   5  11    6.55    1.87
   2   5  11    9.17    1.93
   2   5  11    7.53    1.98
   2   5  11    9.17    1.93
  -3  -5 -11   42.38    3.33
  -3  -5 -11   35.07    4.29
  -3  -5 -11   40.58    2.83
  -3  -5 -11   35.06    4.29
  -3  -5 -11   42.38    3.33
  -3  -5 -11   40.58    2.83
  -3  -5 -11   36.81    4.23
   3   5  11   43.54    3.10
   3   5  11   39.24    4.03
   3   5  11   35.93    3.08
   3   5  11   37.14    3.09
   3   5  11   35.30    3.12
   3   5  11   37.14    3.09
   3   5  11   35.30    3.12
   3   5  11   39.23    4.02
  -4  -5 -11    6.63    3.50
  -4  -5 -11    6.80    1.96
  -4  -5 -11    8.35    2.79
  -4  -5 -11    6.80    1.96
  -4  -5 -11    4.11    2.73
  -4  -5 -11    8.35    2.79
  -4  -5 -11    3.86    2.86
  -4  -5 -11    0.45    2.87
  -4  -5 -11    0.45    2.87
  -4  -5 -11    3.86    2.86
   4   5  11    5.57    3.71
   4   5  11    5.57    3.71
   4   5  11    8.94    2.04
   4   5  11    5.02    2.07
   4   5  11    7.89    2.73
   4   5  11    5.02    2.07
   1  -6 -11   18.42    3.66
   1  -6 -11   14.97    3.22
   1  -6 -11   18.03    2.66
   1  -6 -11   18.44    3.66
   1  -6 -11   14.03    3.53
   1  -6 -11   13.93    3.37
   1  -6 -11   18.47    2.71
   1  -6 -11   18.03    2.66
   1  -6 -11   14.97    3.22
   1  -6 -11   19.82    3.57
  -1   6  11   18.03    3.96
  -1   6  11   17.59    3.24
  -1   6  11   18.31    2.79
  -1   6  11   18.03    3.96
  -1   6  11   20.82    3.59
  -1   6  11   15.08    3.22
  -1   6  11   17.58    3.24
  -1   6  11   15.08    3.22
  -1   6  11   13.61    2.60
  -1   6  11   13.61    2.60
   0  -6 -11   30.81    2.72
   0  -6 -11   34.68    3.33
   0  -6 -11   30.81    2.72
   0  -6 -11   33.17    4.07
   0  -6 -11   32.86    3.20
   0  -6 -11   36.96    3.13
   0  -6 -11   32.86    3.20
   0  -6 -11   34.88    3.48
   0  -6 -11   33.22    4.08
   0  -6 -11   34.84    4.07
   0   6  11   34.47    3.52
   0   6  11   40.05    4.14
   0   6  11   33.88    2.87
   0   6  11   33.88    2.87
   0   6  11   32.79    3.18
   0   6  11   40.05    4.14
   0   6  11   32.84    2.85
   0   6  11   39.16    3.48
   0   6  11   34.48    3.51
   0   6  11   32.79    3.18
  -1  -6 -11   -2.44    2.91
  -1  -6 -11    0.34    2.31
  -1  -6 -11    0.69    1.78
  -1  -6 -11    0.34    2.31
  -1  -6 -11   -2.44    2.91
  -1  -6 -11    0.69    1.78
  -1  -6 -11   -5.34    2.79
   1   6  11    0.02    1.70
   1   6  11    0.12    2.71
   1   6  11   -0.46    1.99
   1   6  11   -2.28    1.91
   1   6  11    0.81    1.67
   1   6  11    0.81    1.67
   1   6  11   -2.28    1.91
   1   6  11    0.12    2.70
  -2  -6 -11   16.55    3.76
  -2  -6 -11   16.54    3.76
  -2  -6 -11   18.62    2.25
  -2  -6 -11   17.99    3.71
  -2  -6 -11   18.62    2.25
   2   6  11   22.68    2.35
   2   6  11   20.66    2.42
   2   6  11   16.75    3.25
   2   6  11   21.70    2.44
   2   6  11   22.68    2.35
   2   6  11   16.75    3.24
   2   6  11   21.70    2.44
   2   6  11   13.68    2.18
  -3  -6 -11    6.79    2.16
  -3  -6 -11    6.79    2.16
  -3  -6 -11    5.18    1.85
  -3  -6 -11    6.76    2.77
  -3  -6 -11    1.87    2.12
  -3  -6 -11    5.18    1.85
  -3  -6 -11    6.74    2.77
  -3  -6 -11    5.50    2.72
  -3  -6 -11   10.08    2.13
   3   6  11    6.15    2.37
   3   6  11    3.76    2.53
   3   6  11    7.09    1.90
   3   6  11    7.29    2.06
   3   6  11    7.34    2.16
   3   6  11    6.15    2.37
   3   6  11    7.34    2.16
   3   6  11    3.76    2.53
  -4  -6 -11    7.11    3.00
  -4  -6 -11   10.66    3.84
  -4  -6 -11   10.67    3.84
  -4  -6 -11    7.11    3.00
  -4  -6 -11    4.25    2.79
  -4  -6 -11    4.25    2.79
  -4  -6 -11    4.29    2.39
  -4  -6 -11    7.60    2.07
  -4  -6 -11   11.42    2.23
  -4  -6 -11   11.42    2.23
  -4  -6 -11    7.26    3.64
   4   6  11    6.77    2.75
   4   6  11   10.00    2.72
   4   6  11    1.62    3.58
   4   6  11    6.77    2.75
   4   6  11    1.62    3.59
   4   6  11    5.36    2.06
   4   6  11    6.84    1.95
   4   6  11    6.84    1.95
   0  -7 -11   20.62    4.02
   0  -7 -11   15.59    2.68
   0  -7 -11   15.70    3.03
   0  -7 -11   11.21    2.40
   0  -7 -11   15.59    2.68
   0  -7 -11   10.30    3.87
   0  -7 -11   15.70    3.03
   0  -7 -11   10.32    3.87
   0   7  11   12.44    2.20
   0   7  11   12.01    2.43
   0   7  11   10.50    2.87
   0   7  11   13.67    3.39
   0   7  11   20.34    4.18
   0   7  11   12.44    2.20
   0   7  11   20.34    4.18
   0   7  11   14.42    3.01
   0   7  11   13.66    3.38
   0   7  11   10.50    2.87
  -1  -7 -11   12.87    3.90
  -1  -7 -11   12.86    3.90
  -1  -7 -11   18.19    3.97
  -1  -7 -11   15.48    2.60
  -1  -7 -11   15.48    2.60
  -1  -7 -11   12.22    2.64
  -1  -7 -11   18.82    2.18
  -1  -7 -11   15.63    2.19
  -1  -7 -11   15.63    2.19
  -1  -7 -11   12.17    2.53
   1   7  11   13.47    2.25
   1   7  11   13.47    2.25
   1   7  11   14.81    2.77
   1   7  11   12.54    3.26
   1   7  11   12.56    3.26
   1   7  11   12.95    2.50
   1   7  11   14.81    2.77
  -2  -7 -11   24.27    2.47
  -2  -7 -11   28.45    3.65
  -2  -7 -11   25.65    2.93
  -2  -7 -11   25.65    2.93
  -2  -7 -11   26.12    3.63
  -2  -7 -11   22.43    2.34
  -2  -7 -11   24.27    2.47
  -2  -7 -11   26.14    3.64
  -2  -7 -11   26.28    2.80
  -2  -7 -11   25.99    2.67
   2   7  11   23.29    2.42
   2   7  11   28.84    2.49
   2   7  11   30.30    3.69
   2   7  11   27.41    2.53
   2   7  11   27.41    2.53
   2   7  11   28.84    2.49
   2   7  11   27.94    2.81
   2   7  11   30.33    3.69
  -3  -7 -11    0.57    2.85
  -3  -7 -11   -0.19    2.91
  -3  -7 -11   -1.71    2.13
  -3  -7 -11   -0.19    2.92
  -3  -7 -11   -1.71    2.13
  -3  -7 -11    4.06    2.15
   3   7  11   -0.05    2.11
   3   7  11   -3.04    3.32
   3   7  11    2.37    2.04
   3   7  11   -0.40    1.94
   3   7  11   -0.05    2.11
   3   7  11   -3.04    3.32
   3   7  11   -0.11    1.99
   3   7  11    2.37    2.04
   1   1 -12   17.25    3.00
   1   1 -12   17.71    3.15
   1   1 -12   19.80    2.86
   1   1 -12   17.71    3.15
   1   1 -12   16.65    2.90
   1   1 -12   17.25    3.00
  -1  -1  12   20.67    4.11
  -1  -1  12   10.14    2.96
  -1  -1  12   17.76    3.13
  -1  -1  12   14.29    3.11
  -1  -1  12   20.67    4.11
  -1  -1  12   14.29    3.11
  -1  -1  12   18.94    3.09
  -1  -1  12   17.76    3.13
   0   1 -12    7.23    2.40
   0   1 -12    1.45    2.75
   0   1 -12    2.42    2.49
   0   1 -12    1.45    2.75
   0   1 -12    3.50    1.97
   0   1 -12    2.42    2.49
   0  -1  12    2.40    3.51
   0  -1  12    4.37    2.31
   0  -1  12    2.48    2.86
   0  -1  12    6.28    2.08
   0  -1  12    2.40    3.51
   0  -1  12    1.43    2.49
   0  -1  12    1.43    2.49
   0  -1  12    2.48    2.86
  -1   1 -12   29.96    2.63
  -1   1 -12   34.34    3.82
  -1   1 -12   34.34    3.82
  -1   1 -12   28.94    3.16
  -1   1 -12   28.94    3.16
  -1   1 -12   24.32    3.63
  -1   1 -12   29.96    2.63
  -1   1 -12   30.04    3.28
   1  -1  12   35.25    3.16
   1  -1  12   26.94    3.95
   1  -1  12   26.94    3.95
   1  -1  12   29.96    3.78
   1  -1  12   29.96    3.78
   1  -1  12   34.37    3.83
   1  -1  12   31.77    3.13
   1  -1  12   31.77    3.13
   2   0 -12   30.45    3.82
   2   0 -12   26.74    2.81
   2   0 -12   30.45    3.82
   2   0 -12   26.74    2.81
   2   0 -12   31.92    3.55
  -2   0  12   28.71    2.43
  -2   0  12   31.20    4.90
  -2   0  12   30.05    3.72
  -2   0  12   32.93    3.73
  -2   0  12   31.20    4.90
  -2   0  12   29.65    2.90
  -2   0  12   35.54    3.62
  -2   0  12   30.05    3.72
  -2   0  12   29.65    2.90
  -2   0  12   28.71    2.43
   1   0 -12   36.85    3.04
   1   0 -12   36.85    3.04
   1   0 -12   25.33    3.37
   1   0 -12   27.47    3.19
   1   0 -12   29.12    3.20
   1   0 -12   29.12    3.20
  -1   0  12   26.44    2.52
  -1   0  12   33.36    3.00
  -1   0  12   18.29    4.10
  -1   0  12   33.58    3.39
  -1   0  12   33.36    3.00
  -1   0  12   26.44    2.52
  -1   0  12   29.43    3.22
  -1   0  12   18.29    4.10
  -1   0  12   26.94    3.39
  -1   0  12   33.58    3.39
   0   0 -12    3.50    2.50
   0   0 -12    4.47    2.34
   0   0 -12    3.78    2.58
   0   0 -12    4.47    2.34
   0   0 -12    3.78    2.58
   0   0 -12    8.30    2.69
   0   0  12    4.63    2.61
   0   0  12    4.80    1.85
   0   0  12    4.80    1.85
   0   0  12    2.28    3.36
   0   0  12    5.49    2.10
   0   0  12    2.28    3.36
   0   0  12    4.63    2.61
   0   0  12    5.35    2.43
  -1   0 -12   -2.32    2.23
  -1   0 -12   -0.89    2.64
  -1   0 -12    0.31    2.07
  -1   0 -12    0.31    2.07
  -1   0 -12    0.37    2.11
  -1   0 -12    0.37    2.11
   1   0  12    0.89    2.09
   1   0  12    1.06    2.14
   1   0  12    2.47    1.77
   1   0  12   -1.39    2.54
   1   0  12    0.89    2.09
   1   0  12    2.47    1.77
  -2   0 -12   25.65    3.76
  -2   0 -12   31.68    3.00
  -2   0 -12   31.68    3.00
  -2   0 -12   25.62    3.00
  -2   0 -12   25.65    3.76
  -2   0 -12   28.48    2.71
  -2   0 -12   28.48    2.71
  -2   0 -12   32.31    3.87
   2   0  12   29.96    3.79
   2   0  12   29.48    3.02
   2   0  12   29.96    3.79
   2   0  12   29.48    3.02
   2   0  12   34.96    3.94
   2   0  12   25.37    3.11
   2  -1 -12   66.37    5.07
   2  -1 -12   67.14    5.33
   2  -1 -12   58.04    4.34
   2  -1 -12   58.04    4.34
   2  -1 -12   63.66    4.47
   2  -1 -12   61.62    4.09
   2  -1 -12   61.62    4.09
  -2   1  12   66.18    4.92
  -2   1  12   71.85    4.23
  -2   1  12   71.07    5.18
  -2   1  12   71.31    5.20
  -2   1  12   63.92    4.48
  -2   1  12   63.92    4.48
  -2   1  12   74.26    4.61
  -2   1  12   71.07    5.18
  -2   1  12   71.84    4.23
  -2   1  12   66.18    4.92
   1  -1 -12    6.28    2.91
   1  -1 -12    4.70    2.45
   1  -1 -12    7.74    2.61
   1  -1 -12    4.70    2.45
  -1   1  12    3.72    3.40
  -1   1  12    3.93    2.35
  -1   1  12    7.47    2.67
  -1   1  12    8.34    2.49
  -1   1  12    7.47    2.67
  -1   1  12   15.09    2.77
  -1   1  12    8.34    2.49
  -1   1  12    3.72    3.40
   0  -1 -12    5.99    2.34
   0  -1 -12    2.84    2.42
   0  -1 -12    5.99    2.34
   0  -1 -12    5.55    2.21
   0  -1 -12    2.84    2.42
   0  -1 -12    2.80    2.46
   0   1  12    1.63    2.33
   0   1  12   -1.99    3.19
   0   1  12    1.63    2.33
   0   1  12    2.04    1.79
   0   1  12    2.92    2.33
   0   1  12    2.04    1.79
   0   1  12    2.92    2.33
   0   1  12    5.25    2.27
   0   1  12   -1.99    3.19
   0   1  12    2.65    2.76
  -1  -1 -12   11.85    2.72
  -1  -1 -12   17.77    2.48
  -1  -1 -12   15.47    2.22
  -1  -1 -12   17.77    2.48
  -1  -1 -12   11.85    2.72
  -1  -1 -12   14.50    2.57
   1   1  12   12.81    2.71
   1   1  12   16.29    2.66
   1   1  12   12.82    2.71
   1   1  12   11.72    2.45
   1   1  12   11.72    2.45
   1   1  12   16.49    2.90
   1   1  12   12.75    2.76
   1   1  12   16.49    2.90
  -2  -1 -12   43.44    3.81
  -2  -1 -12   39.75    3.44
  -2  -1 -12   49.66    3.53
  -2  -1 -12   44.51    3.88
  -2  -1 -12   47.59    3.61
  -2  -1 -12   43.44    3.81
  -2  -1 -12   49.66    3.53
  -2  -1 -12   39.77    3.44
   2   1  12   48.06    4.02
   2   1  12   48.18    3.64
   2   1  12   47.10    3.90
   2   1  12   48.46    3.48
   2   1  12   48.46    3.48
   2   1  12   47.10    3.90
   2  -2 -12    2.82    2.66
   2  -2 -12   -0.32    2.99
   2  -2 -12    2.82    2.66
   2  -2 -12   -0.83    2.65
   2  -2 -12    4.44    2.49
   2  -2 -12    4.44    2.49
   2  -2 -12   -0.32    3.14
  -2   2  12    0.99    2.24
  -2   2  12    2.59    3.00
  -2   2  12   -0.67    2.53
  -2   2  12   -0.58    3.10
  -2   2  12   -0.67    2.53
  -2   2  12    2.59    3.00
  -2   2  12    0.99    2.24
  -2   2  12   11.39    4.20
  -2   2  12   11.39    4.20
  -2   2  12    3.40    2.45
   1  -2 -12   32.31    3.44
   1  -2 -12   33.38    2.88
   1  -2 -12   33.38    2.88
   1  -2 -12   31.75    3.17
   1  -2 -12   32.31    3.44
  -1   2  12   35.04    3.11
  -1   2  12   30.68    4.30
  -1   2  12   30.68    4.30
  -1   2  12   30.81    3.07
  -1   2  12   27.31    2.85
  -1   2  12   31.63    2.84
  -1   2  12   29.64    3.01
  -1   2  12   31.63    2.84
  -1   2  12   35.04    3.11
  -1   2  12   27.31    2.85
   0  -2 -12    4.81    1.73
   0  -2 -12    4.44    2.22
   0  -2 -12    4.44    2.22
   0  -2 -12    0.27    2.35
   0  -2 -12    3.52    2.20
   0  -2 -12    4.81    1.73
   0   2  12    1.79    2.16
   0   2  12    6.68    2.42
   0   2  12    4.80    2.43
   0   2  12    2.62    3.08
   0   2  12    4.33    2.24
   0   2  12    1.79    2.16
   0   2  12    6.94    2.51
   0   2  12    2.62    3.08
   0   2  12    4.33    2.24
   0   2  12    6.98    2.51
  -1  -2 -12    7.30    2.26
  -1  -2 -12    8.98    2.45
  -1  -2 -12    7.08    2.38
  -1  -2 -12    8.98    2.45
  -1  -2 -12    5.11    1.63
  -1  -2 -12    5.11    1.63
   1   2  12    4.41    2.20
   1   2  12    6.53    2.26
   1   2  12    5.46    1.81
   1   2  12    3.85    2.83
   1   2  12    5.34    2.16
   1   2  12    3.85    2.83
   1   2  12    5.34    2.16
   1   2  12    5.46    1.81
  -2  -2 -12   25.44    2.66
  -2  -2 -12   25.44    2.66
  -2  -2 -12   18.97    3.09
  -2  -2 -12   22.91    3.02
  -2  -2 -12   23.04    2.66
  -2  -2 -12   23.04    2.66
  -2  -2 -12   22.91    3.02
  -2  -2 -12   25.40    2.79
   2   2  12   20.23    2.55
   2   2  12   20.23    2.55
   2   2  12   22.84    2.65
   2   2  12   22.84    2.65
   2   2  12   22.32    3.13
   2   2  12   26.35    2.76
  -3  -2 -12   27.43    2.89
  -3  -2 -12   22.07    3.05
  -3  -2 -12   27.43    2.89
  -3  -2 -12   22.07    3.05
  -3  -2 -12   23.89    3.01
  -3  -2 -12   23.88    3.32
  -3  -2 -12   23.88    3.32
  -3  -2 -12   22.77    3.65
   3   2  12   34.61    3.09
   3   2  12   22.72    3.59
   3   2  12   30.32    3.51
   3   2  12   34.61    3.09
   3   2  12   24.83    2.95
   3   2  12   30.32    3.51
   2  -3 -12    5.50    2.73
  -2   3  12   13.68    3.55
   1  -3 -12   27.27    3.10
   1  -3 -12   21.11    2.84
   1  -3 -12   23.02    3.50
   1  -3 -12   38.29    3.58
   1  -3 -12   22.59    3.30
   1  -3 -12   21.11    2.84
   1  -3 -12   38.29    3.58
  -1   3  12   23.46    2.99
  -1   3  12   30.48    3.08
  -1   3  12   27.07    3.51
  -1   3  12   29.12    3.02
  -1   3  12   23.31    3.22
  -1   3  12   30.47    3.08
  -1   3  12   22.28    4.20
  -1   3  12   22.28    4.20
  -1   3  12   29.12    3.02
  -1   3  12   23.31    3.22
   0  -3 -12   17.40    2.91
   0  -3 -12   14.06    2.56
   0   3  12   13.95    3.07
   0   3  12   11.68    2.71
   0   3  12   11.68    2.71
   0   3  12   14.95    2.16
   0   3  12   14.95    2.16
   0   3  12   14.49    2.64
   0   3  12   13.95    3.07
   0   3  12   16.21    2.47
   0   3  12   16.63    2.54
   0   3  12   16.21    2.47
  -1  -3 -12    6.18    1.78
  -1  -3 -12    4.00    2.31
  -1  -3 -12   -0.23    2.23
  -1  -3 -12    6.18    1.78
   1   3  12    3.63    2.71
   1   3  12    4.19    2.17
   1   3  12    2.67    2.27
   1   3  12    3.62    2.70
   1   3  12    1.82    2.08
   1   3  12    5.67    2.28
   1   3  12    4.19    2.17
   1   3  12    1.82    2.08
  -2  -3 -12   20.33    2.82
  -2  -3 -12   18.68    2.77
  -2  -3 -12   15.32    2.44
  -2  -3 -12   12.08    2.74
  -2  -3 -12   18.68    2.77
  -2  -3 -12   15.32    2.44
   2   3  12   15.85    2.46
   2   3  12   20.19    2.87
   2   3  12   20.19    2.87
   2   3  12   18.77    2.56
   2   3  12   16.59    2.81
   2   3  12   15.85    2.46
  -3  -3 -12    3.45    2.41
  -3  -3 -12    1.03    2.30
  -3  -3 -12    4.91    3.30
  -3  -3 -12    3.45    2.41
  -3  -3 -12    4.91    3.30
  -3  -3 -12    3.18    2.71
  -3  -3 -12    3.18    2.71
  -3  -3 -12    6.30    2.91
   3   3  12    2.78    2.18
   3   3  12    1.86    2.83
   3   3  12    2.78    2.18
   3   3  12   -1.50    3.51
   3   3  12    7.84    2.66
   3   3  12   -1.81    2.07
   3   3  12    7.84    2.66
   3   3  12   -1.50    3.52
   1  -4 -12   27.21    3.05
   1  -4 -12   27.22    3.48
   1  -4 -12   30.32    4.02
   1  -4 -12   27.22    3.48
   1  -4 -12   35.46    4.06
   1  -4 -12   23.20    2.86
   1  -4 -12   30.34    4.03
   1  -4 -12   35.23    3.88
   1  -4 -12   28.35    3.93
   1  -4 -12   23.20    2.86
  -1   4  12   23.54    2.97
  -1   4  12   27.36    4.50
  -1   4  12   21.81    3.32
  -1   4  12   19.26    2.74
  -1   4  12   21.81    3.32
  -1   4  12   19.26    2.74
  -1   4  12   27.78    3.71
  -1   4  12   27.36    4.50
   0  -4 -12   11.58    2.28
   0  -4 -12    8.50    2.10
   0  -4 -12   10.55    2.41
   0  -4 -12   16.06    2.95
   0  -4 -12   11.58    2.28
   0  -4 -12   11.15    2.86
   0  -4 -12   11.16    2.87
   0  -4 -12    8.50    2.10
   0   4  12    7.06    2.70
   0   4  12   10.81    2.40
   0   4  12   15.69    3.15
   0   4  12   15.69    3.15
   0   4  12   13.44    2.70
   0   4  12   13.44    2.70
   0   4  12   13.73    2.52
   0   4  12   10.81    2.40
  -1  -4 -12   11.90    2.42
  -1  -4 -12   11.31    2.39
  -1  -4 -12   11.31    2.39
  -1  -4 -12   14.01    2.75
  -1  -4 -12   11.90    2.42
  -1  -4 -12   13.41    2.39
   1   4  12   13.08    2.43
   1   4  12   11.31    2.55
   1   4  12    8.10    2.31
   1   4  12    8.10    2.31
  -2  -4 -12   11.21    2.16
  -2  -4 -12   13.42    2.65
  -2  -4 -12   14.24    2.53
  -2  -4 -12   10.66    2.71
  -2  -4 -12   10.66    2.71
  -2  -4 -12   11.21    2.16
   2   4  12   14.98    2.35
   2   4  12   11.76    2.64
   2   4  12    8.88    3.11
   2   4  12    6.40    2.34
   2   4  12    8.88    3.11
   2   4  12    6.40    2.34
   2   4  12   14.98    2.35
   2   4  12   12.92    2.43
  -3  -4 -12   18.68    2.41
  -3  -4 -12   22.06    3.13
  -3  -4 -12   26.40    3.17
  -3  -4 -12   18.68    2.41
  -3  -4 -12   17.81    2.95
  -3  -4 -12   17.81    2.95
  -3  -4 -12   20.41    2.82
  -3  -4 -12   26.40    3.17
   3   4  12   22.87    3.10
   3   4  12   22.12    2.59
   3   4  12   20.97    3.95
   3   4  12   22.87    3.10
   3   4  12   22.12    2.59
   3   4  12   20.98    3.96
   3   4  12   24.51    3.27
   3   4  12   22.62    2.58
  -1   5  12   19.20    2.97
  -1   5  12   12.92    4.13
  -1   5  12   12.92    4.13
   0  -5 -12    8.92    2.81
   0  -5 -12    6.01    3.51
   0  -5 -12    2.05    2.23
   0  -5 -12    8.53    3.58
   0  -5 -12    6.55    3.04
   0  -5 -12    8.51    3.59
   0  -5 -12    6.48    2.89
   0  -5 -12    7.67    2.33
   0  -5 -12    2.05    2.23
   0  -5 -12    8.92    2.81
   0   5  12    3.81    3.90
   0   5  12    4.85    3.67
   0   5  12    4.85    3.67
   0   5  12    3.86    2.72
   0   5  12    2.15    2.66
   0   5  12    7.58    3.03
   0   5  12    2.15    2.66
   0   5  12    7.58    3.03
   0   5  12    3.81    3.90
   0   5  12    1.10    2.31
  -1  -5 -12   26.35    2.87
  -1  -5 -12   25.26    3.89
  -1  -5 -12   21.00    2.59
  -1  -5 -12   21.00    2.59
  -1  -5 -12   25.24    3.88
  -1  -5 -12   26.57    3.84
   1   5  12   25.52    2.90
   1   5  12   25.52    2.90
   1   5  12   21.07    2.81
   1   5  12   23.01    2.59
   1   5  12   32.79    3.58
   1   5  12   23.82    2.73
   1   5  12   23.01    2.59
   1   5  12   32.81    3.58
  -2  -5 -12   39.59    3.03
  -2  -5 -12   29.17    3.84
  -2  -5 -12   30.46    3.17
  -2  -5 -12   29.14    3.83
  -2  -5 -12   30.46    3.17
  -2  -5 -12   32.15    3.05
  -2  -5 -12   34.09    3.18
  -2  -5 -12   31.62    3.77
  -2  -5 -12   39.59    3.03
   2   5  12   34.33    3.09
   2   5  12   37.20    3.23
   2   5  12   37.20    3.23
   2   5  12   33.97    2.94
   2   5  12   32.57    2.95
   2   5  12   33.97    2.94
   2   5  12   38.57    3.94
   2   5  12   38.58    3.94
  -3  -5 -12   13.61    2.74
  -3  -5 -12   17.45    2.87
  -3  -5 -12   14.37    2.41
  -3  -5 -12   26.51    4.59
  -3  -5 -12   17.45    2.87
  -3  -5 -12   26.49    4.58
  -3  -5 -12   21.22    2.83
  -3  -5 -12   22.23    4.35
  -3  -5 -12   14.37    2.41
   3   5  12   17.25    3.95
   3   5  12   18.09    3.08
   3   5  12   18.47    2.61
   3   5  12   13.82    2.89
   3   5  12   18.09    3.08
   3   5  12   17.25    3.95
   3   5  12   14.33    2.66
   3   5  12   14.33    2.66
   0   6  12   13.61    2.73
  -1  -6 -12    2.49    2.17
  -1  -6 -12   -3.29    3.65
  -1  -6 -12   -2.05    2.77
  -1  -6 -12    1.04    2.66
  -1  -6 -12    2.49    2.17
  -1  -6 -12    1.04    2.66
  -1  -6 -12   -3.28    3.64
  -1  -6 -12   -0.23    2.06
  -1  -6 -12   -2.09    2.93
  -1  -6 -12   -0.34    3.71
   1   6  12   -1.41    2.14
   1   6  12   -6.21    3.00
   1   6  12   -2.33    2.47
   1   6  12   -0.39    2.01
   1   6  12   -6.22    2.99
   1   6  12   -1.59    2.65
   1   6  12   -0.39    2.01
   1   6  12   -1.59    2.65
  -2  -6 -12   18.56    2.60
  -2  -6 -12   14.84    2.55
  -2  -6 -12   19.81    3.64
  -2  -6 -12   14.84    2.55
  -2  -6 -12   20.24    4.19
  -2  -6 -12   20.22    4.19
   2   6  12   19.25    2.48
   2   6  12   19.28    2.56
   2   6  12   13.16    2.53
   2   6  12   23.91    3.79
   2   6  12   19.57    2.84
   2   6  12   19.25    2.48
   2   6  12   23.92    3.78
   2   6  12   19.57    2.84
  -1  -3 -13   -3.42    2.34
  -1  -3 -13   -0.46    2.65
   1   3  13    1.16    2.68
   1   3  13    4.18    2.70
   0   0   0    0.00    0.00
;
_shelx_hkl_checksum              51838
loop_
_space_group_symop_operation_xyz
'x, y, z'
'-x, -y, -z'
loop_
_atom_site_label
_atom_site_type_symbol
_atom_site_fract_x
_atom_site_fract_y
_atom_site_fract_z
_atom_site_U_iso_or_equiv
_atom_site_adp_type
_atom_site_occupancy
_atom_site_site_symmetry_order
_atom_site_calc_flag
_atom_site_refinement_flags_posn
_atom_site_refinement_flags_adp
_atom_site_refinement_flags_occupancy
_atom_site_disorder_assembly
_atom_site_disorder_group
Cu1 Cu 0.500000 0.500000 0.500000 0.00935(7) Uani 1 2 d S . P . .
C1 C -0.0361(3) 0.67948(18) 0.56440(15) 0.0101(2) Uani 1 1 d . . . . .
N1 N 0.2812(2) 0.72938(16) 0.35976(12) 0.00951(19) Uani 1 1 d . . . . .
O1 O 0.16956(19) 0.54180(14) 0.62683(11) 0.01146(18) Uani 1 1 d . . . . .
O2 O -0.27508(19) 0.71578(14) 0.61623(11) 0.01385(19) Uani 1 1 d . . . . .
C2 C 0.0269(2) 0.80060(18) 0.41447(14) 0.0094(2) Uani 1 1 d . . . . .
C3 C -0.1564(3) 0.96977(19) 0.33994(15) 0.0123(2) Uani 1 1 d . . . . .
H3 H -0.335488 1.016245 0.379838 0.015 Uiso 1 1 calc R U . . .
C4 C -0.0702(3) 1.0701(2) 0.20434(16) 0.0150(2) Uani 1 1 d . . . . .
H4 H -0.188566 1.188613 0.151781 0.018 Uiso 1 1 calc R U . . .
C6 C 0.3621(3) 0.82209(19) 0.22652(15) 0.0127(2) Uani 1 1 d . . . . .
H6 H 0.538516 0.768726 0.186356 0.015 Uiso 1 1 calc R U . . .
C5 C 0.1912(3) 0.9947(2) 0.14694(16) 0.0151(3) Uani 1 1 d . . . . .
H5 H 0.251939 1.060612 0.054348 0.018 Uiso 1 1 calc R U . . .
O1W O -0.2692(4) 0.5593(4) 0.9415(2) 0.0285(8) Uani 0.927(16) 1 d . . P A 1
H1WA H -0.270(5) 0.592(4) 0.849(3) 0.037(7) Uiso 0.927(16) 1 d . . P A 1
H1WB H -0.387(11) 0.534(8) 0.978(7) 0.033(15) Uiso 0.464(8) 1 d . . P A 1
H1WC H -0.139(14) 0.529(10) 0.965(7) 0.040(17) Uiso 0.464(8) 1 d . . P A 1
O1WA O -0.227(19) 0.478(11) 0.922(5) 0.13(3) Uani 0.073(16) 1 d . U P A 2
H1WD H -0.270(5) 0.592(4) 0.849(3) 0.037(7) Uiso 0.073(16) 1 d . . P A 2
H1WE H -0.387(11) 0.534(8) 0.978(7) 0.033(15) Uiso 0.036(8) 1 d . . P A 2
H1WF H -0.139(14) 0.529(10) 0.965(7) 0.040(17) Uiso 0.036(8) 1 d . . P A 2
loop_
_atom_site_aniso_label
_atom_site_aniso_U_11
_atom_site_aniso_U_22
_atom_site_aniso_U_33
_atom_site_aniso_U_23
_atom_site_aniso_U_13
_atom_site_aniso_U_12
Cu1 0.00387(10) 0.00957(11) 0.01103(11) 0.00004(8) 0.00092(7) 0.00100(7)
C1 0.0087(5) 0.0095(5) 0.0125(5) -0.0042(4) 0.0002(4) -0.0023(4)
N1 0.0072(4) 0.0098(5) 0.0108(5) -0.0021(4) -0.0002(4) -0.0015(4)
O1 0.0073(4) 0.0125(4) 0.0117(4) -0.0010(3) 0.0013(3) -0.0005(3)
O2 0.0077(4) 0.0154(5) 0.0161(5) -0.0041(4) 0.0024(3) -0.0003(3)
C2 0.0073(5) 0.0097(5) 0.0115(5) -0.0033(4) -0.0012(4) -0.0022(4)
C3 0.0093(5) 0.0114(5) 0.0152(6) -0.0040(4) -0.0027(4) -0.0001(4)
C4 0.0158(6) 0.0112(6) 0.0157(6) -0.0007(5) -0.0048(5) -0.0015(5)
C6 0.0103(5) 0.0147(6) 0.0127(6) -0.0019(5) 0.0007(4) -0.0044(5)
C5 0.0165(6) 0.0156(6) 0.0115(6) 0.0012(5) -0.0014(5) -0.0051(5)
O1W 0.0259(11) 0.0407(13) 0.0153(8) 0.0043(7) 0.0005(6) -0.0132(7)
O1WA 0.31(8) 0.09(4) 0.023(16) 0.002(19) 0.00(3) -0.13(4)
loop_
_atom_type_symbol
_atom_type_description
_atom_type_scat_dispersion_real
_atom_type_scat_dispersion_imag
_atom_type_scat_source
C C 0.0015 0.0009 'International Tables Vol C Tables 4.2.6.8 and 6.1.1.4'
H H 0.0000 0.0000 'International Tables Vol C Tables 4.2.6.8 and 6.1.1.4'
N N 0.0030 0.0019 'International Tables Vol C Tables 4.2.6.8 and 6.1.1.4'
O O 0.0056 0.0036 'International Tables Vol C Tables 4.2.6.8 and 6.1.1.4'
Cu Cu 0.3240 0.8257 'International Tables Vol C Tables 4.2.6.8 and 6.1.1.4'
loop_
_geom_angle_atom_site_label_1
_geom_angle_atom_site_label_2
_geom_angle_atom_site_label_3
_geom_angle
_geom_angle_site_symmetry_1
_geom_angle_site_symmetry_3
O1 Cu1 O1 180.0 2_666 .
O1 Cu1 N1 83.82(5) 2_666 2_666
O1 Cu1 N1 96.18(5) . 2_666
O1 Cu1 N1 96.18(5) 2_666 .
O1 Cu1 N1 83.82(5) . .
N1 Cu1 N1 180.0 2_666 .
O2 C1 O1 125.10(12) . .
O2 C1 C2 119.75(12) . .
O1 C1 C2 115.14(11) . .
C6 N1 C2 119.78(12) . .
C6 N1 Cu1 127.78(9) . .
C2 N1 Cu1 112.33(9) . .
C1 O1 Cu1 114.32(9) . .
N1 C2 C3 122.42(12) . .
N1 C2 C1 113.79(11) . .
C3 C2 C1 123.79(12) . .
C2 C3 C4 118.07(12) . .
C2 C3 H3 121.0 . .
C4 C3 H3 121.0 . .
C5 C4 C3 119.36(13) . .
C5 C4 H4 120.3 . .
C3 C4 H4 120.3 . .
N1 C6 C5 120.97(12) . .
N1 C6 H6 119.5 . .
C5 C6 H6 119.5 . .
C6 C5 C4 119.35(13) . .
C6 C5 H5 120.3 . .
C4 C5 H5 120.3 . .
H1WA O1W H1WB 117(5) . .
H1WA O1W H1WC 109(6) . .
H1WB O1W H1WC 129(7) . .
H1WD O1WA H1WE 88(10) . .
H1WD O1WA H1WF 86(6) . .
H1WE O1WA H1WF 88(7) . .
loop_
_geom_bond_atom_site_label_1
_geom_bond_atom_site_label_2
_geom_bond_distance
_geom_bond_site_symmetry_2
Cu1 O1 1.9522(12) 2_666
Cu1 O1 1.9522(12) .
Cu1 N1 1.9624(13) 2_666
Cu1 N1 1.9625(13) .
C1 O2 1.2457(16) .
C1 O1 1.2839(16) .
C1 C2 1.5182(19) .
N1 C6 1.3471(17) .
N1 C2 1.3489(17) .
C2 C3 1.3848(18) .
C3 C4 1.398(2) .
C3 H3 0.9500 .
C4 C5 1.394(2) .
C4 H4 0.9500 .
C6 C5 1.3901(19) .
C6 H6 0.9500 .
C5 H5 0.9500 .
O1W H1WA 0.82(3) .
O1W H1WB 0.72(5) .
O1W H1WC 0.67(6) .
O1WA H1WD 0.93(6) .
O1WA H1WE 0.96(11) .
O1WA H1WF 0.85(7) .
loop_
_geom_hbond_atom_site_label_D
_geom_hbond_atom_site_label_H
_geom_hbond_atom_site_label_A
_geom_hbond_distance_DH
_geom_hbond_distance_HA
_geom_hbond_distance_DA
_geom_hbond_angle_DHA
_geom_hbond_site_symmetry_A
_geom_hbond_publ_flag
C3 H3 O2 0.95 2.37 3.204(2) 146.7 2_476 yes
C6 H6 O1 0.95 2.64 3.125(2) 112.5 2_666 yes
O1W^a H1WA^a O2 0.82(3) 2.10(3) 2.909(2) 171(3) . yes
O1W^a H1WB^a O1W^a 0.72(5) 2.10(6) 2.815(4) 172(7) 2_467 yes
O1W^a H1WC^a O1W^a 0.67(6) 2.16(6) 2.833(4) 175(8) 2_567 yes
O1WA^b H1WD^b O2 0.93(6) 2.10(3) 2.91(4) 145(6) . yes
O1WA^b H1WE^b O1WA^b 0.96(11) 2.12(9) 2.98(18) 148(6) 2_467 yes
O1WA^b H1WF^b O1WA^b 0.85(7) 2.19(9) 2.96(13) 152(8) 2_567 yes
loop_
_geom_torsion_atom_site_label_1
_geom_torsion_atom_site_label_2
_geom_torsion_atom_site_label_3
_geom_torsion_atom_site_label_4
_geom_torsion
O2 C1 O1 Cu1 170.46(10)
C2 C1 O1 Cu1 -8.26(14)
C6 N1 C2 C3 -1.29(19)
Cu1 N1 C2 C3 175.19(10)
C6 N1 C2 C1 179.26(11)
Cu1 N1 C2 C1 -4.26(13)
O2 C1 C2 N1 -170.34(11)
O1 C1 C2 N1 8.45(16)
O2 C1 C2 C3 10.2(2)
O1 C1 C2 C3 -170.99(12)
N1 C2 C3 C4 -1.0(2)
C1 C2 C3 C4 178.44(12)
C2 C3 C4 C5 1.9(2)
C2 N1 C6 C5 2.6(2)
Cu1 N1 C6 C5 -173.29(10)
N1 C6 C5 C4 -1.6(2)
C3 C4 C5 C6 -0.7(2)
