#------------------------------------------------------------------------------
#$Date: 2019-11-17 14:30:37 +0200 (Sun, 17 Nov 2019) $
#$Revision: 230511 $
#$URL: file:///home/coder/svn-repositories/cod/cif/7/05/77/7057778.cif $
#------------------------------------------------------------------------------
#
# This file is available in the Crystallography Open Database (COD),
# http://www.crystallography.net/
#
# All data on this site have been placed in the public domain by the
# contributors.
#
data_7057778
loop_
_publ_author_name
'Cargnelutti, Roberta'
'Delgado, C\'assia P.'
'Cervo, Rodrigo'
'Tirloni, B\'arbara'
'Burrow, Robert A.'
'Lang, Ernesto S.'
_publ_section_title
;
 Synthesis and structural chemistry of CoII, CuII, CuI and PdII complexes
 containing a flexible monoselenoether ligand
;
_journal_issue                   21
_journal_name_full               'New Journal of Chemistry'
_journal_page_first              17185
_journal_paper_doi               10.1039/C8NJ03621G
_journal_volume                  42
_journal_year                    2018
_chemical_absolute_configuration ad
_chemical_formula_moiety         'C11 H10 Cu2 I2 N2 Se'
_chemical_formula_sum            'C11 H10 Cu2 I2 N2 Se'
_chemical_formula_weight         630.05
_chemical_melting_point          453.1(10)
_space_group_crystal_system      monoclinic
_space_group_IT_number           4
_space_group_name_Hall           'P 2yb'
_space_group_name_H-M_alt        'P 1 21 1'
_symmetry_space_group_name_Hall  'P 2yb'
_symmetry_space_group_name_H-M   'P 1 21 1'
_atom_sites_solution_hydrogens   geom
_atom_sites_solution_primary     dual
_atom_sites_solution_secondary   difmap
_audit_update_record
;
2018-05-23 deposited with the CCDC.
2018-09-27 downloaded from the CCDC.
;
_cell_angle_alpha                90
_cell_angle_beta                 105.0880(10)
_cell_angle_gamma                90
_cell_formula_units_Z            2
_cell_length_a                   9.5828(3)
_cell_length_b                   8.4187(3)
_cell_length_c                   9.7002(3)
_cell_measurement_reflns_used    9910
_cell_measurement_temperature    295.(2)
_cell_measurement_theta_max      30.4231
_cell_measurement_theta_min      2.2011
_cell_volume                     755.58(4)
_computing_cell_refinement       'SAINT V8.38A (Bruker AXS Inc., 2017)'
_computing_data_collection       'APEX3 v2017.3-0 (Bruker AXS Inc., 2017'
_computing_data_reduction        'SAINT V8.38A (Bruker AXS Inc., 2016)'
_computing_molecular_graphics
'Diamond (version 3.2k; Crystal Impact GbR, Bonn, Germany)'
_computing_publication_material  vim
_computing_structure_refinement  'SHELXL-2016/6 (Sheldrick, 2016)'
_computing_structure_solution    'XT, VERSION 2014/5'
_diffrn_ambient_temperature      295.(2)
_diffrn_detector_area_resol_mean 10.4167
_diffrn_measured_fraction_theta_full 0.998
_diffrn_measured_fraction_theta_max 0.998
_diffrn_measurement_device_type  'Bruker D8 Venture Photon 100 diffractometer'
_diffrn_measurement_method       '0.5 \% \w & \f scans'
_diffrn_radiation_monochromator
'Incoatec Montel two dimensional X ray optics'
_diffrn_radiation_type           'Mo K\a'
_diffrn_radiation_wavelength     0.71073
_diffrn_reflns_av_R_equivalents  0.0249
_diffrn_reflns_av_unetI/netI     0.0178
_diffrn_reflns_limit_h_max       12
_diffrn_reflns_limit_h_min       -13
_diffrn_reflns_limit_k_max       12
_diffrn_reflns_limit_k_min       -12
_diffrn_reflns_limit_l_max       13
_diffrn_reflns_limit_l_min       -11
_diffrn_reflns_number            32101
_diffrn_reflns_theta_full        30.57
_diffrn_reflns_theta_max         30.57
_diffrn_reflns_theta_min         2.20
_diffrn_source                   'microfocus X ray tube'
_diffrn_source_type              'Incoatex I\mS High Brilliance'
_exptl_absorpt_coefficient_mu    9.291
_exptl_absorpt_correction_T_max  0.61
_exptl_absorpt_correction_T_min  0.53
_exptl_absorpt_correction_type   multi-scan
_exptl_absorpt_process_details
;
SADABS (version 2016/2; Bruker, 2016) was used to perform the multi--scan
absorption correction.
;
_exptl_crystal_colour            yellow
_exptl_crystal_density_diffrn    2.769
_exptl_crystal_density_method    'not measured'
_exptl_crystal_description       needle
_exptl_crystal_F_000             576
_exptl_crystal_size_max          0.091
_exptl_crystal_size_mid          0.063
_exptl_crystal_size_min          0.058
_refine_diff_density_max         0.738
_refine_diff_density_min         -0.818
_refine_ls_abs_structure_details
;

Refined as an inversion twin.
;
_refine_ls_abs_structure_Flack   0.494(11)
_refine_ls_extinction_method     none
_refine_ls_goodness_of_fit_ref   1.045
_refine_ls_hydrogen_treatment    constr
_refine_ls_matrix_type           full
_refine_ls_number_parameters     164
_refine_ls_number_reflns         4626
_refine_ls_number_restraints     1
_refine_ls_restrained_S_all      1.045
_refine_ls_R_factor_all          0.0239
_refine_ls_R_factor_gt           0.0189
_refine_ls_shift/su_max          0.001
_refine_ls_shift/su_mean         0.000
_refine_ls_structure_factor_coef Fsqd
_refine_ls_weighting_details
'w=1/[\s^2^(Fo^2^)+(0.0149P)^2^+0.3986P] where P=(Fo^2^+2Fc^2^)/3'
_refine_ls_weighting_scheme      calc
_refine_ls_wR_factor_gt          0.0340
_refine_ls_wR_factor_ref         0.0352
_reflns_number_gt                4274
_reflns_number_total             4626
_reflns_threshold_expression     'I > 2\s(I)'
_cod_data_source_file            c8nj03621g2.cif
_cod_data_source_block           compound_4
_cod_depositor_comments
;
The following automatic conversions were performed:

'_chemical_melting_point' value '452.15-454.15 K' was changed to
'453.1(10)' - the average value was taken and precision was
estimated.

'_exptl_absorpt_correction_type' value 'Multi-Scan' changed to
'multi-scan' according to
/home/data/users/saulius/crontab/automatic-downloads/rss-feeds/RSC/lib/dictionaries/cif_core.dic
dictionary named 'cif_core.dic' version 2.4.2 from 2011-04-26.

Automatic conversion script
Id: cif_fix_values 4973 2017-02-22 13:04:09Z antanas 

 Adding full bibliography for 7057773--7057780.cif.
;
_cod_database_code               7057778
_shelx_res_file
;

TITL mo_ESLCD88_0m_a.res in P2(1)
    mo_ESLCD88_0m_a.res
    created by SHELXL-2016/6 at 17:20:21 on 16-Mar-2018
REM Old TITL mo_ESLCD88_0m in P2(1)
REM SHELXT solution in P2(1)
REM R1 0.066,  Rweak 0.033,  Alpha 0.002,  Orientation as input
REM Flack x =  0.499 ( 0.003 ) from Parsons' quotients
REM Formula found by SHELXT:  C10 Cu I2 N3 Se2
CELL  0.71073   9.5828   8.4187   9.7002   90.000  105.088   90.000
ZERR    2.000   0.0003   0.0003   0.0003    0.000    0.001    0.000
LATT -1
SYMM -X, 1/2+Y, -Z
SFAC C H CU I N SE
UNIT 22 20 4 4 4 2
TEMP 22.270
L.S. 24
ACTA
CONF
HTAB
TWIN
BOND $H
LIST 4
FMAP 2
TEMP 22
PLAN 20
REM Instructions for potential hydrogen bonds
EQIV $3 -x+1, y+1/2, -z+2
HTAB C9 I2_$3
EQIV $1 -x+1, y+1/2, -z+1
HTAB C10 I1_$1
EQIV $4 -x, y+1/2, -z+1
HTAB C11 I1_$4

SIZE 0.058 0.063 0.091
WGHT    0.014900    0.398600
BASF   0.49416
FVAR       0.41999
I1    4    0.189204    0.405591    0.240970    11.00000    0.02862    0.04797 =
         0.03121    0.00341    0.00458    0.00472
I2    4    0.583277    0.492233    0.584664    11.00000    0.02935    0.03266 =
         0.03419   -0.00615    0.00743    0.00099
SE1   6    0.191937    0.715417    0.570552    11.00000    0.02943    0.02903 =
         0.02956    0.00270    0.00585   -0.00060
CU1   3    0.305461    0.456967    0.509280    11.00000    0.03547    0.05448 =
         0.03722   -0.00338    0.01651    0.00144
CU2   3    0.541019    0.808805    0.638735    11.00000    0.03542    0.05650 =
         0.03276    0.00165    0.01384   -0.00572
N1    5    0.202293    0.351662    0.645040    11.00000    0.03151    0.03431 =
         0.02939   -0.00501    0.00765   -0.00288
N2    5    0.425830    0.802514    0.789571    11.00000    0.03061    0.03683 =
         0.02456    0.00092    0.00869    0.00168
C1    1    0.090033    0.428237    0.675232    11.00000    0.02327    0.03068 =
         0.03310   -0.00524    0.00649   -0.00617
C2    1    0.026325    0.373951    0.779434    11.00000    0.03575    0.04703 =
         0.04520   -0.00639    0.01899   -0.01371
AFIX  43
H2    2   -0.050780    0.428370    0.799005    11.00000   -1.20000
AFIX   0
C3    1    0.079840    0.237176    0.853670    11.00000    0.06212    0.04741 =
         0.04084    0.00250    0.01893   -0.02199
AFIX  43
H3    2    0.040094    0.199548    0.925231    11.00000   -1.20000
AFIX   0
C4    1    0.191158    0.158036    0.821182    11.00000    0.06779    0.03245 =
         0.04190    0.00445    0.00681   -0.00636
AFIX  43
H4    2    0.227700    0.065369    0.869423    11.00000   -1.20000
AFIX   0
C5    1    0.248820    0.217873    0.715293    11.00000    0.04360    0.02933 =
         0.04243   -0.00206    0.00633    0.00469
AFIX  43
H5    2    0.323417    0.162256    0.692061    11.00000   -1.20000
AFIX   0
C6    1    0.289718    0.751832    0.767515    11.00000    0.02740    0.02325 =
         0.02803    0.00280    0.01045    0.00327
C7    1    0.224066    0.731522    0.877581    11.00000    0.03930    0.03517 =
         0.03848   -0.00155    0.01921   -0.00462
AFIX  43
H7    2    0.130089    0.692834    0.858818    11.00000   -1.20000
AFIX   0
C8    1    0.298504    0.768811    1.014271    11.00000    0.05154    0.04688 =
         0.03591    0.00754    0.02314    0.00619
AFIX  43
H8    2    0.256914    0.754380    1.089955    11.00000   -1.20000
AFIX   0
C9    1    0.436105    0.828052    1.036884    11.00000    0.04644    0.06810 =
         0.02447   -0.00331    0.00789    0.00753
AFIX  43
H9    2    0.487977    0.857995    1.128124    11.00000   -1.20000
AFIX   0
C10   1    0.496767    0.842812    0.923426    11.00000    0.02943    0.06835 =
         0.02975   -0.00559    0.00574    0.00163
AFIX  43
H10   2    0.590371    0.882165    0.940153    11.00000   -1.20000
AFIX   0
C11   1    0.035670    0.575364    0.591912    11.00000    0.02135    0.03140 =
         0.04743    0.00063    0.00676   -0.00010
AFIX  23
H11A  2   -0.025937    0.633044    0.639634    11.00000   -1.20000
H11B  2   -0.022577    0.545365    0.497972    11.00000   -1.20000
AFIX   0
HKLF 4




REM  mo_ESLCD88_0m_a.res in P2(1)
REM R1 =  0.0189 for    4274 Fo > 4sig(Fo)  and  0.0239 for all    4626 data
REM    164 parameters refined using      1 restraints

END

WGHT      0.0149      0.3986

REM Instructions for potential hydrogen bonds
HTAB C9 I2_$3
HTAB C10 I1_$1
HTAB C11 I1_$4

REM Highest difference peak  0.738,  deepest hole -0.818,  1-sigma level  0.088
Q1    1   0.5394  0.8999  0.6549  11.00000  0.05    0.74
Q2    1   0.5802  0.5061  0.5159  11.00000  0.05    0.46
Q3    1   0.2409  0.4593  0.2432  11.00000  0.05    0.45
Q4    1   0.4204  0.5078  0.4390  11.00000  0.05    0.32
Q5    1   0.3517  0.6325  0.5375  11.00000  0.05    0.32
Q6    1   0.0073  0.4692  0.4005  11.00000  0.05    0.30
Q7    1   0.4750  0.1896  0.6356  11.00000  0.05    0.30
Q8    1   0.4023  0.9987  1.2057  11.00000  0.05    0.30
Q9    1   0.1584  0.2325  0.8882  11.00000  0.05    0.29
Q10   1   0.1354  0.5660  0.2452  11.00000  0.05    0.29
Q11   1  -0.2394  0.4911  0.8257  11.00000  0.05    0.29
Q12   1   0.5583  1.0562  1.0338  11.00000  0.05    0.29
Q13   1   0.2988  0.6205  0.8236  11.00000  0.05    0.29
Q14   1   0.5283  0.4454  0.5823  11.00000  0.05    0.29
Q15   1   0.1022  0.4978  0.7029  11.00000  0.05    0.28
Q16   1  -0.0750  0.5636  0.3635  11.00000  0.05    0.28
Q17   1   0.2062  0.1545  1.1280  11.00000  0.05    0.28
Q18   1   0.5605  0.9861  0.9551  11.00000  0.05    0.28
Q19   1   0.5383  0.0909  0.6695  11.00000  0.05    0.27
Q20   1  -0.2210  0.6760  0.5464  11.00000  0.05    0.27
;
_shelx_res_checksum              60092
_shelx_hkl_file
;
   1   0   0 1193.58   22.10
  -1   0   0 1213.28   22.40
   2   0   0  593.34   11.50
   2   0   0  597.24   11.10
   2   0   0  613.94   11.50
   2   0   0  614.64   11.50
   2   0   0  606.94   11.50
  -2   0   0  592.94   11.50
  -2   0   0  611.54   11.70
  -2   0   0  573.54   11.60
  -2   0   0  613.04   11.10
  -2   0   0  586.94   11.50
   3   0   0 2544.85   45.60
  -3   0   0 2461.45   45.50
  -3   0   0 2556.84   46.00
   3   0   0 2507.35   46.00
  -3   0   0 2500.65   45.70
  -3   0   0 2537.95   45.00
   3   0   0 2522.05   45.70
   3   0   0 2559.44   45.70
   3   0   0 2538.85   45.60
  -3   0   0 2492.65   45.70
  -4   0   0  155.08    4.80
   4   0   0  156.28    4.80
   4   0   0  154.88    4.70
  -4   0   0  148.99    5.20
  -4   0   0  156.18    4.80
   4   0   0  155.78    4.00
  -4   0   0  152.18    4.60
   4   0   0  155.48    4.70
   4   0   0  149.39    4.80
   5   0   0 2325.37   42.80
  -5   0   0 2335.77   43.90
   5   0   0 2385.96   43.70
   5   0   0 2416.16   43.90
  -5   0   0 2298.07   43.90
  -5   0   0 2333.27   43.70
  -5   0   0 2403.46   44.40
   5   0   0 2365.96   43.70
   5   0   0 2377.06   43.90
   6   0   0    8.00    2.20
  -6   0   0    8.20    2.50
   6   0   0   11.20    2.40
  -6   0   0   11.00    2.40
  -6   0   0   12.00    2.50
   6   0   0   10.70    2.40
   6   0   0   10.30    2.80
  -6   0   0   10.40    4.90
   6   0   0   10.90    1.90
  -7   0   0   84.39    5.70
  -7   0   0   85.09    6.30
   7   0   0   84.09    5.60
   7   0   0   82.39    5.40
   7   0   0   82.69    4.30
   7   0   0   71.69    5.20
  -7   0   0   87.29    5.90
   7   0   0   73.49    5.60
  -7   0   0   80.99    5.50
   8   0   0 2462.85   45.60
  -8   0   0 2396.56   47.50
   8   0   0 2491.65   47.30
   8   0   0 2521.65   47.30
  -8   0   0 2467.35   47.70
   8   0   0 2439.56   47.50
  -8   0   0 2400.96   48.10
  -8   0   0 2416.66   47.20
   8   0   0 2542.95   47.70
   9   0   0   -3.80    4.20
  -9   0   0   -3.00    3.80
   9   0   0    2.50    4.10
   9   0   0   -4.90    4.10
  -9   0   0   -4.30    4.30
   9   0   0    1.10    4.00
   9   0   0   -4.00    3.00
  -9   0   0    1.20    4.00
  -9   0   0   -5.80    3.80
 -10   0   0  524.55   16.00
 -10   0   0  483.15   17.40
 -10   0   0  529.05   15.50
  10   0   0  513.95   16.60
  10   0   0  509.35   16.50
  10   0   0  476.05   16.50
 -10   0   0  507.95   16.00
  10   0   0  541.65   13.10
  11   0   0   24.90    7.30
 -11   0   0   36.50    7.60
 -11   0   0   24.30    6.90
  11   0   0   32.90    5.00
 -11   0   0   37.60    7.40
  12   0   0    6.10    5.90
 -12   0   0    6.00    7.70
 -12   0   0   -8.10    7.80
 -12   0   0   -0.10    8.50
 -13   0   0  140.79   13.00
 -13   0   0  126.39   13.60
 -13   0   0   99.99   11.70
   0  -1   0   -0.10    0.40
   0  -1   0    0.80    0.40
   0  -1   0    0.10    0.40
   0  -1   0    0.50    0.50
   0  -1   0   -0.20    0.30
   0  -1   0    0.90    0.40
   0   1   0    0.10    0.40
   0   1   0    0.50    0.40
   0   1   0    0.40    0.40
   0   1   0    0.60    0.40
   0   1   0    0.10    0.40
   0   1   0    0.70    0.40
  -1  -1   0 1570.54   28.60
  -1  -1   0 1579.74   28.50
  -1  -1   0 1582.14   28.40
   1  -1   0 1588.64   28.50
   1  -1   0 1603.74   28.50
  -1  -1   0 1589.84   28.50
   1  -1   0 1580.24   28.50
  -1  -1   0 1569.94   28.50
   1  -1   0 1581.64   28.40
  -1   1   0 1602.04   28.60
   1   1   0 1612.94   28.40
  -1   1   0 1589.94   28.40
  -1   1   0 1586.34   28.50
   1   1   0 1558.64   28.60
   1   1   0 1601.44   28.60
   1   1   0 1583.24   28.60
  -1   1   0 1585.64   28.60
   1   1   0 1592.84   28.50
  -1   1   0 1585.74   28.50
  -2  -1   0 2329.97   42.40
   2  -1   0 2447.35   42.40
  -2  -1   0 2411.46   42.40
  -2  -1   0 2310.87   42.40
   2  -1   0 2366.86   42.40
   2  -1   0 2371.36   42.20
  -2  -1   0 2297.27   42.20
  -2  -1   0 2420.26   42.20
   2  -1   0 2422.06   42.40
  -2   1   0 2401.76   42.40
  -2   1   0 2128.89   42.80
  -2   1   0 2355.56   42.40
  -2   1   0 2269.57   42.20
   2   1   0 2373.46   42.40
  -2   1   0 2412.16   42.50
   2   1   0 2363.86   42.40
   2   1   0 2382.06   42.40
   3  -1   0 2532.35   45.80
  -3  -1   0 2554.44   45.30
   3  -1   0 2552.74   46.00
  -3  -1   0 2563.04   45.90
   3  -1   0 2548.45   45.60
  -3  -1   0 2516.05   46.20
  -3  -1   0 2488.25   45.80
  -3  -1   0 2463.35   45.80
   3  -1   0 2547.34   45.80
   3  -1   0 2548.84   45.90
  -3   1   0 2538.05   45.90
   3   1   0 2557.24   45.80
  -3   1   0 2489.55   45.80
   3   1   0 2497.45   45.40
   3   1   0 2558.74   45.80
   3   1   0 2566.34   45.80
  -3   1   0 2493.75   45.80
  -3   1   0 2485.95   45.90
  -3   1   0 2489.45   45.50
  -4  -1   0  183.68    5.40
   4  -1   0  180.68    5.70
  -4  -1   0  177.48    5.30
   4  -1   0  174.08    5.30
   4  -1   0  179.98    5.30
   4  -1   0  179.58    5.10
   4  -1   0  172.38    5.20
   4  -1   0  180.38    4.40
  -4  -1   0  175.48    4.60
  -4  -1   0  180.98    5.30
  -4  -1   0  177.88    5.80
   4   1   0  186.38    5.20
  -4   1   0  184.18    5.60
   4   1   0  183.48    4.80
   4   1   0  184.08    5.30
  -4   1   0  179.98    5.40
   4   1   0  177.28    5.30
  -4   1   0  176.68    5.10
  -4   1   0  178.08    5.30
  -4   1   0  173.38    5.20
   5  -1   0  358.46    9.00
  -5  -1   0  374.56    9.80
   5  -1   0  368.16    9.70
   5  -1   0  364.56    9.10
  -5  -1   0  357.76    8.10
   5  -1   0  368.66    9.10
  -5  -1   0  368.46    9.20
   5  -1   0  372.76    8.80
  -5  -1   0  380.56    9.10
  -5  -1   0  363.66    9.20
   5  -1   0  368.06    7.90
   5   1   0  370.66    8.70
  -5   1   0  343.77    9.00
   5   1   0  370.86    8.30
  -5   1   0  365.06    9.10
   5   1   0  366.16    9.00
   5   1   0  370.06    9.20
  -5   1   0  354.56    9.30
   5   1   0  364.46    9.10
  -5   1   0  371.26    8.90
   6  -1   0  134.39    4.30
  -6  -1   0  123.29    5.50
   6  -1   0  134.79    5.50
  -6  -1   0  127.19    5.80
  -6  -1   0  129.49    6.50
   6  -1   0  123.29    5.50
   6  -1   0  132.39    6.40
  -6  -1   0  136.79    5.80
   6  -1   0  133.19    5.80
  -6  -1   0  134.29    4.50
   6   1   0  139.09    5.80
  -6   1   0  131.19    5.60
  -6   1   0  120.69    6.60
   6   1   0  132.09    4.80
  -6   1   0  127.19    5.40
   6   1   0  131.69    5.20
  -6   1   0  124.79    5.70
  -7  -1   0 1510.35   31.20
   7  -1   0 1518.25   31.30
   7  -1   0 1516.85   28.60
  -7  -1   0 1476.45   28.70
   7  -1   0 1505.55   30.30
  -7  -1   0 1515.95   30.60
   7  -1   0 1572.84   30.60
  -7  -1   0 1509.35   30.50
   7  -1   0 1521.15   30.40
   7  -1   0 1510.55   29.90
  -7  -1   0 1516.95   30.30
  -7   1   0 1500.75   30.00
  -7   1   0 1532.95   30.80
   7   1   0 1523.15   30.30
  -7   1   0 1499.35   30.40
   7   1   0 1519.25   30.40
   7   1   0 1525.15   29.90
   7   1   0 1492.15   29.10
   7   1   0 1534.65   30.40
  -7   1   0 1519.55   30.60
   8  -1   0  305.57   10.00
   8  -1   0  303.67   10.40
  -8  -1   0  307.47   10.30
   8  -1   0  310.07   10.10
   8  -1   0  309.77    8.20
   8  -1   0  304.57   10.40
  -8  -1   0  301.17   10.10
  -8  -1   0  297.57   10.40
  -8   1   0  304.17   10.50
   8   1   0  302.87   10.40
  -8   1   0  308.17   10.30
  -8   1   0  314.47   11.00
   8   1   0  312.67    8.80
   8   1   0  302.97    9.50
   8   1   0  311.77   10.20
   8   1   0  314.77   10.50
  -8   1   0  296.07    9.80
   9  -1   0   40.10    5.30
  -9  -1   0   33.70    5.30
   9  -1   0   33.10    5.40
   9  -1   0   35.00    3.70
   9  -1   0   31.10    5.30
  -9  -1   0   25.80    4.60
  -9  -1   0   25.40    4.60
   9  -1   0   32.20    5.00
  -9   1   0   20.20    5.20
   9   1   0   32.50    4.00
  -9   1   0   39.50    4.90
  -9   1   0   30.70    4.80
   9   1   0   28.40    5.40
   9   1   0   38.40    5.50
  -9   1   0   34.00    5.10
   9   1   0   35.90    5.00
   9   1   0   24.60    4.30
  10  -1   0  243.38   12.30
  10  -1   0  252.47    8.70
  10  -1   0  254.17   12.80
 -10  -1   0  238.98   11.40
  10  -1   0  235.28   12.50
  10  -1   0  245.28   12.20
 -10  -1   0  274.07   11.80
 -10  -1   0  249.48   12.00
 -10   1   0  255.07   11.20
  10   1   0  224.78   13.00
  10   1   0  251.37   12.90
  10   1   0  234.28    9.40
 -10   1   0  240.88   12.10
 -10   1   0  235.28   13.30
  10   1   0  239.58   12.30
 -10   1   0  243.18   11.60
  11  -1   0  175.18    8.40
 -11  -1   0  165.58   12.20
 -11  -1   0  188.88   12.40
 -11  -1   0  175.88   11.80
 -11  -1   0  183.08   12.80
 -11   1   0  177.78   12.20
 -11   1   0  187.48   12.50
  11   1   0  183.08    9.40
 -11   1   0  171.38   12.80
  11   1   0  173.28   12.20
  12  -1   0   32.20    6.00
 -12  -1   0   30.20    9.20
 -12  -1   0   29.30    8.30
 -12  -1   0   15.70    7.80
 -12  -1   0   13.20    8.40
 -12   1   0    9.40    8.70
 -12   1   0   29.20    8.50
 -12   1   0   25.90    8.20
  12   1   0   37.10    6.80
 -13  -1   0  -11.10   10.80
 -13  -1   0   11.00    9.80
 -13  -1   0    1.30    9.50
 -13  -1   0    6.80   10.40
 -13   1   0   11.70    9.90
 -13   1   0    5.70   11.30
 -13   1   0   10.20   10.30
   0  -2   0 3775.62   67.39
   1  -2   0  729.13   14.20
  -1  -2   0  720.63   14.10
  -1  -2   0  734.43   14.00
  -1  -2   0  718.13   13.90
  -1  -2   0  740.13   14.20
   1  -2   0  733.53   14.00
  -1  -2   0  708.73   14.10
   1  -2   0  728.73   14.00
   1  -2   0  735.03   14.00
  -1   2   0  730.23   14.10
   1   2   0  726.93   13.90
   1   2   0  729.63   14.10
   1   2   0  712.03   14.00
  -1   2   0  733.13   14.00
   1   2   0  736.33   14.10
   1   2   0  710.93   13.50
  -1   2   0  721.23   14.00
  -1   2   0  723.83   13.70
  -1   2   0  725.63   14.10
   1   2   0  717.53   13.90
  -1   2   0  742.03   14.00
   2  -2   0   87.29    3.30
  -2  -2   0   87.39    3.30
   2  -2   0   88.39    3.20
  -2  -2   0   86.79    3.30
  -2  -2   0   92.09    3.10
  -2  -2   0   88.69    3.20
  -2  -2   0   85.19    3.20
   2  -2   0   92.19    3.20
   2   2   0   85.79    3.20
  -2   2   0   85.29    3.30
  -2   2   0   83.89    3.00
  -2   2   0   86.19    3.30
  -2   2   0   88.49    3.20
   2   2   0   90.39    3.40
   2   2   0   90.99    3.00
  -2   2   0   87.29    3.20
   2   2   0   87.99    3.20
   2   2   0   86.39    3.20
  -2   2   0   85.19    2.80
   3  -2   0 1460.05   27.30
  -3  -2   0 1475.05   27.10
  -3  -2   0 1439.36   27.40
  -3  -2   0 1420.46   27.40
   3  -2   0 1463.75   27.30
   3  -2   0 1492.15   27.40
  -3  -2   0 1452.35   27.40
   3  -2   0 1485.15   27.50
  -3  -2   0 1443.46   27.10
   3   2   0 1470.05   27.30
  -3   2   0 1424.76   27.10
  -3   2   0 1464.35   27.40
  -3   2   0 1437.16   27.40
   3   2   0 1446.86   27.30
  -3   2   0 1440.16   27.50
   3   2   0 1463.65   27.40
  -3   2   0 1397.66   26.80
   3   2   0 1487.65   27.40
  -4  -2   0  586.24   12.70
   4  -2   0  593.14   12.60
   4  -2   0  584.74   12.80
   4  -2   0  574.74   12.50
   4  -2   0  592.84   12.20
  -4  -2   0  590.14   12.10
  -4  -2   0  589.14   12.70
  -4  -2   0  586.74   12.60
  -4  -2   0  581.04   12.20
   4  -2   0  588.84   12.70
  -4   2   0  580.64   12.10
   4   2   0  578.04   12.50
  -4   2   0  563.84   12.70
  -4   2   0  579.64   12.60
   4   2   0  598.84   12.70
   4   2   0  580.64   12.30
  -4   2   0  577.84   12.60
  -4   2   0  573.14   12.40
   4   2   0  576.34   12.60
   5  -2   0  120.99    5.10
  -5  -2   0  124.19    5.90
   5  -2   0  121.59    5.00
  -5  -2   0  118.89    5.10
  -5  -2   0  122.19    4.30
   5  -2   0  125.09    4.70
  -5  -2   0  121.09    4.70
   5  -2   0  123.59    5.50
  -5  -2   0  122.29    5.10
  -5  -2   0  119.49    5.20
   5  -2   0  111.19    4.90
  -5   2   0  117.99    5.10
   5   2   0  123.49    5.10
   5   2   0  117.99    5.10
  -5   2   0  114.99    4.90
  -5   2   0  121.39    5.20
   5   2   0  119.19    4.80
   5   2   0  120.99    5.10
  -5   2   0  127.49    5.10
  -5   2   0  118.59    4.60
  -6  -2   0  370.56   10.10
  -6  -2   0  382.06   10.10
   6  -2   0  380.06   10.10
  -6  -2   0  377.96   11.10
   6  -2   0  387.36    8.60
   6  -2   0  372.06    9.60
  -6  -2   0  371.36    8.90
  -6  -2   0  367.66   10.10
   6  -2   0  366.06   10.60
   6  -2   0  381.56   10.00
  -6  -2   0  372.56    9.60
   6  -2   0  366.36   10.10
  -6   2   0  365.96   10.20
  -6   2   0  362.56   10.00
   6   2   0  367.16    9.90
  -6   2   0  383.86    9.70
   6   2   0  378.76   10.20
   6   2   0  386.06    9.60
   6   2   0  380.16   10.30
   7  -2   0  411.86   10.90
  -7  -2   0  396.26   12.20
  -7  -2   0  420.26   11.60
   7  -2   0  415.46   11.50
   7  -2   0  424.36   11.50
  -7  -2   0  406.96   11.50
  -7  -2   0  395.26   10.70
   7  -2   0  395.76    9.40
  -7  -2   0  407.86    9.90
  -7  -2   0  410.16   11.40
   7  -2   0  403.56   11.30
   7  -2   0  410.56   12.20
  -7   2   0  407.36   11.50
   7   2   0  426.46   11.50
   7   2   0  414.06   10.60
   7   2   0  406.26   10.50
   7   2   0  416.46   11.60
   7   2   0  410.76   11.50
  -7   2   0  396.96   11.50
  -7   2   0  400.66   11.30
  -7   2   0  403.36   10.80
  -8  -2   0  350.26   11.40
   8  -2   0  340.77   11.30
  -8  -2   0  348.37    9.50
  -8  -2   0  367.56   11.50
  -8  -2   0  362.36   11.40
   8  -2   0  368.36   11.40
   8  -2   0  362.26   11.50
   8  -2   0  353.36    9.00
   8  -2   0  378.96   11.00
  -8  -2   0  363.96   10.70
   8  -2   0  360.56   12.40
   8   2   0  346.77   11.50
   8   2   0  349.67   10.30
  -8   2   0  373.26   10.90
   8   2   0  369.36   11.40
  -8   2   0  361.36   11.70
   8   2   0  344.47   11.50
   8   2   0  363.66   10.20
  -8   2   0  368.56   11.60
  -8   2   0  356.56   11.30
   9  -2   0    8.20    4.40
   9  -2   0    5.90    4.80
   9  -2   0   10.90    3.10
  -9  -2   0   11.70    4.60
   9  -2   0   14.20    4.60
  -9  -2   0    1.60    3.80
  -9  -2   0    2.70    3.00
  -9  -2   0    2.40    3.80
  -9  -2   0    2.70    4.30
  -9   2   0    6.80    4.30
  -9   2   0   -7.10    4.50
  -9   2   0    7.10    4.10
  -9   2   0    7.30    4.20
   9   2   0   10.40    4.80
   9   2   0    7.20    3.90
   9   2   0   11.40    5.10
   9   2   0    7.50    4.90
   9   2   0    6.80    3.70
 -10  -2   0  113.19    9.20
  10  -2   0  124.69   12.00
 -10  -2   0  129.69   10.00
 -10  -2   0  126.99   10.20
 -10  -2   0  144.89   10.70
  10  -2   0  115.09    8.70
  10  -2   0  120.59    6.80
  10  -2   0  141.09   11.30
 -10   2   0  123.79   10.50
  10   2   0  100.99    8.90
  10   2   0  124.79    8.50
 -10   2   0  131.49    9.70
  10   2   0  111.89    9.10
 -10   2   0  122.59   11.60
 -10   2   0  118.69   10.20
 -11  -2   0  190.38   12.90
 -11  -2   0  229.48   14.20
  11  -2   0  201.58    8.90
 -11  -2   0  190.08   13.20
 -11  -2   0  211.08   12.70
 -11   2   0  196.08   13.80
 -11   2   0  207.98   13.10
  11   2   0  194.68   12.70
  11   2   0  189.88   10.30
 -11   2   0  201.58   12.50
 -12  -2   0   86.79    9.40
 -12  -2   0   81.39   10.50
  12  -2   0   68.09    6.80
 -12  -2   0   63.09   10.30
 -12  -2   0   60.59   10.90
 -12   2   0   78.59    9.60
 -12   2   0   85.49   10.70
 -12   2   0   88.29   10.80
  12   2   0   81.39    8.50
 -13  -2   0   19.30   10.20
 -13  -2   0   -2.20   11.80
 -13  -2   0   20.70   18.00
 -13  -2   0    0.00   15.40
 -13   2   0   -2.40   10.60
 -13   2   0   14.40   10.40
 -13   2   0    9.20   16.60
   0  -3   0   -1.00    1.40
   0  -3   0   -0.40    1.40
   0  -3   0    1.80    1.10
   0  -3   0    0.40    1.10
   0  -3   0    1.50    1.30
   0  -3   0   -0.60    1.30
   0  -3   0    5.40    1.40
   0   3   0    0.50    1.10
   0   3   0    1.10    1.20
   0   3   0   -0.10    1.20
   0   3   0    0.30    1.30
   0   3   0    1.30    1.40
   0   3   0    0.30    1.30
  -1  -3   0 4187.98   73.99
   1  -3   0 4133.99   74.09
   1  -3   0 4205.68   73.89
   1  -3   0 4120.19   74.09
  -1  -3   0 4195.08   73.99
   1  -3   0 4046.50   74.19
  -1  -3   0 4150.08   73.39
   1  -3   0 4160.88   73.99
   1  -3   0 4123.79   73.99
  -1  -3   0 4127.19   74.09
  -1  -3   0 4044.50   74.09
  -1  -3   0 4056.29   73.89
   1  -3   0 4059.69   73.59
  -1   3   0 4210.48   74.09
   1   3   0 4201.38   73.79
   1   3   0 4074.79   74.39
  -1   3   0 4064.99   73.99
  -1   3   0 4209.38   74.09
   1   3   0 4195.38   74.09
  -1   3   0 4054.49   73.99
   1   3   0 4094.99   73.99
   1   3   0 4047.00   73.99
   1   3   0 4174.38   74.19
   1   3   0 4084.49   73.39
   1   3   0 4231.38   73.89
  -1   3   0 4019.20   73.89
   2  -3   0  871.01   17.10
  -2  -3   0  850.31   16.90
   2  -3   0  867.71   17.10
  -2  -3   0  854.01   17.20
   2  -3   0  860.31   17.10
  -2  -3   0  856.31   17.20
  -2  -3   0  871.81   17.30
   2  -3   0  868.71   16.70
  -2   3   0  845.12   17.00
  -2   3   0  870.41   17.10
   2   3   0  855.51   17.00
   2   3   0  842.52   16.90
  -2   3   0  879.91   16.70
   2   3   0  856.81   17.10
   2   3   0  833.92   16.20
   2   3   0  857.61   16.90
   2   3   0  858.91   17.20
  -2   3   0  865.41   17.10
  -2   3   0  871.11   17.20
   2   3   0  832.22   17.30
  -2   3   0  855.41   17.20
   2   3   0  858.61   17.20
  -2   3   0  876.21   17.20
  -3  -3   0 2191.48   40.60
   3  -3   0 2262.07   40.70
  -3  -3   0 2200.68   40.30
   3  -3   0 2139.49   40.30
   3  -3   0 2187.98   40.70
   3  -3   0 2203.88   40.60
  -3  -3   0 2168.18   40.60
  -3  -3   0 2134.29   40.70
  -3  -3   0 2158.78   40.70
  -3   3   0 2169.78   40.00
  -3   3   0 2145.79   40.60
   3   3   0 2228.58   40.80
   3   3   0 2150.88   40.90
   3   3   0 2190.78   40.40
  -3   3   0 2158.68   40.60
  -3   3   0 2208.58   40.30
   3   3   0 2234.28   40.60
   3   3   0 2220.48   40.70
  -3   3   0 2205.68   40.80
  -3   3   0 2163.48   40.80
  -4  -3   0 3351.86   60.99
  -4  -3   0 3285.77   61.49
  -4  -3   0 3190.78   61.39
   4  -3   0 3451.85   61.49
   4  -3   0 3349.66   61.39
   4  -3   0 3409.16   61.39
  -4  -3   0 3360.56   61.09
   4  -3   0 3422.66   61.59
  -4  -3   0 3372.36   61.49
  -4   3   0 3333.47   61.39
  -4   3   0 3401.86   61.59
  -4   3   0 3296.27   61.69
  -4   3   0 3343.27   60.99
   4   3   0 3276.77   61.39
   4   3   0 3410.96   61.59
   4   3   0 3423.36   61.39
  -4   3   0 3323.27   61.39
  -4   3   0 3260.17   60.69
   4   3   0 3473.25   61.59
  -5  -3   0  594.14   13.50
  -5  -3   0  561.24   13.30
  -5  -3   0  580.64   12.60
   5  -3   0  568.24   13.20
  -5  -3   0  567.24   12.80
   5  -3   0  592.44   13.30
  -5  -3   0  575.54   13.30
   5  -3   0  565.94   13.40
   5   3   0  580.64   13.10
   5   3   0  524.95   13.90
  -5   3   0  577.74   13.00
  -5   3   0  569.64   13.20
  -5   3   0  550.84   13.20
  -5   3   0  561.54   13.40
   5   3   0  566.94   13.30
  -5   3   0  566.94   12.60
  -6  -3   0  420.96   11.40
  -6  -3   0  425.76   11.70
   6  -3   0  437.46   11.40
  -6  -3   0  432.96   11.00
  -6  -3   0  442.06   10.60
   6  -3   0  436.66   11.60
  -6  -3   0  445.56   11.60
  -6  -3   0  438.26   12.50
   6  -3   0  426.46   11.90
   6  -3   0  436.96   11.60
   6   3   0  371.06   12.70
  -6   3   0  431.56   11.70
   6   3   0  448.56   11.30
   6   3   0  431.46   11.50
  -6   3   0  430.26   10.80
  -6   3   0  444.26   11.40
   6   3   0  448.66   11.50
  -6   3   0  412.36   11.30
  -6   3   0  437.96   11.60
   7  -3   0  585.34   14.90
  -7  -3   0  568.14   14.80
  -7  -3   0  589.14   15.00
  -7  -3   0  592.94   14.10
   7  -3   0  606.94   15.00
   7  -3   0  565.84   14.60
  -7  -3   0  593.04   14.80
   7  -3   0  566.84   15.30
  -7  -3   0  576.04   15.80
   7   3   0  565.54   14.20
  -7   3   0  601.14   14.70
  -7   3   0  562.74   14.60
   7   3   0  591.04   14.90
  -7   3   0  582.34   14.90
   7   3   0  605.54   15.00
   7   3   0  591.74   14.70
  -7   3   0  602.04   14.00
  -8  -3   0   17.60    4.20
  -8  -3   0   25.10    4.20
   8  -3   0   21.50    4.80
  -8  -3   0   22.50    3.70
  -8  -3   0   26.00    4.60
   8  -3   0   19.20    4.50
   8  -3   0   20.80    4.50
  -8  -3   0   17.70    4.20
   8  -3   0   28.90    3.30
   8  -3   0   27.00    5.00
   8   3   0   25.60    4.90
   8   3   0   26.00    4.30
  -8   3   0   25.20    4.00
  -8   3   0   25.60    4.70
  -8   3   0   21.70    4.30
   8   3   0   24.30    4.80
  -8   3   0   17.60    4.00
   8   3   0   23.00    3.80
   9  -3   0  670.23   14.80
  -9  -3   0  649.24   15.70
   9  -3   0  673.23   19.20
   9  -3   0  660.53   18.20
  -9  -3   0  669.03   16.80
   9  -3   0  639.34   18.20
  -9  -3   0  677.73   18.00
  -9  -3   0  655.03   17.70
  -9  -3   0  663.63   18.00
   9  -3   0  645.84   18.20
  -9   3   0  679.53   17.00
   9   3   0  661.93   16.20
  -9   3   0  563.64   19.80
  -9   3   0  656.53   17.90
   9   3   0  649.34   18.30
   9   3   0  698.13   16.80
  -9   3   0  629.44   17.90
   9   3   0  650.53   18.20
  10  -3   0   65.49    8.50
 -10  -3   0   40.60    8.90
 -10  -3   0   61.79    5.80
  10  -3   0   69.29    6.30
 -10  -3   0   58.39    6.90
 -10  -3   0   75.29    7.90
 -10  -3   0   73.89    7.00
  10   3   0   62.79    8.30
  10   3   0   68.59    6.60
 -10   3   0   54.59    7.20
 -10   3   0   67.69    7.00
  10   3   0   59.09    6.50
 -10   3   0   70.29    7.30
 -11  -3   0  105.29   10.40
 -11  -3   0  101.19    9.50
 -11  -3   0  100.49    8.60
  11  -3   0   88.79    7.80
 -11  -3   0   99.29    9.60
  11   3   0  106.49    8.40
 -11   3   0  100.19    9.00
 -11   3   0   69.59    8.70
 -11   3   0   96.69    9.10
 -12  -3   0   63.19   11.00
 -12  -3   0   90.19    9.90
 -12  -3   0   80.79   11.00
 -12  -3   0   88.09   11.30
 -12   3   0   79.29   11.10
  12   3   0   92.19    9.60
 -12   3   0   93.19   10.40
 -12   3   0   90.79   11.30
   0  -4   0 2006.50   37.70
   0  -4   0 2005.70   37.50
   0  -4   0 1999.10   37.70
   0  -4   0 2009.50   37.90
   0  -4   0 2024.20   37.60
   0  -4   0 1979.30   37.70
   0  -4   0 2053.79   37.10
   0   4   0 2019.30   37.50
   0   4   0 2027.30   37.70
   0   4   0 2066.49   37.80
   0   4   0 1939.91   37.10
   0   4   0 1989.00   37.50
   0   4   0 2029.10   37.60
  -1  -4   0 1580.34   30.10
   1  -4   0 1504.05   29.70
  -1  -4   0 1521.55   29.80
   1  -4   0 1578.64   29.40
  -1  -4   0 1556.44   28.80
   1  -4   0 1600.14   29.60
  -1  -4   0 1531.65   29.60
   1  -4   0 1552.84   29.90
   1  -4   0 1522.15   29.10
   1  -4   0 1606.54   29.70
  -1  -4   0 1562.84   29.70
   1  -4   0 1568.24   29.90
   1  -4   0 1557.94   29.70
  -1  -4   0 1527.05   29.80
  -1  -4   0 1599.54   29.70
   1   4   0 1502.35   29.50
   1   4   0 1558.54   29.80
  -1   4   0 1556.74   29.70
  -1   4   0 1572.44   29.80
  -1   4   0 1559.24   29.50
  -1   4   0 1594.64   29.80
   1   4   0 1570.34   29.50
  -1   4   0 1524.85   29.60
   1   4   0 1561.24   29.30
  -1   4   0 1524.75   29.60
   1   4   0 1537.15   28.90
   1   4   0 1593.34   29.90
   1   4   0 1513.55   29.60
   2  -4   0 2236.78   41.50
   2  -4   0 2247.28   41.90
  -2  -4   0 2188.58   41.40
  -2  -4   0 2204.28   41.80
   2  -4   0 2235.08   41.50
   2  -4   0 2146.89   41.00
  -2  -4   0 2276.07   42.00
  -2  -4   0 2193.28   41.80
   2  -4   0 2236.58   41.60
   2   4   0 2247.78   41.70
  -2   4   0 2213.68   41.60
  -2   4   0 2209.18   41.60
  -2   4   0 2250.17   41.70
  -2   4   0 2285.47   41.80
   2   4   0 2279.17   41.80
   2   4   0 2201.08   41.60
   2   4   0 2230.48   41.40
   2   4   0 2204.78   40.60
   2   4   0 2244.48   41.60
  -2   4   0 2169.98   41.60
   2   4   0 2203.98   42.10
   2   4   0 2253.27   41.40
  -2   4   0 2263.47   41.00
  -2   4   0 2287.77   41.70
   3  -4   0  278.17    7.80
   3  -4   0  291.37    7.90
  -3  -4   0  288.07    7.70
   3  -4   0  277.77    7.90
  -3  -4   0  282.97    8.10
  -3  -4   0  281.97    8.10
  -3  -4   0  279.77    8.10
   3  -4   0  296.07    7.60
   3   4   0  287.07    6.80
  -3   4   0  288.97    8.00
  -3   4   0  287.07    8.10
   3   4   0  280.67    7.60
  -3   4   0  287.67    8.10
   3   4   0  284.77    7.90
  -3   4   0  286.07    7.40
   3   4   0  289.47    8.10
   3   4   0  286.87    8.10
   3   4   0  287.27    7.80
  -3   4   0  298.47    8.10
   3   4   0  292.17    8.00
  -3   4   0  281.67    7.90
  -3   4   0  281.97    8.10
   3   4   0  280.77    8.40
  -4  -4   0  110.89    5.50
  -4  -4   0  113.19    5.40
  -4  -4   0  122.39    5.50
  -4  -4   0  113.79    5.60
  -4  -4   0  122.49    5.20
   4  -4   0  115.99    5.40
   4  -4   0  111.49    6.20
   4  -4   0  113.79    5.20
   4  -4   0  127.19    5.50
  -4   4   0  117.39    5.80
   4   4   0  119.09    5.20
   4   4   0  122.79    5.40
   4   4   0  116.49    5.40
  -4   4   0  126.39    5.10
  -4   4   0  110.09    5.40
   4   4   0  114.89    5.60
   4   4   0  120.79    5.70
   4   4   0  117.29    5.50
  -4   4   0  119.19    5.60
   4   4   0  117.09    5.40
  -4   4   0  115.29    4.60
  -4   4   0  118.59    5.60
   5  -4   0  361.36    9.90
  -5  -4   0  353.56   10.00
  -5  -4   0  335.87   10.00
   5  -4   0  355.16   10.00
  -5  -4   0  346.47    9.40
  -5  -4   0  339.37    9.50
   5  -4   0  358.76    9.90
   5  -4   0  351.86    9.90
  -5  -4   0  334.97   10.00
   5   4   0  338.07    9.70
   5   4   0  344.57   10.00
  -5   4   0  351.76    9.00
  -5   4   0  344.97    9.90
  -5   4   0  350.46    9.40
   5   4   0  350.96   10.10
  -5   4   0  341.37    9.90
  -5   4   0  341.37   10.10
  -5   4   0  341.67   10.00
   5   4   0  353.46   10.10
   6  -4   0  692.03   16.50
  -6  -4   0  703.63   16.90
   6  -4   0  708.23   16.80
   6  -4   0  703.83   16.80
  -6  -4   0  701.23   16.60
  -6  -4   0  689.73   15.80
  -6  -4   0  713.53   16.80
   6  -4   0  689.13   16.60
  -6  -4   0  688.23   17.50
  -6  -4   0  726.23   16.10
  -6   4   0  695.53   16.10
  -6   4   0  719.03   16.80
   6   4   0  716.73   16.80
   6   4   0  704.83   16.70
  -6   4   0  694.13   16.70
  -6   4   0  716.93   17.00
   6   4   0  715.83   16.60
   6   4   0  700.13   16.60
  -6   4   0  696.53   16.60
  -6   4   0  702.03   15.60
  -7  -4   0  380.66   11.80
  -7  -4   0  368.26   10.80
  -7  -4   0  384.36   11.90
   7  -4   0  385.16   11.80
   7  -4   0  377.96   11.70
  -7  -4   0  380.76   11.90
  -7  -4   0  358.56   10.50
   7  -4   0  382.26   12.10
  -7  -4   0  373.16   13.10
   7   4   0  379.06   12.00
  -7   4   0  369.76   11.30
   7   4   0  352.46   11.70
  -7   4   0  364.86   11.40
   7   4   0  372.56   11.50
  -7   4   0  366.86   11.90
  -7   4   0  362.56   11.70
  -7   4   0  374.66   10.50
  -7   4   0  358.06   11.60
  -8  -4   0  338.17   10.70
   8  -4   0  314.77   12.10
  -8  -4   0  311.47   11.70
  -8  -4   0  315.87   11.60
   8  -4   0  309.97   11.80
  -8  -4   0  306.17   11.80
   8  -4   0  313.27   11.70
  -8  -4   0  302.27   10.10
  -8   4   0  316.17   11.70
  -8   4   0  306.67   11.30
   8   4   0  306.87   12.30
   8   4   0  295.67   12.00
  -8   4   0  307.17   11.50
   8   4   0  296.27    9.50
  -8   4   0  309.67   10.30
   8   4   0  311.47   11.00
   9  -4   0   18.70    6.40
   9  -4   0   32.00    8.50
  -9  -4   0   23.40    7.10
   9  -4   0   29.50    4.00
   9  -4   0   18.30    5.70
  -9  -4   0   22.70    5.80
  -9  -4   0   26.70    4.90
   9  -4   0   27.40    6.70
  -9  -4   0   21.30    5.50
  -9  -4   0   24.00    5.60
  -9  -4   0   28.00    5.10
   9   4   0   15.30    5.20
  -9   4   0   34.80    5.90
  -9   4   0   16.40    6.50
   9   4   0   22.80    6.70
   9   4   0   31.20    4.80
  -9   4   0   24.00    5.50
  -9   4   0   36.70    6.80
  -9   4   0   37.10    5.40
   9   4   0   20.70    6.60
  10  -4   0  279.77   15.40
 -10  -4   0  291.37   14.30
 -10  -4   0  261.07   14.50
 -10  -4   0  278.27   12.30
 -10  -4   0  250.47   11.70
 -10  -4   0  258.77   13.90
  10  -4   0  264.37    9.30
  10  -4   0  263.27   17.10
 -10   4   0  279.07   14.10
 -10   4   0  274.47   12.70
 -10   4   0  283.67   13.80
  10   4   0  253.97   11.60
  10   4   0  273.57   12.50
 -11  -4   0  102.29   10.60
 -11  -4   0   81.99    8.20
 -11  -4   0   93.19   10.50
 -11  -4   0  102.89   10.80
  11  -4   0   97.69    8.60
 -11  -4   0   93.39    8.80
 -11   4   0   85.09    9.80
  11   4   0   90.19    9.10
 -11   4   0  107.19   10.30
 -11   4   0  101.09    9.60
 -12  -4   0   26.50   10.40
 -12  -4   0   23.40   10.90
 -12  -4   0   18.60   10.60
 -12  -4   0   25.50    8.80
 -12   4   0   28.80   10.60
 -12   4   0   40.10    9.70
  12   4   0   45.40   10.30
 -12   4   0   35.30   10.70
   0  -5   0   -0.10    1.90
   0  -5   0    1.80    1.90
   0  -5   0    1.80    2.10
   0  -5   0    2.20    2.20
   0  -5   0    0.90    2.00
   0  -5   0   -0.80    1.70
   0  -5   0    2.40    2.40
   0  -5   0    1.00    1.80
   0   5   0    3.90    2.40
   0   5   0   -1.20    1.70
   0   5   0    0.70    1.80
   0   5   0   -0.10    2.00
   0   5   0    1.50    2.10
   0   5   0   -0.90    2.10
   1  -5   0  330.97    8.40
  -1  -5   0  324.47    9.20
   1  -5   0  328.37    9.20
  -1  -5   0  321.07    9.10
  -1  -5   0  316.07    7.80
   1  -5   0  318.77    9.10
  -1  -5   0  318.87    9.00
   1  -5   0  322.57    8.80
  -1  -5   0  309.87    8.70
   1  -5   0  324.87    8.70
  -1  -5   0  315.27    8.90
  -1  -5   0  336.67    8.90
   1  -5   0  330.77    9.00
   1  -5   0  313.77    8.10
   1   5   0  328.97    8.80
   1   5   0  318.67    8.90
   1   5   0  327.37    8.40
  -1   5   0  333.27    9.00
  -1   5   0  331.27    9.00
   1   5   0  332.47    8.80
  -1   5   0  317.17    8.80
   1   5   0  325.17    9.00
   1   5   0  322.57    8.00
   1   5   0  323.97    9.00
  -1   5   0  333.87    8.80
  -1   5   0  316.97    8.50
  -2  -5   0   78.99    5.20
  -2  -5   0   76.79    5.00
   2  -5   0   77.49    4.60
   2  -5   0   80.99    5.00
   2  -5   0   79.49    4.60
   2  -5   0   80.09    4.30
   2  -5   0   75.79    5.20
   2  -5   0   81.49    4.90
  -2  -5   0   85.29    5.00
  -2  -5   0   85.09    5.20
   2   5   0   79.69    3.80
  -2   5   0   77.59    4.70
  -2   5   0   76.59    4.80
  -2   5   0   79.89    5.00
   2   5   0   81.39    4.70
   2   5   0   80.09    4.90
  -2   5   0   77.19    4.80
   2   5   0   85.09    5.00
  -2   5   0   77.29    4.80
   2   5   0   80.49    4.70
   2   5   0   84.49    4.60
  -2   5   0   75.99    4.90
   2   5   0   76.09    5.20
   2   5   0   82.79    4.80
   3  -5   0  319.17    9.10
  -3  -5   0  317.27    9.70
   3  -5   0  346.67   11.40
  -3  -5   0  314.67    9.30
   3  -5   0  329.37    8.70
  -3  -5   0  322.07    9.40
  -3  -5   0  320.97    9.00
  -3   5   0  308.77    8.30
  -3   5   0  311.57    9.20
   3   5   0  334.37    9.70
   3   5   0  321.27    7.90
  -3   5   0  323.27    9.30
  -3   5   0  313.47    9.10
   3   5   0  318.87    9.00
   3   5   0  320.37    9.30
  -3   5   0  320.77    9.20
   3   5   0  333.47    9.90
  -3   5   0  314.37    9.40
   3   5   0  331.47    9.30
  -3   5   0  311.37    9.10
   3   5   0  306.27    9.40
   3   5   0  325.27    9.00
   4  -5   0  619.34   14.70
   4  -5   0  620.44   14.30
  -4  -5   0  613.94   14.80
   4  -5   0  634.14   14.80
  -4  -5   0  615.44   15.00
  -4  -5   0  623.54   15.10
   4  -5   0  623.44   14.60
  -4  -5   0  613.44   14.30
   4   5   0  621.94   14.80
  -4   5   0  623.04   15.10
  -4   5   0  629.44   14.90
  -4   5   0  626.84   14.00
  -4   5   0  620.54   13.70
   4   5   0  626.04   14.60
   4   5   0  620.84   14.70
   4   5   0  628.34   14.60
   4   5   0  622.84   14.90
  -4   5   0  612.34   14.90
  -4   5   0  612.84   14.80
   4   5   0  597.74   16.20
   4   5   0  634.34   13.20
  -4   5   0  644.54   14.90
  -4   5   0  607.94   14.90
   4   5   0  630.84   15.40
   5  -5   0   22.90    4.10
  -5  -5   0   22.60    3.90
   5  -5   0   21.30    3.70
   5  -5   0   22.00    3.90
  -5  -5   0   24.80    4.10
  -5  -5   0   26.20    3.70
  -5  -5   0   23.40    3.60
   5  -5   0   28.10    4.10
  -5   5   0   23.20    3.00
   5   5   0   20.00    3.40
   5   5   0   22.20    3.90
  -5   5   0   19.70    3.80
  -5   5   0   32.00    4.50
   5   5   0   24.20    4.30
   5   5   0   19.20    3.40
  -5   5   0   19.10    3.50
  -5   5   0   28.90    3.70
  -5   5   0   21.60    3.70
   5   5   0   20.70    3.60
  -5   5   0   22.00    3.80
   5   5   0   21.70    3.50
   5   5   0   22.00    3.80
   5   5   0   22.10    2.70
  -6  -5   0  143.19    8.20
  -6  -5   0  161.38    7.50
  -6  -5   0  137.39    8.00
  -6  -5   0  163.48    7.40
  -6  -5   0  145.89    7.80
   6  -5   0  160.48    8.20
   6  -5   0  147.19    7.90
   6  -5   0  149.19    8.00
   6   5   0  161.98    8.30
   6   5   0  155.98    8.10
  -6   5   0  146.69    7.30
  -6   5   0  162.48    8.50
  -6   5   0  156.48    8.00
  -6   5   0  163.28    7.00
   6   5   0  152.58    7.90
   6   5   0  166.78    8.50
   6   5   0  164.18    8.50
  -6   5   0  153.68    7.90
  -6   5   0  150.48    8.10
   6   5   0  159.18    7.90
  -7  -5   0   69.49    6.30
  -7  -5   0   62.49    5.30
  -7  -5   0   60.29    5.60
  -7  -5   0   77.89    7.10
   7  -5   0   74.39    6.30
  -7  -5   0   69.49    6.00
   7  -5   0   71.99    6.50
   7  -5   0   58.59    6.00
  -7   5   0   64.39    5.80
   7   5   0   51.99    6.00
  -7   5   0   61.99    6.10
   7   5   0   70.19    6.70
   7   5   0   68.79    6.10
  -7   5   0   70.69    7.30
  -7   5   0   64.49    6.30
  -7   5   0   67.79    5.80
  -8  -5   0  241.58   11.10
  -8  -5   0  229.68   13.90
  -8  -5   0  234.08   11.30
  -8  -5   0  244.18   10.00
  -8  -5   0  216.28    9.90
  -8  -5   0  222.58   11.30
   8  -5   0  235.98   12.20
   8  -5   0  245.48   11.50
   8  -5   0  228.78   11.60
  -8   5   0  241.08    9.70
   8   5   0  207.88   12.30
  -8   5   0  229.98   10.90
   8   5   0  235.78   12.30
  -8   5   0  222.98   12.70
  -8   5   0  248.98   11.20
  -8   5   0  228.68   10.60
   8   5   0  230.88   10.80
   8   5   0  214.88   11.90
  -9  -5   0  165.78   15.00
  -9  -5   0  193.18   13.70
   9  -5   0  220.78   12.90
  -9  -5   0  212.38   12.20
  -9  -5   0  182.48   10.90
   9  -5   0  214.98    8.70
  -9  -5   0  226.28   12.50
   9  -5   0  193.28   13.60
  -9   5   0  211.48   12.00
  -9   5   0  224.88   10.50
   9   5   0  203.98    9.10
  -9   5   0  174.28   12.70
   9   5   0  197.38   14.40
   9   5   0  224.18   12.00
  -9   5   0  208.78   12.00
 -10  -5   0   35.30    7.40
 -10  -5   0   34.40    8.00
  10  -5   0   32.20    5.20
 -10  -5   0   35.30    6.90
  10  -5   0   36.50    8.70
 -10  -5   0   40.00    7.80
 -10  -5   0   43.60    8.60
  10   5   0   42.50    9.30
 -10   5   0   32.30    8.00
  10   5   0   33.00    6.30
 -10   5   0   34.60    7.60
 -10   5   0   41.90    7.10
 -11  -5   0    8.00    8.60
  11  -5   0   40.50   10.80
 -11  -5   0   12.10    7.70
 -11  -5   0    5.20    9.10
  11  -5   0   21.30    5.60
 -11  -5   0    2.20    9.00
 -11   5   0   20.70    7.90
  11   5   0   14.80    8.50
 -11   5   0   13.60    8.70
 -11   5   0   12.30    8.80
 -12  -5   0   15.50    9.80
 -12  -5   0   -2.50   12.00
 -12   5   0   27.40   10.30
 -12   5   0   25.50   11.00
  12   5   0    7.80   11.00
 -12   5   0    5.20   12.00
   0  -6   0   -0.30    2.80
   0  -6   0    4.80    3.00
   0  -6   0    5.50    3.40
   0  -6   0    2.00    3.10
   0  -6   0    2.70    2.70
   0  -6   0   -2.10    2.60
   0  -6   0   -3.60    5.20
   0  -6   0    2.70    2.60
   0   6   0    0.40    3.20
   0   6   0   -3.00    2.70
   0   6   0    6.20    2.80
   0   6   0   -0.10    2.90
   0   6   0    3.60    3.00
   0   6   0    1.30    2.70
  -1  -6   0 1689.23   32.20
  -1  -6   0 1674.53   33.80
   1  -6   0 1671.53   33.80
   1  -6   0 1672.93   33.20
   1  -6   0 1696.73   33.40
  -1  -6   0 1687.53   33.30
   1  -6   0 1710.53   33.70
   1  -6   0 1712.73   32.80
   1  -6   0 1668.23   33.40
  -1  -6   0 1673.53   33.50
   1  -6   0 1725.43   32.60
   1  -6   0 1661.63   33.70
  -1  -6   0 1669.33   33.60
  -1  -6   0 1701.03   33.70
  -1   6   0 1724.43   33.60
  -1   6   0 1682.33   33.40
   1   6   0 1676.33   33.40
  -1   6   0 1715.53   33.50
  -1   6   0 1645.14   33.30
   1   6   0 1640.14   32.30
   1   6   0 1727.63   32.90
   1   6   0 1728.83   33.70
  -1   6   0 1695.13   33.10
   1   6   0 1667.73   33.40
   1   6   0 1693.53   33.50
  -1   6   0 1721.33   33.70
   1   6   0 1739.83   33.30
   2  -6   0 1125.19   23.70
   2  -6   0 1127.49   23.30
   2  -6   0 1110.59   23.30
  -2  -6   0 1093.39   23.70
  -2  -6   0 1113.89   23.80
   2  -6   0 1093.09   23.80
  -2  -6   0 1108.79   23.70
   2  -6   0 1095.59   22.40
  -2  -6   0 1115.69   23.30
   2  -6   0 1108.39   23.00
  -2   6   0 1109.49   23.50
  -2   6   0 1119.19   23.40
  -2   6   0 1087.79   23.40
   2   6   0 1087.29   23.20
   2   6   0 1118.19   23.60
   2   6   0 1117.79   23.20
  -2   6   0 1130.89   23.60
  -2   6   0 1103.69   23.50
  -2   6   0 1122.89   23.30
   2   6   0 1109.39   23.70
   2   6   0 1103.29   23.30
   2   6   0 1096.59   23.40
   2   6   0 1107.99   22.10
   3  -6   0  430.16   11.60
   3  -6   0  436.56   11.20
   3  -6   0  444.36   12.00
  -3  -6   0  434.36   12.20
  -3  -6   0  431.16   12.30
  -3  -6   0  430.06   11.90
   3  -6   0  432.76   12.00
   3  -6   0  439.36   11.90
  -3  -6   0  438.56   12.20
  -3   6   0  430.16   12.00
   3   6   0  445.16   12.10
  -3   6   0  435.16   11.90
   3   6   0  437.26   12.20
  -3   6   0  439.86   12.20
  -3   6   0  450.25   12.20
  -3   6   0  434.26   12.00
   3   6   0  432.26   10.40
   3   6   0  431.86   11.70
   3   6   0  434.56   12.40
   3   6   0  433.86   11.90
   3   6   0  431.86   11.70
   4  -6   0   68.59    6.30
  -4  -6   0   63.99    5.30
   4  -6   0   64.09    5.80
  -4  -6   0   48.40    4.70
   4  -6   0   60.99    5.90
   4  -6   0   62.89    5.20
  -4  -6   0   57.09    5.10
  -4  -6   0   62.79    6.00
   4  -6   0   66.09    5.30
   4   6   0   63.89    5.80
  -4   6   0   68.19    6.70
  -4   6   0   57.69    5.10
   4   6   0   63.49    6.20
  -4   6   0   59.99    5.50
   4   6   0   52.49    5.10
   4   6   0   62.79    6.40
  -4   6   0   65.49    6.10
  -4   6   0   68.79    5.70
   4   6   0   56.09    4.40
   4   6   0   60.79    6.10
  -4   6   0   61.19    4.80
  -4   6   0   62.19    5.60
   4   6   0   64.29    6.20
  -4   6   0   65.39    6.10
   4   6   0   65.99    6.60
   5  -6   0  353.86   11.40
   5  -6   0  346.87   11.40
   5  -6   0  368.46   11.60
  -5  -6   0  362.16   11.20
  -5  -6   0  363.96   11.50
  -5  -6   0  351.16   11.90
   5  -6   0  350.26   11.10
  -5  -6   0  363.36   11.90
   5   6   0  345.87   11.90
   5   6   0  359.76   11.20
  -5   6   0  351.66   11.80
   5   6   0  351.56   11.70
  -5   6   0  373.06   11.70
  -5   6   0  354.56   10.60
   5   6   0  376.26   11.90
  -5   6   0  359.66   11.70
  -5   6   0  355.06   11.90
  -5   6   0  358.66   11.80
   5   6   0  359.26    9.30
   5   6   0  367.26   11.50
  -5   6   0  349.37    9.90
   5   6   0  353.26   11.40
   5   6   0  348.77   11.40
  -5   6   0  359.76   11.50
  -6  -6   0  477.55   14.70
  -6  -6   0  458.05   13.80
   6  -6   0  464.25   14.10
  -6  -6   0  465.15   14.40
  -6  -6   0  477.35   13.60
   6  -6   0  485.05   14.40
   6  -6   0  487.15   13.90
  -6   6   0  460.75   12.50
  -6   6   0  481.75   14.50
  -6   6   0  481.25   14.70
   6   6   0  511.25   14.40
  -6   6   0  476.45   14.30
   6   6   0  501.85   14.80
   6   6   0  486.25   14.10
   6   6   0  493.55   11.70
  -6   6   0  473.85   14.70
  -6   6   0  480.95   14.20
  -6   6   0  497.35   13.50
   6   6   0  492.75   14.90
   6   6   0  456.65   14.60
   7  -6   0  417.76   13.70
  -7  -6   0  420.46   14.40
  -7  -6   0  407.36   12.90
  -7  -6   0  393.56   14.00
  -7  -6   0  375.56   13.10
  -7  -6   0  375.46   16.10
   7  -6   0  410.36   14.40
   7  -6   0  380.76   14.10
  -7   6   0  380.86   14.80
   7   6   0  396.36   14.40
   7   6   0  405.96   10.70
   7   6   0  389.56   14.70
  -7   6   0  405.46   14.30
   7   6   0  393.06   13.50
   7   6   0  404.56   13.60
   7   6   0  408.66   13.90
   7   6   0  393.96   14.60
  -7   6   0  420.26   12.00
  -7   6   0  385.06   13.70
  -7   6   0  377.36   14.70
  -7   6   0  404.36   13.20
  -7   6   0  412.26   14.10
  -8  -6   0   15.40    6.20
   8  -6   0   26.10    6.60
  -8  -6   0   19.60    6.10
  -8  -6   0   18.30    5.50
   8  -6   0    5.50    7.00
  -8  -6   0   24.40    6.10
   8   6   0   16.10    5.90
  -8   6   0   23.60    6.40
   8   6   0   29.00    4.30
  -8   6   0   18.60    4.70
  -8   6   0   20.20    6.40
  -8   6   0   24.20    6.10
   8   6   0   11.60    7.30
  -8   6   0   14.30    5.40
   8   6   0   24.90    6.00
   8   6   0   22.20    6.30
   9  -6   0   26.40    7.70
  -9  -6   0   32.30    7.60
  -9  -6   0   24.90    7.60
  -9  -6   0   30.00    6.50
  -9  -6   0   25.20    7.50
   9   6   0   25.70    6.70
  -9   6   0   26.40    7.10
  -9   6   0   26.70    9.80
  -9   6   0   32.10    6.60
   9   6   0   32.60    7.20
   9   6   0   37.60    5.50
   9   6   0   25.50    7.60
  -9   6   0   32.80    7.40
  10  -6   0   16.00    5.60
 -10  -6   0   34.10    9.20
 -10  -6   0   19.90    9.50
  10  -6   0   35.60    9.90
 -10  -6   0   17.70    7.60
  10   6   0   26.10    8.60
  10   6   0   18.00    8.50
 -10   6   0   25.60    7.10
 -10   6   0   24.30    8.20
 -10   6   0   29.40    8.70
  10   6   0   35.00    9.10
 -11  -6   0  129.79   13.40
 -11  -6   0  118.49   11.40
  11  -6   0  110.89   13.80
 -11  -6   0  107.69   12.90
  11   6   0  112.89   12.50
 -11   6   0  128.29   11.10
 -11   6   0   95.39   12.20
  11   6   0  119.39   12.50
 -11   6   0  119.19   12.90
   0  -7   0    4.50    3.80
   0  -7   0   -1.00    3.10
   0  -7   0   -0.60    2.70
   0  -7   0    1.50    2.80
   0  -7   0    0.40    3.30
   0  -7   0   -2.90    3.30
   0  -7   0   -1.30    3.50
   0  -7   0   -1.00    3.00
   0   7   0    5.60    3.40
   0   7   0   -1.80    3.50
   0   7   0    5.60    3.50
   0   7   0    2.00    3.00
   0   7   0   -0.10    3.60
   0   7   0    1.10    3.20
  -1  -7   0  711.83   17.40
   1  -7   0  687.93   17.60
   1  -7   0  710.23   17.60
  -1  -7   0  713.83   17.60
  -1  -7   0  706.23   17.70
   1  -7   0  712.63   17.30
   1  -7   0  715.63   17.50
  -1  -7   0  701.53   17.50
  -1  -7   0  732.53   17.40
   1  -7   0  707.13   17.80
   1  -7   0  722.63   16.40
  -1  -7   0  725.93   15.90
   1  -7   0  713.43   16.20
   1  -7   0  738.03   19.90
  -1  -7   0  723.13   17.30
   1   7   0  718.03   17.20
   1   7   0  737.63   17.40
   1   7   0  727.03   17.70
  -1   7   0  736.13   16.90
  -1   7   0  730.83   17.50
   1   7   0  710.53   16.20
   1   7   0  701.33   17.50
   1   7   0  753.42   16.70
  -1   7   0  709.13   17.30
  -1   7   0  710.23   17.60
   1   7   0  714.93   17.30
  -1   7   0  740.13   17.50
  -1   7   0  731.53   17.60
  -2  -7   0   88.59    7.00
  -2  -7   0   88.89    7.20
   2  -7   0   82.89    5.70
   2  -7   0   94.79    6.90
   2  -7   0   88.69    7.20
   2  -7   0  100.29    7.50
   2  -7   0   91.79    6.30
   2  -7   0   92.69    6.90
  -2  -7   0   85.79    7.30
   2   7   0   81.69    6.70
   2   7   0   79.39    6.80
   2   7   0   87.39    5.50
   2   7   0   89.19    6.40
   2   7   0   85.79    7.00
   2   7   0   69.19    7.10
  -2   7   0   86.49    7.00
  -2   7   0   78.49    6.70
  -2   7   0   91.59    7.40
   2   7   0   90.69    7.50
  -2   7   0   82.69    6.70
  -2   7   0   84.79    7.00
   3  -7   0  110.49    7.70
   3  -7   0  103.69    6.50
   3  -7   0   97.39    7.20
  -3  -7   0   99.19    7.60
   3  -7   0  105.19    7.80
  -3  -7   0  108.09    7.40
  -3  -7   0  100.69    8.00
  -3  -7   0  113.49    7.70
   3  -7   0  104.69    6.90
  -3   7   0  109.79    7.70
  -3   7   0   95.09    7.50
  -3   7   0   97.09    7.80
  -3   7   0  102.69    7.50
   3   7   0  114.19    8.30
   3   7   0  108.89    7.20
   3   7   0  102.29    5.60
   3   7   0   96.39    7.30
   3   7   0  105.49    8.00
  -3   7   0  109.09    7.40
   3   7   0  105.19    7.50
   3   7   0   92.99    7.20
   4  -7   0  999.10   22.60
   4  -7   0  964.00   22.40
   4  -7   0  963.90   22.30
  -4  -7   0  950.50   22.80
  -4  -7   0  978.60   23.00
   4  -7   0  997.30   21.60
  -4  -7   0  994.90   22.40
   4  -7   0  978.20   22.80
  -4  -7   0  984.00   23.00
   4   7   0 1031.70   23.40
  -4   7   0 1024.30   23.00
  -4   7   0  978.80   22.60
  -4   7   0  950.50   22.80
   4   7   0  928.91   22.70
   4   7   0  970.00   22.20
   4   7   0 1001.20   22.50
   4   7   0  997.00   22.60
  -4   7   0 1005.80   22.70
   4   7   0  979.60   22.30
   4   7   0  996.10   20.40
  -4   7   0  967.00   22.80
   5  -7   0   24.30    5.10
   5  -7   0   37.60    5.10
  -5  -7   0   31.80    5.30
  -5  -7   0   23.40    5.30
   5  -7   0   44.40    6.10
   5  -7   0   31.30    5.20
  -5  -7   0   33.10    5.60
   5  -7   0   20.20    4.70
  -5  -7   0   36.50    5.80
  -5   7   0   18.50    5.10
  -5   7   0   31.70    5.40
   5   7   0   39.80    5.50
  -5   7   0   32.60    5.60
  -5   7   0   33.70    5.00
   5   7   0   26.20    4.60
  -5   7   0   36.00    4.40
   5   7   0   30.40    5.50
   5   7   0   29.90    6.00
   5   7   0   35.40    4.10
   5   7   0   21.30    4.90
  -5   7   0   42.80    5.00
  -5   7   0   28.40    5.10
   5   7   0   28.60    5.20
   6  -7   0  194.88   11.60
  -6  -7   0  195.48   10.80
   6  -7   0  194.38   12.20
  -6  -7   0  194.38   11.00
   6  -7   0  199.18   10.30
   6  -7   0  190.08    9.70
   6  -7   0  181.28   11.10
  -6  -7   0  185.08    9.90
  -6  -7   0  179.98   11.00
  -6   7   0  194.48    8.60
  -6   7   0  200.68   10.60
  -6   7   0  213.08   11.30
   6   7   0  186.08    7.60
  -6   7   0  183.78    9.80
   6   7   0  178.08   12.10
   6   7   0  183.18   11.30
  -6   7   0  189.28   12.00
   6   7   0  199.38   10.60
  -6   7   0  172.58   14.00
  -6   7   0  190.28   12.40
  -6   7   0  188.38   11.70
   6   7   0  187.28   11.40
   6   7   0  188.08   12.40
   6   7   0  179.98   10.60
   7  -7   0   49.00    6.90
   7  -7   0   35.90    7.60
  -7  -7   0   40.10    7.70
  -7  -7   0   61.09    7.90
  -7  -7   0   44.60    7.40
   7  -7   0   50.99    6.40
  -7  -7   0   52.19    7.30
  -7   7   0   44.20    6.60
  -7   7   0   40.50    8.10
  -7   7   0   54.59    7.60
   7   7   0   57.69    7.80
   7   7   0   47.50    4.80
  -7   7   0   44.00    5.50
  -7   7   0   42.20    7.90
   7   7   0   53.29    8.00
  -7   7   0   51.79    7.00
   7   7   0   47.70    6.80
  -7   7   0   48.60    7.00
   7   7   0   45.20    8.40
   8  -7   0   28.70    7.70
  -8  -7   0   16.10    7.10
  -8  -7   0   35.60    6.60
   8  -7   0   17.60    6.30
   8  -7   0   18.30    8.70
  -8  -7   0   29.90    7.40
  -8   7   0   32.10   10.00
   8   7   0   15.90    6.70
  -8   7   0   15.00    8.40
  -8   7   0   16.90    6.40
   8   7   0   24.30    4.90
  -8   7   0   18.70    7.00
  -8   7   0   16.50    7.40
  -8   7   0   32.00    5.70
   8   7   0   28.00    7.00
   8   7   0   30.60    6.90
  -9  -7   0  251.47   14.60
   9  -7   0  249.28   16.30
  -9  -7   0  231.88   17.20
  -9  -7   0  256.37   16.50
   9   7   0  244.68   15.90
  -9   7   0  235.18   15.20
  -9   7   0  231.58   13.20
   9   7   0  221.88   15.60
  -9   7   0  238.88   20.20
   9   7   0  243.78   10.70
   9   7   0  231.28   15.70
  -9   7   0  241.28   15.40
 -10  -7   0    0.70    8.30
  10  -7   0   11.70   10.70
 -10  -7   0   -5.50    9.70
 -10  -7   0    2.10    9.50
 -10   7   0   16.80    9.20
 -10   7   0    6.20    9.60
  10   7   0   -2.30    9.30
  10   7   0   11.50    9.70
 -10   7   0    4.90    7.60
  10   7   0  -23.50    9.00
   0  -8   0   96.99    8.10
   0  -8   0   94.69    7.40
   0  -8   0   98.09    6.70
   0  -8   0   95.29    6.60
   0  -8   0   90.79    8.50
   0  -8   0   99.59    8.10
   0  -8   0  100.59    8.00
   0   8   0   89.89    8.60
   0   8   0  123.59    8.40
   0   8   0   97.39    6.80
   0   8   0   89.49    7.00
   0   8   0   96.79    8.50
   0   8   0   93.09    7.90
   0   8   0   95.19    8.50
  -1  -8   0   53.79    4.90
   1  -8   0   55.79    6.20
  -1  -8   0   57.59    5.90
   1  -8   0   69.39    6.40
  -1  -8   0   51.19    5.90
  -1  -8   0   48.30    5.60
   1  -8   0   53.79    5.50
   1  -8   0   55.09    6.20
  -1  -8   0   51.09    5.60
  -1  -8   0   60.29    5.90
   1  -8   0   50.99    4.90
   1   8   0   39.80    5.80
   1   8   0   51.49    5.10
  -1   8   0   50.49    6.00
   1   8   0   43.90    5.20
  -1   8   0   51.19    6.00
  -1   8   0   51.29    5.80
   1   8   0   47.60    5.70
   1   8   0   62.49    6.10
  -1   8   0   52.49    5.70
   1   8   0   59.69    5.20
   1   8   0   59.29    5.90
  -1   8   0   41.20    5.30
  -2  -8   0    9.60    4.50
   2  -8   0   13.80    4.50
   2  -8   0    8.00    4.60
  -2  -8   0   13.90    4.60
   2  -8   0    7.90    4.30
   2  -8   0    7.00    5.00
   2  -8   0    8.80    3.90
   2  -8   0   12.20    4.40
  -2  -8   0   13.30    4.40
  -2   8   0   12.50    4.50
   2   8   0   12.80    4.20
   2   8   0   12.10    3.80
   2   8   0    9.20    4.30
  -2   8   0    7.20    4.80
  -2   8   0   11.20    4.30
   2   8   0    8.80    4.50
   2   8   0   11.60    4.50
   2   8   0    2.00    4.90
  -2   8   0   12.50    5.20
  -2   8   0   13.90    4.70
   2   8   0    9.00    5.00
   3  -8   0   22.00    5.50
  -3  -8   0   32.40    5.60
  -3  -8   0   17.50    4.90
  -3  -8   0   18.10    5.80
   3  -8   0   18.10    4.40
   3  -8   0   24.50    4.80
   3  -8   0   17.60    5.00
  -3  -8   0   24.60    5.30
   3   8   0   22.40    5.20
   3   8   0   15.60    5.90
   3   8   0   21.20    4.70
  -3   8   0   21.70    5.20
   3   8   0   22.20    5.70
  -3   8   0   12.80    4.90
  -3   8   0   33.50    6.10
  -3   8   0   24.10    5.10
  -3   8   0   27.00    5.20
   3   8   0   21.80    4.00
   3   8   0   21.90    5.90
   3   8   0   22.30    4.80
   4  -8   0   48.70    6.60
  -4  -8   0   47.80    6.50
  -4  -8   0   46.70    6.30
  -4  -8   0   46.10    5.70
   4  -8   0   52.69    7.20
  -4  -8   0   47.50    6.70
   4  -8   0   29.00    5.80
   4  -8   0   53.39    5.70
   4   8   0   50.39    7.00
  -4   8   0   63.49    6.80
  -4   8   0   64.59    7.30
   4   8   0   52.39    4.70
  -4   8   0   58.29    6.80
   4   8   0   39.20    6.10
   4   8   0   54.99    6.40
   4   8   0   50.09    6.30
  -4   8   0   61.49    7.20
   4   8   0   27.10    5.70
  -4   8   0   59.09    7.10
  -5  -8   0   94.39    8.10
  -5  -8   0   86.09    7.80
   5  -8   0   76.69    8.00
   5  -8   0   64.09    7.30
   5  -8   0   86.89    9.00
   5  -8   0  103.39    8.90
  -5  -8   0   74.89    8.00
  -5  -8   0  100.49    8.90
  -5   8   0   84.49    8.50
  -5   8   0   99.09   10.00
   5   8   0   81.99    7.50
   5   8   0   86.59    8.30
  -5   8   0   95.89    7.80
   5   8   0   94.99    9.70
  -5   8   0   87.19    7.60
  -5   8   0   94.29    8.40
  -5   8   0  100.69    8.80
   5   8   0   83.09    9.00
   5   8   0   99.99    8.80
   5   8   0   78.49    8.40
   5   8   0   88.99    6.60
  -6  -8   0   77.39    7.90
   6  -8   0   77.39    9.70
  -6  -8   0   87.09    7.80
   6  -8   0   84.69    7.90
   6  -8   0   86.39    9.20
   6   8   0   84.69    7.00
   6   8   0   90.49    8.30
  -6   8   0   91.99    9.80
  -6   8   0   89.79    8.80
   6   8   0   67.69    8.30
  -6   8   0   81.29    6.60
  -6   8   0   69.09    8.30
   6   8   0   90.79    8.20
   6   8   0   81.39    9.50
  -6   8   0   83.59    8.40
  -7  -8   0   52.69    7.70
  -7  -8   0   48.30    8.40
   7  -8   0   25.50    8.40
   7  -8   0   50.89   10.50
  -7  -8   0   47.60    8.50
   7  -8   0   49.50    9.40
  -7   8   0   40.60   10.50
   7   8   0   45.70    7.80
  -7   8   0   46.20    8.20
  -7   8   0   31.80    9.50
  -7   8   0   33.20    7.70
  -7   8   0   39.20    6.10
   7   8   0   35.70    5.20
  -7   8   0   48.90    9.00
   7   8   0   42.50    7.10
  -8  -8   0    6.90    8.70
   8  -8   0   -6.70    8.20
  -8  -8   0    3.70    8.10
   8  -8   0    8.90    8.80
  -8  -8   0   -7.40    7.60
  -8   8   0   -0.20    7.80
  -8   8   0    5.50    6.00
  -8   8   0  -11.50    7.90
   8   8   0   -1.90    8.00
   8   8   0    0.10    5.10
  -8   8   0    9.50    8.00
   8   8   0  -16.20    8.00
  -8   8   0   11.70   11.00
  -9  -8   0   10.20   10.00
  -9  -8   0   -2.00    8.60
  -9  -8   0   15.30   10.50
   9  -8   0   14.50    9.60
   9   8   0    6.50    9.60
  -9   8   0   15.30    9.70
   9   8   0   13.40   10.20
  -9   8   0   -5.80    7.50
  -9   8   0   16.40    9.80
   0  -9   0    1.40    5.40
   0  -9   0    0.30    6.30
   0  -9   0    1.00    5.10
   0  -9   0    1.20    4.20
   0  -9   0    6.30    5.50
   0  -9   0    2.50    5.30
   0  -9   0   -3.40    5.30
   0  -9   0    2.20    4.40
   0   9   0   -0.10    5.90
   0   9   0   -2.60    4.70
   0   9   0   -0.50    4.60
   0   9   0   -5.80    5.40
   0   9   0   -2.20    4.80
   0   9   0    7.80    5.20
   0   9   0   -4.20    6.00
   1  -9   0   28.00    5.10
  -1  -9   0   30.60    6.10
  -1  -9   0   26.80    6.20
   1  -9   0   11.50    6.10
  -1  -9   0    3.90    6.00
  -1  -9   0   20.30    6.40
  -1  -9   0   34.80    6.30
   1  -9   0   25.40    6.30
   1  -9   0   24.10    6.00
  -1  -9   0   17.50    5.00
   1  -9   0   21.50    5.80
   1  -9   0   24.00    6.80
  -1  -9   0   19.60    7.00
   1   9   0   32.40    7.00
  -1   9   0   28.20    5.50
   1   9   0   29.30    6.10
   1   9   0   30.40    5.30
  -1   9   0   24.40    7.10
   1   9   0   20.90    6.30
   1   9   0   12.40    6.80
  -1   9   0   23.60    5.70
  -1   9   0   24.90    6.50
  -1   9   0   32.10    7.00
   1   9   0   26.80    5.80
   1   9   0   20.70    5.20
  -2  -9   0  274.97   13.10
  -2  -9   0  302.97   13.10
   2  -9   0  268.57   13.90
  -2  -9   0  280.17   11.30
   2  -9   0  291.37   10.90
   2  -9   0  259.27   11.90
   2  -9   0  305.17   13.70
   2  -9   0  256.37   13.70
  -2  -9   0  302.27   13.20
   2  -9   0  252.97   13.40
   2   9   0  269.07   14.30
  -2   9   0  287.17   12.80
  -2   9   0  282.67   13.00
   2   9   0  303.37   13.10
  -2   9   0  288.67   14.10
  -2   9   0  298.27   12.40
   2   9   0  259.17   13.40
   2   9   0  296.57   10.70
   2   9   0  295.27   13.80
  -2   9   0  291.47   15.10
   2   9   0  277.07   14.70
  -3  -9   0  165.48   11.50
  -3  -9   0  167.68   11.50
   3  -9   0  149.79   12.00
  -3  -9   0  170.28   12.00
   3  -9   0  157.28    9.80
   3  -9   0  160.68   12.40
   3  -9   0  169.38   12.10
   3  -9   0  138.59   12.10
  -3   9   0  168.08   11.80
   3   9   0  172.98   11.60
   3   9   0  150.08   12.50
   3   9   0  150.58   14.00
  -3   9   0  171.18   11.60
   3   9   0  162.68    8.70
  -3   9   0  165.58   11.10
  -3   9   0  137.99   13.30
   3   9   0  147.59   12.10
   3   9   0  152.18   11.60
  -3   9   0  146.39   13.10
  -4  -9   0  131.19   12.90
  -4  -9   0  131.79   11.90
  -4  -9   0  124.89    9.50
   4  -9   0  101.49    9.50
   4  -9   0  107.49    9.90
   4  -9   0  124.99   10.10
  -4   9   0  124.59   11.40
   4   9   0  117.29   11.60
  -4   9   0   87.39    9.00
  -4   9   0  128.29   11.50
   4   9   0  121.89    8.10
   4   9   0  128.69   11.20
  -4   9   0  121.79   11.80
   4   9   0  125.69   11.30
   4   9   0  123.79   10.60
   5  -9   0   57.09    9.20
  -5  -9   0   64.59    7.90
   5  -9   0   66.39    7.40
  -5  -9   0   55.09    8.50
  -5  -9   0   45.10    8.20
   5   9   0   56.89    7.60
   5   9   0   64.59    6.00
   5   9   0   70.59    8.50
  -5   9   0   53.39    7.80
  -5   9   0   50.19    8.40
  -5   9   0   63.69   10.20
  -5   9   0   66.59    6.60
  -5   9   0   56.19    7.50
  -6  -9   0   65.89    9.40
  -6  -9   0   68.09    9.80
   6  -9   0   37.10    9.20
  -6  -9   0   53.49    8.20
  -6   9   0   41.40    7.90
  -6   9   0   40.50   10.10
  -6   9   0   56.19    9.40
  -6   9   0   57.89    8.30
   6   9   0   58.19    8.30
  -6   9   0   71.99    7.10
   6   9   0   75.59    9.50
   6   9   0   61.49    6.20
   7  -9   0   70.09    9.70
  -7  -9   0   76.69   10.20
  -7  -9   0   71.69   10.80
  -7  -9   0   81.59   11.20
   7   9   0   62.79   10.00
  -7   9   0   92.69   10.60
  -7   9   0   73.79    7.70
  -7   9   0   63.09   10.00
   7   9   0   61.99   10.20
   7   9   0   79.39    7.00
  -7   9   0   95.49   11.90
   8  -9   0   15.90   10.50
  -8  -9   0   26.60   11.20
  -8  -9   0   19.30    9.60
  -8  -9   0   24.30   10.40
  -8   9   0   24.50   10.40
  -8   9   0   21.90    8.00
  -8   9   0   21.80   11.30
   8   9   0   24.30   10.30
   8   9   0   46.50   11.40
  -8   9   0   41.10   10.50
   0 -10   0  222.38   11.40
   0 -10   0  225.18   14.20
   0 -10   0  213.88   12.30
   0 -10   0  188.18   15.40
   0 -10   0  198.58   13.90
   0  10   0  212.08   13.80
   0  10   0  229.68   14.00
   0  10   0  197.48   17.20
   0  10   0  198.88   13.00
   0  10   0  216.28   11.70
   1 -10   0   56.59    7.90
  -1 -10   0   49.10    8.10
  -1 -10   0   49.20    6.70
   1 -10   0   49.90    9.20
  -1 -10   0   47.20    8.10
   1 -10   0   48.20    6.70
   1 -10   0   44.40    7.70
  -1  10   0   49.70    7.70
   1  10   0   56.19    8.20
   1  10   0   51.79    8.00
  -1  10   0   55.89    8.10
   1  10   0   28.20    9.30
   1  10   0   56.79    8.30
  -1  10   0   32.20    8.90
   1  10   0   50.19    6.80
  -1  10   0   55.29    7.90
   2 -10   0   42.10    9.60
  -2 -10   0   37.10    8.20
   2 -10   0   39.40    6.50
   2 -10   0   31.10    8.20
  -2 -10   0   48.70    8.40
  -2 -10   0   44.00    7.90
   2  10   0   45.20   16.50
   2  10   0   47.90    7.90
   2  10   0   40.80    6.50
  -2  10   0   46.90    8.10
   2  10   0   39.70    8.00
  -2  10   0   39.80    8.00
  -2  10   0   39.90    7.70
  -2  10   0   16.90    8.70
   2  10   0   37.90    7.80
  -3 -10   0  186.48   14.90
   3 -10   0  100.19   11.00
  -3 -10   0  135.69   13.30
   3 -10   0  143.19   11.40
  -3 -10   0  159.58   14.00
   3  10   0  154.58    9.90
  -3  10   0  156.78   14.20
  -3  10   0  163.98   14.30
   3  10   0  157.08   13.60
  -3  10   0  139.09   13.50
  -3  10   0  143.49   13.00
   3  10   0  168.68   14.40
  -4 -10   0   18.10    8.00
  -4 -10   0    9.20    8.90
  -4 -10   0   15.10    8.10
   4  10   0   14.10    7.70
   4  10   0   14.90    5.90
  -4  10   0   11.40    8.20
   4  10   0   20.60    8.70
  -4  10   0   11.00    7.70
  -4  10   0   23.50    8.40
  -5 -10   0  192.38   17.10
  -5 -10   0  188.58   15.60
   5 -10   0  174.58   14.00
  -5 -10   0  185.98   17.40
   5  10   0  165.38   15.40
  -5  10   0  167.88   12.00
  -5  10   0  168.88   12.70
   5  10   0  155.78   10.70
   5  10   0  157.38   16.40
  -5  10   0  157.88   12.20
  -5  10   0  194.28   17.20
  -6 -10   0   18.10   10.40
   6 -10   0   15.00    8.90
  -6 -10   0   33.80   10.60
  -6 -10   0   15.50    9.40
  -6  10   0   36.40   10.60
  -6  10   0   26.70    7.40
  -6  10   0   20.80    9.60
   6  10   0   14.60    9.70
   6  10   0   20.70    9.80
  -6  10   0   15.80   11.10
  -7 -10   0   39.30   11.90
   7 -10   0   13.70   10.60
  -7 -10   0   42.70   12.20
  -7 -10   0   31.00   10.90
   7  10   0   46.20   12.30
  -7  10   0   36.80   12.90
  -7  10   0   30.20   10.90
  -7  10   0   24.80   11.70
  -7  10   0   36.50    8.90
   0 -11   0    8.50    7.20
   0 -11   0    1.80    9.20
   0  11   0   -9.40   16.90
   0  11   0   -1.50    7.50
   0  11   0    2.20    8.50
  -1 -11   0   28.80   10.10
   1 -11   0   23.30    7.20
  -1 -11   0   14.70    8.10
  -1 -11   0   29.00    7.70
   1 -11   0   16.80    9.80
  -1 -11   0   27.10    9.30
   1  11   0   27.50    9.00
  -1  11   0   14.20    9.50
   1  11   0    7.00   13.50
  -1  11   0   14.70    8.50
   1  11   0    6.70    7.50
  -1  11   0   14.50    8.90
   2 -11   0   37.00    7.90
  -2 -11   0   39.90   10.50
  -2 -11   0   36.40    8.40
  -2 -11   0   25.60   10.40
  -2 -11   0   24.10   10.10
   2  11   0   34.00   16.30
  -2  11   0   33.30    9.70
   2  11   0   27.70    9.90
  -2  11   0   42.10    9.80
  -2  11   0   32.80    9.80
  -3 -11   0   31.40   10.70
   3 -11   0    8.00    7.80
  -3 -11   0   20.00   10.70
  -3 -11   0   16.20    8.80
  -3 -11   0    4.90    9.80
  -3  11   0   23.30   10.10
   3  11   0   32.50   10.20
  -3  11   0    1.10    9.40
   3  11   0   22.50    7.80
  -3  11   0   25.10   10.00
  -4 -11   0   23.30   10.50
   4 -11   0   36.40    9.50
  -4 -11   0   23.60   11.10
  -4 -11   0   16.60   10.20
   4  11   0   33.10   10.70
  -4  11   0   43.70   10.90
  -4  11   0   17.10    8.00
   4  11   0   17.70   10.80
  -4  11   0   45.60   11.50
   4  11   0   38.70    8.70
  -4  11   0   17.50   11.30
   5 -11   0   -3.70   10.10
  -5 -11   0   -1.90   10.90
  -5 -11   0   12.50   12.00
  -5 -11   0   -1.70   11.20
   5  11   0   -2.10   12.30
  -5  11   0  -17.00   11.50
   5  11   0  -13.10   11.50
  -5  11   0   15.10    8.70
  -5  11   0   -7.10   11.10
  -5  11   0   13.40   11.50
   0 -12   0   38.50   10.10
   0  12   0   59.39   13.60
   0  12   0   61.99   13.30
   0  12   0   68.39   11.60
  -1 -12   0   14.70   16.30
  -1  12   0  -15.50   12.60
   1  12   0    1.10   12.20
  -1  12   0   -5.80   12.10
 -13   0   1   36.40    9.80
 -13   0   1   49.70   10.40
 -13   0   1   44.40   11.30
 -12   0   1   16.30    8.20
  12   0  -1   10.60    5.30
 -12   0   1    1.90    7.20
 -12   0   1   10.90    7.50
  11   0  -1   13.10    4.30
  11   0  -1    5.90    6.60
 -11   0   1    5.30    5.70
 -11   0   1   19.50    6.50
 -11   0   1   19.50    6.20
  10   0  -1  240.88   11.90
  10   0  -1  222.48   11.40
 -10   0   1  234.48   11.10
  10   0  -1  250.27   12.10
 -10   0   1  254.27   11.00
 -10   0   1  241.08   10.90
  10   0  -1  247.68    8.10
  10   0  -1  245.28   10.60
 -10   0   1  222.98   12.40
   9   0  -1  180.28    8.30
  -9   0   1  191.78    8.90
   9   0  -1  182.58    8.90
  -9   0   1  168.68    9.70
   9   0  -1  188.28    6.40
   9   0  -1  167.48    9.10
  -9   0   1  182.18    8.80
  -9   0   1  188.18    8.70
   8   0  -1  775.52   17.70
  -8   0   1  733.43   17.50
   8   0  -1  765.72   17.60
  -8   0   1  776.32   17.90
  -8   0   1  746.83   18.40
   8   0  -1  763.52   17.50
  -8   0   1  738.13   17.50
   8   0  -1  731.93   17.00
   8   0  -1  767.42   15.50
  -7   0   1    1.40    2.50
   7   0  -1    3.40    2.40
  -7   0   1    3.20    2.50
   7   0  -1    0.10    2.40
  -7   0   1    0.60    2.30
  -7   0   1    3.60    3.20
   7   0  -1    0.40    1.80
   7   0  -1    3.10    2.60
   7   0  -1   -2.20    2.30
   6   0  -1   41.60    3.80
  -6   0   1   35.80    3.50
   6   0  -1   45.30    2.70
  -6   0   1   40.70    3.90
   6   0  -1   46.90    4.00
  -6   0   1   42.70    4.00
   6   0  -1   51.69    3.70
  -6   0   1   43.70    3.90
   6   0  -1   48.40    4.00
  -5   0   1  292.17    7.70
   5   0  -1  307.47    7.80
  -5   0   1  296.67    7.70
  -5   0   1  305.47    7.80
   5   0  -1  314.17    6.60
   5   0  -1  302.37    7.50
  -5   0   1  311.27    8.30
   5   0  -1  306.67    7.70
   5   0  -1  312.57    7.70
  -4   0   1 1954.40   35.60
  -4   0   1 1822.82   34.90
   4   0  -1 1927.71   35.10
  -4   0   1 1882.31   34.80
   4   0  -1 1928.91   34.90
  -4   0   1 1881.61   35.10
   4   0  -1 1907.91   35.00
  -4   0   1 1851.91   35.00
   4   0  -1 1913.81   35.00
   4   0  -1 1892.71   34.00
  -3   0   1  522.35   10.70
  -3   0   1  532.85   10.50
  -3   0   1  532.15   10.60
   3   0  -1  527.35    9.80
   3   0  -1  529.25   10.60
   3   0  -1  536.05   10.60
   3   0  -1  531.15   10.50
  -3   0   1  529.85    9.70
   3   0  -1  543.85   10.80
  -3   0   1  538.05   11.00
  -3   0   1  515.85   10.60
   2   0  -1  114.19    2.90
   2   0  -1  116.99    2.90
  -2   0   1  116.79    2.30
  -2   0   1  119.39    3.10
  -2   0   1  116.09    2.90
   2   0  -1  115.89    3.10
  -2   0   1  110.79    2.90
   2   0  -1  125.99    2.90
  -2   0   1  114.19    2.90
   2   0  -1  120.69    2.40
  -1   0  -1  304.57    6.10
   1   0   1  305.77    6.20
  -1   0  -1  299.97    6.00
  -1   0  -1  297.57    5.90
  -1   0  -1  298.57    6.00
  -1   0  -1  303.17    6.00
   1   0   1  301.87    6.00
   1   0   1  301.67    6.00
   1   0   1  309.67    5.90
   1   0   1  301.67    6.00
   2   0   1  266.87    5.90
   2   0   1  255.07    5.60
  -2   0  -1  258.47    6.10
   2   0   1  266.57    6.20
  -2   0  -1  260.27    5.70
  -2   0  -1  265.97    5.90
  -2   0  -1  258.07    5.80
   2   0   1  261.97    5.60
   2   0   1  250.57    5.80
  -2   0  -1  263.67    5.60
  -3   0  -1  165.68    4.50
   3   0   1  168.28    4.30
   3   0   1  169.68    4.50
  -3   0  -1  173.28    4.80
   3   0   1  162.48    5.10
   3   0   1  166.88    4.80
  -3   0  -1  159.78    4.70
  -3   0  -1  173.98    5.00
   3   0   1  164.08    4.70
   4   0   1 2520.65   45.80
   4   0   1 2541.95   45.90
   4   0   1 2546.35   45.50
  -4   0  -1 2454.45   45.50
  -4   0  -1 2458.75   45.80
   4   0   1 2469.35   46.30
  -4   0  -1 2473.95   45.90
   4   0   1 2447.16   45.10
  -5   0  -1  483.75   11.10
   5   0   1  485.85   11.00
  -5   0  -1  494.15   11.50
   5   0   1  490.55   11.40
   5   0   1  491.65   10.60
   5   0   1  462.45   11.90
   5   0   1  498.35   11.40
  -5   0  -1  488.75   11.40
  -5   0  -1  479.05   11.70
   5   0   1  500.35   11.40
  -6   0  -1   18.70    3.00
  -6   0  -1   26.80    3.30
  -6   0  -1   26.30    3.70
  -6   0  -1   21.60    2.90
   6   0   1   26.50    2.70
   6   0   1   21.90    3.10
   6   0   1   22.20    2.80
   6   0   1   24.10    3.70
   6   0   1   20.00    2.70
   7   0   1  813.32   18.30
  -7   0  -1  808.32   18.60
  -7   0  -1  818.22   19.00
  -7   0  -1  808.32   18.50
   7   0   1  829.72   18.50
   7   0   1  817.72   17.90
   7   0   1  820.92   17.10
  -7   0  -1  805.92   18.10
   8   0   1  480.65   13.90
   8   0   1  479.45   13.10
   8   0   1  495.35   13.40
  -8   0  -1  494.15   13.80
   8   0   1  500.75   12.10
   8   0   1  505.55   13.90
  -8   0  -1  514.05   13.50
  -8   0  -1  510.35   13.80
   9   0   1   87.99    6.40
   9   0   1   55.09    6.10
  -9   0  -1   82.19    7.80
  -9   0  -1   80.49    8.30
   9   0   1   82.09    8.20
   9   0   1   79.29    6.90
  -9   0  -1   87.29    7.00
   9   0   1   84.19    8.60
 -10   0  -1   57.99    6.70
  10   0   1   37.30    6.70
  10   0   1   41.00    6.60
  10   0   1   49.70    7.20
 -10   0  -1   48.70    6.90
  10   0   1   59.79    5.50
 -10   0  -1   53.99    7.10
 -11   0  -1    4.80    7.20
  11   0   1   13.00    4.80
 -11   0  -1   -2.00    6.10
 -11   0  -1    3.20    6.70
 -12   0  -1   49.99    9.80
 -12   0  -1   48.40    9.30
 -12   0  -1   21.90    9.20
  12   0   1   33.20    6.80
 -13  -1   1   34.60   10.60
 -13  -1   1   31.00    9.50
 -13  -1   1   34.90   10.20
 -13  -1   1   38.40   10.90
 -13   1   1   31.00   11.40
 -13   1   1   49.00   10.70
 -13   1   1   31.40   10.40
 -12  -1   1  119.59   10.70
  12  -1  -1  116.59    8.30
 -12  -1   1  130.59   13.80
 -12  -1   1  140.79   14.00
 -12  -1   1  138.59   10.70
 -12   1   1  117.29   10.00
  12   1  -1  118.39   11.40
  12   1  -1  106.49    9.60
 -12   1   1  135.59   13.70
 -12   1   1  123.59   10.90
 -11  -1   1  433.96   15.50
  11  -1  -1  367.36   15.30
 -11  -1   1  437.06   16.00
 -11  -1   1  437.86   15.40
  11  -1  -1  413.16   11.10
 -11   1   1  440.06   15.60
 -11   1   1  458.15   15.80
 -11   1   1  450.15   15.90
  11   1  -1  419.56   12.40
  10  -1  -1   84.09    7.70
 -10  -1   1   58.39    6.10
  10  -1  -1   75.79    5.30
  10  -1  -1   90.49    7.70
 -10  -1   1   72.39    6.50
 -10  -1   1   72.79    8.20
  10  -1  -1   47.90    5.80
 -10  -1   1   66.49    6.30
 -10   1   1   83.69    6.90
  10   1  -1   80.39    7.90
 -10   1   1   90.59    7.40
  10   1  -1   88.39    7.80
  10   1  -1   77.19    6.40
  10   1  -1   69.69    7.30
  10   1  -1   86.39    6.70
 -10   1   1   71.59    6.80
 -10   1   1   61.99    7.40
   9  -1  -1   75.59    7.50
  -9  -1   1   79.09    7.20
   9  -1  -1   82.59    7.20
  -9  -1   1   69.49    6.80
  -9  -1   1   71.89    7.40
   9  -1  -1   85.39    4.60
  -9  -1   1   85.89    7.30
   9  -1  -1   86.69    7.70
   9   1  -1   62.69    5.80
  -9   1   1   87.39    8.40
   9   1  -1   73.59    5.50
   9   1  -1   85.29    6.60
  -9   1   1   94.69    7.60
  -9   1   1   71.29    5.80
   9   1  -1   78.49    6.10
  -9   1   1   72.79    7.20
  -8  -1   1  826.52   18.70
  -8  -1   1  802.72   18.60
   8  -1  -1  812.72   18.50
   8  -1  -1  827.42   18.50
   8  -1  -1  816.82   16.20
   8  -1  -1  837.72   18.70
   8  -1  -1  781.02   18.40
  -8  -1   1  794.42   19.70
  -8  -1   1  836.02   18.90
   8   1  -1  831.02   18.70
   8   1  -1  773.12   18.40
  -8   1   1  822.02   18.50
   8   1  -1  818.42   18.60
  -8   1   1  792.42   18.70
   8   1  -1  754.92   19.30
  -8   1   1  797.72   18.60
   8   1  -1  831.92   16.90
  -8   1   1  809.82   19.10
  -7  -1   1   62.69    5.20
   7  -1  -1   72.79    5.20
   7  -1  -1   66.69    3.20
   7  -1  -1   68.79    5.10
  -7  -1   1   64.99    5.20
  -7  -1   1   68.19    3.50
   7  -1  -1   67.29    4.90
   7  -1  -1   64.59    5.00
  -7  -1   1   61.89    6.10
  -7  -1   1   59.99    5.20
  -7   1   1   65.89    5.50
  -7   1   1   65.19    5.10
  -7   1   1   64.39    5.00
   7   1  -1   60.89    4.50
   7   1  -1   61.29    4.90
  -7   1   1   68.79    5.20
   7   1  -1   70.39    4.10
   7   1  -1   63.39    5.20
   7   1  -1   73.29    5.10
   6  -1  -1  295.17    6.50
  -6  -1   1  294.67    8.30
   6  -1  -1  272.77    8.90
   6  -1  -1  298.37    8.20
  -6  -1   1  305.17    8.30
  -6  -1   1  283.47    6.70
   6  -1  -1  300.57    8.20
  -6  -1   1  289.87    8.30
   6  -1  -1  299.17    8.30
  -6  -1   1  288.57    9.20
   6   1  -1  293.87    7.20
  -6   1   1  297.37    8.60
   6   1  -1  285.37    7.50
  -6   1   1  294.37    8.20
  -6   1   1  297.77    8.30
   6   1  -1  282.27    9.10
  -6   1   1  286.47    8.20
   6   1  -1  261.47    8.90
  -6   1   1  288.87    8.10
   6   1  -1  299.57    8.30
   5  -1  -1  879.71   18.10
  -5  -1   1  896.91   18.90
   5  -1  -1  908.01   18.70
   5  -1  -1  904.91   18.10
  -5  -1   1  903.71   17.00
  -5  -1   1  875.51   18.20
   5  -1  -1  929.01   18.20
   5  -1  -1  906.81   16.70
  -5  -1   1  910.61   18.20
  -5  -1   1  881.21   18.20
   5  -1  -1  896.01   18.10
   5   1  -1  900.31   18.10
   5   1  -1  907.81   17.30
  -5   1   1  879.21   18.10
  -5   1   1  885.11   18.10
  -5   1   1  905.11   18.20
  -5   1   1  894.21   18.40
  -5   1   1  883.11   18.10
   5   1  -1  901.11   17.60
   5   1  -1  902.61   18.20
   5   1  -1  911.91   18.20
   4  -1  -1 2192.38   40.20
  -4  -1   1 2158.58   40.20
  -4  -1   1 2182.98   40.30
   4  -1  -1 2234.68   40.20
  -4  -1   1 2130.09   40.20
  -4  -1   1 2174.18   39.30
   4  -1  -1 2174.48   40.60
   4  -1  -1 2157.68   39.00
   4  -1  -1 2214.08   40.30
   4  -1  -1 2196.88   40.20
   4   1  -1 2200.88   40.20
   4   1  -1 2186.28   39.60
  -4   1   1 2136.89   40.20
  -4   1   1 2249.87   40.40
  -4   1   1 2177.18   40.20
   4   1  -1 2235.98   40.30
  -4   1   1 2147.69   40.30
   4   1  -1 2265.27   40.20
  -4   1   1 2153.28   40.20
   4   1  -1 2196.08   39.70
   3  -1  -1 4863.11   87.29
   3  -1  -1 4951.60   87.39
   3  -1  -1 4877.01   87.29
  -3   1   1 4960.40   87.39
   3   1  -1 4901.51   87.29
   2  -1  -1 1523.55   27.70
  -2  -1   1 1558.34   27.60
   2  -1  -1 1522.15   27.70
  -2  -1   1 1542.45   27.70
  -2  -1   1 1503.25   27.70
   2  -1  -1 1535.25   27.70
  -2  -1   1 1491.75   27.90
  -2  -1   1 1517.75   27.80
   2  -1  -1 1535.55   27.90
  -2   1   1 1541.15   27.60
  -2   1   1 1483.45   27.80
  -2   1   1 1533.55   27.70
   2   1  -1 1560.94   27.70
   2   1  -1 1552.44   27.70
   2   1  -1 1533.05   27.80
   2   1  -1 1559.14   27.70
   2   1  -1 1527.35   27.10
  -2   1   1 1515.25   27.90
  -2   1   1 1489.05   27.70
  -1  -1   1  979.20   17.90
   1  -1  -1  994.50   17.70
  -1  -1   1  985.60   18.00
  -1  -1   1  983.50   18.20
  -1  -1   1  987.50   18.00
   1  -1  -1  992.90   18.00
   1  -1  -1  986.30   18.00
  -1  -1   1 1015.40   18.00
   1  -1  -1 1018.40   18.30
   1  -1  -1  988.80   18.00
   1   1  -1  988.80   18.00
   1   1  -1 1001.50   18.00
   1   1  -1  999.80   18.20
  -1   1   1  974.40   17.70
   1   1  -1 1001.80   18.00
   1   1  -1  983.30   17.90
  -1   1   1 1003.00   18.10
  -1   1   1  988.00   18.00
  -1   1   1  996.00   18.00
  -1   1   1  986.30   18.10
   0  -1  -1 1830.12   32.20
   0  -1   1 1803.52   32.20
   0  -1   1 1802.62   32.20
   0  -1  -1 1829.22   32.40
   0   1   1 1778.62   32.40
   0   1   1 1817.72   32.40
   0   1  -1 1804.42   32.40
   0   1   1 1801.72   32.30
   1  -1   1  132.89    3.50
  -1  -1  -1  132.79    3.30
  -1  -1  -1  127.19    2.90
  -1  -1  -1  128.79    3.30
   1  -1   1  129.79    3.20
  -1  -1  -1  130.99    3.30
   1  -1   1  131.29    3.20
  -1  -1  -1  133.99    3.30
   1  -1   1  129.09    3.30
   1  -1   1  129.59    3.20
   1  -1   1  128.89    2.70
   1   1   1  129.79    3.30
   1   1   1  123.79    3.30
  -1   1  -1  129.69    3.30
   1   1   1  132.19    2.90
  -1   1  -1  133.79    3.20
  -1   1  -1  130.99    3.40
   1   1   1  126.69    3.40
   1   1   1  131.59    3.30
  -1   1  -1  130.39    3.20
  -1   1  -1  131.99    2.70
   2  -1   1 2364.06   43.90
   2  -1   1 2432.76   43.30
   2  -1   1 2440.76   43.80
  -2  -1  -1 2415.66   43.30
  -2  -1  -1 2416.36   43.90
  -2  -1  -1 2437.16   43.70
  -2  -1  -1 2412.46   43.90
   2  -1   1 2424.46   43.80
  -2  -1  -1 2467.15   44.10
  -2  -1  -1 2383.56   43.80
   2   1   1 2424.16   43.70
  -2   1  -1 2434.66   43.80
  -2   1  -1 2467.25   43.90
   2   1   1 2435.06   43.80
   2   1   1 2436.66   43.80
   2   1   1 2463.65   43.90
  -2   1  -1 2397.46   43.80
  -3  -1  -1 1656.03   31.10
   3  -1   1 1667.13   31.20
   3  -1   1 1698.13   31.10
  -3  -1  -1 1663.63   31.10
  -3  -1  -1 1700.43   30.70
   3  -1   1 1702.43   31.10
  -3  -1  -1 1728.13   31.50
  -3  -1  -1 1640.14   31.20
   3  -1   1 1697.03   30.60
   3  -1   1 1659.63   31.30
   3   1   1 1660.93   31.10
  -3   1  -1 1684.73   31.20
  -3   1  -1 1633.04   31.10
  -3   1  -1 1640.44   31.10
   3   1   1 1691.93   31.20
  -3   1  -1 1664.33   30.60
   3   1   1 1638.54   30.80
   3   1   1 1690.73   31.00
  -4  -1  -1  447.16   10.30
  -4  -1  -1  445.46    9.60
  -4  -1  -1  443.76   10.10
   4  -1   1  446.66   10.20
   4  -1   1  446.56   10.20
   4  -1   1  447.46    9.60
   4  -1   1  442.96   10.60
  -4  -1  -1  445.46   10.60
   4  -1   1  442.86    9.40
   4  -1   1  431.16   10.10
  -4  -1  -1  439.36   10.20
  -4   1  -1  450.65   10.40
   4   1   1  441.96    9.90
  -4   1  -1  435.36   10.10
   4   1   1  456.65   10.30
  -4   1  -1  438.36    9.60
   4   1   1  445.46    9.70
   4   1   1  452.15   10.20
  -4   1  -1  448.06   10.20
   5  -1   1  243.28    6.70
  -5  -1  -1  246.48    7.30
   5  -1   1  250.47    7.30
  -5  -1  -1  249.78    7.30
  -5  -1  -1  254.47    7.90
  -5  -1  -1  243.38    7.30
   5  -1   1  247.78    7.30
   5  -1   1  248.78    6.30
  -5  -1  -1  242.88    6.40
   5  -1   1  234.18    7.10
   5  -1   1  241.48    7.80
  -5   1  -1  234.68    7.20
  -5   1  -1  246.18    7.60
   5   1   1  248.58    7.10
   5   1   1  250.47    7.30
   5   1   1  248.58    7.40
   5   1   1  242.18    6.60
  -5   1  -1  240.98    7.20
  -5   1  -1  239.08    6.80
  -6  -1  -1 2100.79   39.20
   6  -1   1 2128.19   40.40
  -6  -1  -1 2096.19   40.10
   6  -1   1 2085.79   39.00
   6  -1   1 1883.71   41.40
  -6  -1  -1 2126.79   40.40
   6  -1   1 2151.48   40.40
  -6  -1  -1 2132.39   40.60
   6  -1   1 2144.49   39.70
   6  -1   1 2078.39   41.10
  -6  -1  -1 2106.79   40.90
  -6   1  -1 2106.19   40.40
  -6   1  -1 2151.88   40.70
   6   1   1 2079.19   40.60
   6   1   1 2151.08   40.10
  -6   1  -1 2102.49   39.80
  -6   1  -1 2080.19   40.30
   6   1   1 2152.08   40.10
   6   1   1 2069.49   39.30
   6   1   1 2166.68   40.50
   7  -1   1 1070.19   22.80
  -7  -1  -1 1048.30   22.60
   7  -1   1 1056.69   21.20
   7  -1   1 1030.40   23.60
   7  -1   1 1041.40   22.70
  -7  -1  -1 1076.59   23.10
  -7  -1  -1 1070.69   22.90
   7  -1   1 1100.19   22.20
   7   1   1 1076.39   21.70
   7   1   1 1045.20   22.40
  -7   1  -1 1045.00   22.80
  -7   1  -1 1062.19   23.20
   7   1   1 1046.70   22.80
  -7   1  -1 1071.69   22.30
   7   1   1 1090.99   23.80
   7   1   1 1078.79   22.50
  -7   1  -1 1056.79   22.90
   8  -1   1  165.18    7.80
   8  -1   1  164.68    8.40
   8  -1   1  159.48    9.40
   8  -1   1  156.88    8.60
  -8  -1  -1  173.48    8.20
  -8  -1  -1  176.38    8.50
   8  -1   1  179.98    6.60
  -8  -1  -1  164.78    8.50
   8  -1   1  158.68    8.10
  -8   1  -1  169.78    7.80
  -8   1  -1  172.88    8.50
  -8   1  -1  167.98    9.10
   8   1   1  169.08    7.80
   8   1   1  164.58    8.50
  -8   1  -1  160.78    8.30
   8   1   1  167.08    8.70
   8   1   1  166.88    8.10
   8   1   1  165.08    6.90
   9  -1   1  132.69    6.80
  -9  -1  -1  138.19    8.70
  -9  -1  -1  129.39    9.00
  -9  -1  -1  138.59    9.10
   9  -1   1  117.09    8.70
   9  -1   1  126.29    9.60
   9  -1   1  124.69    9.60
   9   1   1  132.09    7.20
  -9   1  -1  126.29    8.20
   9   1   1  129.49    9.10
   9   1   1  138.69    9.80
   9   1   1  134.19   10.10
  -9   1  -1  140.09    9.00
   9   1   1  128.79    8.50
  -9   1  -1  145.59   10.60
  -9   1  -1  147.89    9.20
  10  -1   1  101.59    8.80
  10  -1   1   77.19    8.30
 -10  -1  -1  104.29    8.60
 -10  -1  -1   86.69    7.70
  10  -1   1   89.99    8.20
 -10  -1  -1   95.39    9.70
  10  -1   1   93.19    7.30
 -10   1  -1  102.69    8.60
 -10   1  -1  104.99    8.40
  10   1   1   94.99    8.30
  10   1   1   78.29    8.20
 -10   1  -1   93.49    9.30
  10   1   1   85.39    7.80
 -11  -1  -1   78.59    8.30
 -11  -1  -1  102.49    9.70
 -11  -1  -1   85.09    8.80
  11  -1   1   95.19    8.50
 -11  -1  -1   87.69    7.90
  11   1   1   98.99    9.30
 -11   1  -1  113.79    9.50
 -11   1  -1  100.69    9.90
 -11   1  -1   75.79    8.70
  12  -1   1    7.50    6.40
 -12  -1  -1   13.20    8.60
 -12  -1  -1    8.40    7.70
 -12  -1  -1    4.40    8.80
 -12  -1  -1   20.30    9.50
 -12   1  -1    4.60    8.10
 -12   1  -1    3.80    9.20
 -12   1  -1   13.60    9.30
  12   1   1   22.00    7.30
 -13  -2   1    2.10    9.30
 -13  -2   1   10.10    9.90
 -13  -2   1   -5.30    9.70
 -13  -2   1   20.80   11.30
 -13   2   1    4.40    9.90
 -13   2   1   24.20   10.80
 -13   2   1   12.40    9.90
 -12  -2   1   67.09    8.90
 -12  -2   1   67.09    9.80
 -12  -2   1   74.59    9.40
 -12  -2   1   63.79    9.40
 -12   2   1   77.59   10.40
  12   2  -1   71.79    7.70
 -12   2   1   70.79    9.10
 -12   2   1   65.29    9.50
  12   2  -1   67.69    9.50
 -11  -2   1  249.88   12.80
 -11  -2   1  286.97   14.20
 -11  -2   1  250.27   13.60
 -11  -2   1  245.28   13.10
  11  -2  -1  250.57    8.50
 -11   2   1  268.17   13.60
  11   2  -1  265.17   10.80
 -11   2   1  266.17   13.70
 -11   2   1  267.07   13.40
  10  -2  -1   73.89    9.80
  10  -2  -1   66.39    7.20
 -10  -2   1   60.39    6.40
  10  -2  -1   67.69    7.30
  10  -2  -1   70.29    7.50
 -10  -2   1   62.99    6.50
 -10  -2   1   70.49    6.50
  10  -2  -1   71.49    5.20
 -10  -2   1   78.29   14.20
 -10  -2   1   65.59    9.90
  10   2  -1   75.39    6.40
  10   2  -1   81.99    7.80
 -10   2   1   73.49    6.60
 -10   2   1   69.09    8.00
  10   2  -1   73.19    7.20
  10   2  -1   54.99    8.70
 -10   2   1   67.09    6.70
 -10   2   1   73.79    7.30
  -9  -2   1  474.05   14.00
   9  -2  -1  464.95   13.90
  -9  -2   1  468.65   14.00
  -9  -2   1  472.15   13.80
  -9  -2   1  442.06   11.20
   9  -2  -1  471.95   13.80
   9  -2  -1  463.75   10.60
  -9  -2   1  497.35   13.70
   9  -2  -1  459.65   13.70
  -9   2   1  462.15   13.80
   9   2  -1  462.65   12.50
  -9   2   1  446.76   13.60
   9   2  -1  476.95   12.40
  -9   2   1  450.65   14.30
  -9   2   1  471.15   13.50
   9   2  -1  469.05   14.20
  -8  -2   1  185.18    8.30
   8  -2  -1  176.38    5.60
  -8  -2   1  181.58    8.00
  -8  -2   1  180.28    7.80
   8  -2  -1  181.28    8.10
   8  -2  -1  166.98    7.90
  -8  -2   1  179.08    6.10
   8  -2  -1  169.18    8.10
  -8  -2   1  179.08    8.00
  -8   2   1  167.98    8.30
   8   2  -1  190.98    7.10
  -8   2   1  172.38    8.10
   8   2  -1  175.78    8.20
  -8   2   1  169.58    7.70
  -8   2   1  178.58    8.00
   8   2  -1  181.88    7.00
   7  -2  -1  836.62   19.30
   7  -2  -1  868.01   18.60
   7  -2  -1  861.81   18.80
   7  -2  -1  837.92   18.50
  -7  -2   1  816.32   16.90
  -7  -2   1  854.61   19.90
  -7  -2   1  862.01   18.90
   7  -2  -1  843.22   16.40
  -7  -2   1  832.62   18.60
   7  -2  -1  854.31   18.40
  -7  -2   1  821.62   18.60
  -7  -2   1  816.12   18.40
   7   2  -1  824.82   17.60
  -7   2   1  846.02   18.70
   7   2  -1  857.71   18.70
   7   2  -1  846.32   18.60
  -7   2   1  841.42   18.60
  -7   2   1  850.71   18.70
  -7   2   1  839.02   18.70
   7   2  -1  856.31   18.70
   7   2  -1  835.32   17.50
  -7   2   1  831.22   18.40
   6  -2  -1 1760.42   34.80
  -6  -2   1 1764.02   34.40
   6  -2  -1 1862.71   34.40
  -6  -2   1 1750.02   34.40
   6  -2  -1 1725.53   32.50
  -6  -2   1 1761.32   33.10
  -6  -2   1 1785.22   34.40
   6  -2  -1 1774.22   35.90
   6  -2  -1 1808.12   34.20
  -6  -2   1 1773.62   35.40
   6  -2  -1 1785.42   34.30
  -6  -2   1 1749.82   34.20
   6   2  -1 1784.22   34.30
   6   2  -1 1802.62   33.70
   6   2  -1 1834.52   34.50
   6   2  -1 1794.62   34.60
  -6   2   1 1756.22   34.40
  -6   2   1 1756.12   34.30
  -6   2   1 1796.92   34.60
  -6   2   1 1787.02   34.40
   6   2  -1 1758.02   33.40
  -6   2   1 1781.72   34.20
   5  -2  -1  141.89    5.40
  -5  -2   1  139.89    4.50
  -5  -2   1  140.29    5.20
   5  -2  -1  150.28    5.30
  -5  -2   1  142.69    5.30
   5  -2  -1  133.09    5.60
   5  -2  -1  148.39    5.30
  -5  -2   1  137.29    5.30
   5  -2  -1  144.09    5.10
  -5  -2   1  139.69    5.30
  -5   2   1  143.99    5.30
   5   2  -1  146.69    5.30
   5   2  -1  137.59    5.30
  -5   2   1  136.79    5.40
  -5   2   1  143.59    5.20
  -5   2   1  134.39    5.00
   5   2  -1  151.08    5.00
   5   2  -1  142.09    5.30
   5   2  -1  146.49    4.40
  -5   2   1  141.59    5.20
   4  -2  -1 1592.94   30.20
   4  -2  -1 1607.44   30.30
  -4  -2   1 1632.34   29.60
  -4  -2   1 1568.94   30.10
   4  -2  -1 1608.74   30.10
  -4  -2   1 1534.35   30.10
   4  -2  -1 1624.04   30.10
  -4  -2   1 1549.54   30.20
  -4  -2   1 1591.14   30.20
  -4   2   1 1566.24   30.10
  -4   2   1 1583.24   30.40
   4   2  -1 1647.34   30.20
   4   2  -1 1603.54   29.90
   4   2  -1 1610.54   30.10
  -4   2   1 1577.54   30.10
  -4   2   1 1572.44   30.00
  -4   2   1 1635.64   30.00
   4   2  -1 1639.04   30.20
   3  -2  -1 1779.72   32.80
   3  -2  -1 1771.72   32.60
  -3  -2   1 1728.33   32.90
   3  -2  -1 1796.22   32.80
  -3  -2   1 1824.42   32.70
   3  -2  -1 1791.62   33.00
  -3  -2   1 1781.72   32.80
  -3  -2   1 1735.93   32.80
  -3  -2   1 1748.53   32.80
  -3   2   1 1768.02   32.40
  -3   2   1 1760.02   32.70
  -3   2   1 1737.53   32.80
   3   2  -1 1745.63   32.80
   3   2  -1 1797.52   32.80
   3   2  -1 1785.12   32.80
  -3   2   1 1810.52   32.90
   3   2  -1 1793.72   32.80
   2  -2  -1  448.66    9.30
  -2  -2   1  468.95    9.50
   2  -2  -1  461.35    9.40
  -2  -2   1  456.05    9.40
  -2  -2   1  454.35    9.40
   2  -2  -1  455.85    9.50
  -2  -2   1  458.95    9.20
   2  -2  -1  391.86    9.20
   2  -2  -1  472.95    9.20
  -2  -2   1  438.66    9.30
   2   2  -1  449.56    8.30
  -2   2   1  449.86    9.30
   2   2  -1  411.76    9.70
   2   2  -1  447.86    9.50
  -2   2   1  454.05    8.80
  -2   2   1  443.36    9.30
   2   2  -1  446.56    9.40
   2   2  -1  445.56    9.30
   2   2  -1  455.35    9.30
   2   2  -1  451.95    9.20
  -2   2   1  459.45    9.60
   2   2  -1  448.56    9.20
  -1  -2   1 7209.68  133.39
  -1   2   1 7056.29  132.89
   1   2  -1 7237.18  133.29
   0  -2   1 1319.07   24.00
   0  -2  -1 1321.97   24.10
   0  -2  -1 1335.37   24.10
   0  -2   1 1276.67   24.10
   0  -2  -1 1289.27   24.10
   0  -2   1 1319.37   24.00
   0  -2  -1 1296.67   24.00
   0  -2   1 1335.57   23.80
   0  -2   1 1312.87   24.20
   0  -2   1 1280.97   24.10
   0  -2   1 1322.77   24.20
   0  -2  -1 1322.17   24.30
   0   2   1 1336.77   24.00
   0   2   1 1265.67   24.00
   0   2   1 1312.57   24.20
   0   2  -1 1299.27   24.10
   0   2   1 1323.27   24.20
   0   2  -1 1287.07   24.00
   0   2  -1 1303.37   24.10
   0   2   1 1304.47   24.30
   0   2   1 1290.47   24.10
   0   2   1 1296.97   24.10
   0   2  -1 1317.47   24.00
   0   2  -1 1315.87   24.10
   0   2  -1 1308.27   23.80
   1  -2   1  769.72   14.90
  -1  -2  -1  751.02   14.90
   1  -2   1  765.52   14.70
   1  -2   1  758.02   14.70
  -1  -2  -1  768.32   14.90
   1  -2   1  784.22   14.80
   1  -2   1  780.32   14.70
  -1  -2  -1  758.52   14.90
  -1  -2  -1  758.22   14.50
  -1   2  -1  762.42   14.70
  -1   2  -1  754.52   14.70
   1   2   1  763.02   14.80
   1   2   1  766.52   14.40
  -1   2  -1  752.52   14.70
   1   2   1  756.62   14.70
  -1   2  -1  756.42   14.70
  -1   2  -1  771.92   14.80
   1   2   1  782.22   14.90
   1   2   1  767.22   14.90
  -1   2  -1  760.32   14.70
   1   2   1  770.32   15.00
  -2  -2  -1  490.15    9.80
   2  -2   1  491.15   10.30
   2  -2   1  488.55   10.20
   2  -2   1  492.75   10.30
  -2  -2  -1  500.45   10.30
   2  -2   1  494.65   10.40
  -2  -2  -1  489.35   10.40
  -2  -2  -1  486.45   10.40
  -2  -2  -1  487.75   10.40
  -2   2  -1  490.05   10.40
  -2   2  -1  477.75    9.70
  -2   2  -1  497.35   10.30
   2   2   1  493.75    9.80
   2   2   1  496.35   10.40
   2   2   1  492.45   10.30
   2   2   1  503.75   10.40
  -2   2  -1  504.15   10.40
   2   2   1  492.25   10.40
  -2   2  -1  494.45   10.30
  -2   2  -1  443.66   10.80
   3  -2   1  943.11   18.80
   3  -2   1  933.01   18.80
   3  -2   1  968.20   18.70
  -3  -2  -1  940.41   18.80
  -3  -2  -1  942.31   18.00
   3  -2   1  966.80   18.70
  -3  -2  -1  934.51   18.80
  -3  -2  -1  959.60   18.50
  -3  -2  -1  942.71   19.00
  -3  -2  -1  937.61   18.70
   3  -2   1  950.60   17.90
  -3   2  -1  930.71   17.90
  -3   2  -1  948.21   18.70
  -3   2  -1  963.40   18.60
  -3   2  -1  953.00   18.70
   3   2   1  961.20   18.80
  -3   2  -1  920.81   18.60
   3   2   1  964.70   18.90
   3   2   1  957.00   18.70
  -3   2  -1  935.41   18.80
   3   2   1  944.51   18.60
   4  -2   1 2623.84   47.50
   4  -2   1 2689.53   48.30
   4  -2   1 2588.64   48.50
  -4  -2  -1 2588.54   47.80
  -4  -2  -1 2521.35   47.50
   4  -2   1 2622.64   48.40
   4  -2   1 2619.94   48.20
  -4  -2  -1 2586.44   48.30
  -4  -2  -1 2605.14   48.80
  -4  -2  -1 2591.34   48.40
  -4  -2  -1 2536.75   48.30
  -4   2  -1 2689.53   48.40
  -4   2  -1 2557.34   47.50
   4   2   1 2734.23   48.50
  -4   2  -1 2578.74   48.30
   4   2   1 2604.34   48.00
   4   2   1 2647.73   48.20
   4   2   1 2670.03   48.30
  -4   2  -1 2598.44   48.30
   5  -2   1  238.38    7.40
  -5  -2  -1  243.28    6.70
  -5  -2  -1  238.08    6.70
   5  -2   1  245.08    7.50
  -5  -2  -1  239.28    7.60
  -5  -2  -1  243.28    7.50
  -5  -2  -1  241.08    8.10
   5  -2   1  249.58    7.50
  -5  -2  -1  239.48    7.40
   5  -2   1  238.28    7.90
   5  -2   1  244.18    6.60
  -5   2  -1  238.28    6.70
   5   2   1  243.38    7.60
   5   2   1  239.08    7.40
  -5   2  -1  240.18    7.50
   5   2   1  249.58    7.40
   5   2   1  238.48    7.00
  -5   2  -1  245.18    7.40
  -5   2  -1  244.28    7.40
   6  -2   1   70.19    5.20
   6  -2   1   81.49    6.10
   6  -2   1   72.89    4.60
  -6  -2  -1   80.39    5.20
   6  -2   1   70.09    5.30
  -6  -2  -1   84.59    5.40
   6  -2   1   80.39    5.40
  -6  -2  -1   79.29    5.40
   6  -2   1   77.69    4.10
  -6  -2  -1   74.29    6.10
  -6  -2  -1   76.69    4.50
  -6  -2  -1   73.59    4.50
   6   2   1   84.79    5.40
   6   2   1   83.69    5.70
   6   2   1   67.99    5.40
   6   2   1   77.89    4.80
  -6   2  -1   79.09    5.30
  -6   2  -1   74.99    4.70
  -6   2  -1   73.99    5.30
  -6   2  -1   76.19    5.50
  -7  -2  -1 1118.49   23.00
   7  -2   1 1095.19   24.80
  -7  -2  -1 1125.99   24.90
  -7  -2  -1 1120.59   24.20
   7  -2   1 1144.19   23.20
   7  -2   1 1130.89   24.20
  -7  -2  -1 1121.59   24.00
   7  -2   1 1152.68   24.10
  -7  -2  -1 1119.29   24.10
   7  -2   1 1119.09   24.00
   7  -2   1 1109.89   22.40
   7   2   1 1145.99   23.30
  -7   2  -1 1123.09   24.10
   7   2   1 1145.39   24.20
   7   2   1 1129.99   24.20
   7   2   1 1137.19   23.80
  -7   2  -1 1101.09   23.20
  -7   2  -1 1104.19   24.10
  -7   2  -1 1114.19   24.20
  -8  -2  -1   44.00    4.90
  -8  -2  -1   50.49    4.40
   8  -2   1   36.10    5.30
  -8  -2  -1   54.49    5.40
   8  -2   1   38.10    4.80
  -8  -2  -1   54.09    4.70
   8  -2   1   49.50    4.80
   8  -2   1   40.70    5.30
   8  -2   1   50.29    4.80
   8  -2   1   37.80    4.80
  -8  -2  -1   56.09    5.60
   8   2   1   52.69    5.60
   8   2   1   63.29    5.10
  -8   2  -1   37.90    4.70
   8   2   1   50.79    5.40
  -8   2  -1   55.39    5.20
   8   2   1   52.59    5.00
   8   2   1   53.39    5.50
  -8   2  -1   55.69    4.80
  -8   2  -1   51.49    5.90
  -9  -2  -1  284.07   14.10
   9  -2   1  319.47   12.50
   9  -2   1  325.77   20.40
   9  -2   1  325.97    9.80
  -9  -2  -1  330.27   11.00
   9  -2   1  340.57   13.00
   9  -2   1  321.17   11.50
   9  -2   1  326.37   12.90
  -9  -2  -1  327.37   12.50
  -9  -2  -1  290.07   14.90
   9   2   1  311.77   12.50
  -9   2  -1  338.47   12.40
  -9   2  -1  305.17   12.70
   9   2   1  325.57   13.10
   9   2   1  334.57   10.80
   9   2   1  325.17   11.40
  -9   2  -1  299.57   13.10
  -9   2  -1  324.77   11.30
   9   2   1  331.67   13.20
 -10  -2  -1  126.29   11.30
 -10  -2  -1  139.19    9.60
  10  -2   1  137.49    8.00
  10  -2   1  142.49   13.10
 -10  -2  -1  148.29   10.80
 -10  -2  -1  151.18   11.20
  10  -2   1  137.19   11.60
 -10   2  -1  115.39   10.90
 -10   2  -1  122.79    9.90
  10   2   1  126.89   10.20
  10   2   1  133.09    9.20
 -10   2  -1  136.39   11.20
 -11  -2  -1  158.38   11.60
  11  -2   1  170.38    9.50
 -11  -2  -1  173.88   13.80
 -11  -2  -1  173.48   14.40
 -11  -2  -1  171.88   13.80
  11   2   1  166.08   11.10
 -11   2  -1  173.78   13.80
  11   2   1  164.58   14.00
 -11   2  -1  172.58   12.40
 -11   2  -1  145.19   14.00
 -12  -2  -1  146.59   14.00
 -12  -2  -1  142.39   12.80
 -12  -2  -1  125.09   12.40
  12  -2   1  132.89   11.70
 -12  -2  -1  150.98   12.70
  12   2   1  136.89   12.30
 -12   2  -1  151.78   12.80
 -12   2  -1  181.88   16.10
 -12   2  -1  145.29   12.40
 -13  -3   1   24.30   10.70
 -13  -3   1    1.30   11.60
 -13   3   1   28.60   11.00
 -13   3   1   20.40   11.70
 -12  -3   1   45.20    8.70
 -12  -3   1   48.20    9.70
 -12  -3   1   50.89    9.60
 -12  -3   1   68.89   10.00
  12   3  -1   70.79    8.60
 -12   3   1   75.59   10.30
 -12   3   1   57.69    9.30
 -12   3   1   54.69   10.50
 -11  -3   1  101.59    9.20
  11  -3  -1   82.49    6.50
 -11  -3   1   94.19    9.00
 -11  -3   1   88.29    8.30
 -11  -3   1   88.59    9.10
 -11   3   1   82.59    8.50
 -11   3   1   84.49    8.70
  11   3  -1   87.19    7.80
 -11   3   1   92.79    8.70
  11   3  -1   84.09    7.70
 -10  -3   1   21.30    5.50
  10  -3  -1   22.40    3.50
  10  -3  -1   10.10    6.00
 -10  -3   1    8.30    5.40
  10  -3  -1   24.40    6.90
 -10  -3   1   23.60    6.00
 -10  -3   1   14.00    4.40
 -10  -3   1   19.90    5.80
  10   3  -1   19.60    4.70
 -10   3   1   15.70    6.50
 -10   3   1   16.10    6.70
  10   3  -1    9.00    6.50
  10   3  -1   11.80    4.70
 -10   3   1   23.50    5.50
 -10   3   1   18.00    5.30
  -9  -3   1  268.37   12.10
  -9  -3   1  317.37   11.70
  -9  -3   1  300.87    9.30
  -9  -3   1  289.07   10.90
   9  -3  -1  300.17   12.00
  -9  -3   1  253.97   14.20
   9  -3  -1  303.97    8.10
  -9   3   1  285.37   11.60
  -9   3   1  310.67   10.90
  -9   3   1  307.07   11.90
   9   3  -1  297.57   12.10
   9   3  -1  305.87   10.40
   9   3  -1  296.47    9.60
  -8  -3   1   79.69    6.50
  -8  -3   1   81.89    7.00
  -8  -3   1   88.99    7.00
  -8  -3   1   80.09    5.30
   8  -3  -1   87.69    4.40
   8  -3  -1   91.79    7.40
   8  -3  -1   75.89    7.60
   8  -3  -1   85.29    7.20
  -8  -3   1   81.29    7.00
  -8   3   1   98.29    7.20
   8   3  -1   87.59    6.30
  -8   3   1   85.29    6.50
  -8   3   1   82.39    7.00
   8   3  -1   90.99    5.60
  -8   3   1   90.59    7.10
   8   3  -1   80.39    7.40
  -8   3   1   81.39    6.70
   7  -3  -1   81.39    6.00
  -7  -3   1   94.49    6.40
   7  -3  -1   88.99    6.10
   7  -3  -1   86.39    6.80
  -7  -3   1   80.49    5.70
  -7  -3   1   88.09    5.00
   7  -3  -1   79.89    6.00
  -7  -3   1   70.39    7.30
  -7  -3   1   75.19    5.90
  -7  -3   1   76.79    6.10
   7   3  -1   95.29    6.30
  -7   3   1   78.79    6.10
   7   3  -1   88.19    6.20
  -7   3   1   81.79    6.10
   7   3  -1   84.59    4.50
   7   3  -1   87.79    5.70
  -7   3   1   90.99    6.00
  -7   3   1   77.29    5.90
   7   3  -1   80.29    6.10
  -7   3   1   80.39    5.60
  -6  -3   1  265.77    8.30
   6  -3  -1  250.27    8.50
  -6  -3   1  246.38    8.00
   6  -3  -1  264.57    8.10
  -6  -3   1  255.57    8.20
  -6  -3   1  257.47    7.30
   6  -3  -1  251.57    8.30
   6  -3  -1  253.27    8.30
  -6  -3   1  256.07    8.20
   6   3  -1  247.58    8.10
   6   3  -1  254.17    8.20
  -6   3   1  250.17    7.70
  -6   3   1  255.77    8.20
   6   3  -1  255.97    8.20
  -6   3   1  246.58    8.40
  -6   3   1  258.67    8.20
   6   3  -1  247.88    6.80
   6   3  -1  243.38    7.90
  -6   3   1  260.47    7.90
  -5  -3   1  555.34   13.00
   5  -3  -1  569.64   13.10
   5  -3  -1  561.44   13.10
  -5  -3   1  574.24   13.00
   5  -3  -1  575.74   13.00
   5  -3  -1  574.34   13.00
  -5  -3   1  575.84   12.50
  -5  -3   1  565.84   13.10
  -5  -3   1  573.74   13.20
   5   3  -1  563.64   13.20
   5   3  -1  558.44   12.90
   5   3  -1  597.14   13.10
  -5   3   1  562.14   13.30
  -5   3   1  592.64   13.20
  -5   3   1  565.14   13.00
  -5   3   1  554.74   12.60
   5   3  -1  554.54   13.00
  -5   3   1  555.74   12.60
  -4  -3   1 2654.93   49.30
  -4  -3   1 2590.74   49.00
   4  -3  -1 2726.63   49.40
   4  -3  -1 2778.12   49.20
  -4  -3   1 2609.04   49.20
  -4  -3   1 2648.14   49.10
   4  -3  -1 2621.34   48.80
   4  -3  -1 2696.83   49.10
  -4  -3   1 2714.33   48.90
  -4   3   1 2682.83   48.50
  -4   3   1 2596.54   49.10
  -4   3   1 2523.65   48.70
  -4   3   1 2593.94   49.40
   4   3  -1 2694.63   49.20
   4   3  -1 2638.24   49.20
  -4   3   1 2674.23   49.20
   4   3  -1 2715.63   49.10
   4   3  -1 2692.73   49.10
  -3  -3   1 1351.36   26.00
   3  -3  -1 1377.46   25.90
   3  -3  -1 1366.16   26.10
  -3  -3   1 1365.26   25.80
  -3  -3   1 1320.07   25.90
  -3  -3   1 1368.06   26.00
  -3  -3   1 1360.56   25.90
   3  -3  -1 1365.86   25.40
   3  -3  -1 1361.66   25.90
   3   3  -1 1358.46   25.70
   3   3  -1 1370.86   26.00
  -3   3   1 1337.77   25.90
   3   3  -1 1370.96   26.00
   3   3  -1 1351.76   25.90
  -3   3   1 1362.36   25.20
   3   3  -1 1361.36   26.20
  -3   3   1 1359.06   25.90
  -3   3   1 1344.07   26.10
   3   3  -1 1345.17   25.90
   3   3  -1 1260.97   24.60
  -3   3   1 1352.46   26.20
  -2  -3   1  113.69    4.10
   2  -3  -1  111.69    3.40
   2  -3  -1  108.59    3.90
  -2  -3   1  110.19    4.00
  -2  -3   1  111.39    3.80
   2  -3  -1  106.29    3.90
   2  -3  -1  111.09    4.10
  -2  -3   1  110.29    4.20
  -2  -3   1  106.99    4.00
   2  -3  -1  105.39    3.90
   2   3  -1  111.09    4.00
   2   3  -1  104.79    3.90
  -2   3   1  106.09    3.20
   2   3  -1  111.49    3.80
   2   3  -1  115.19    4.10
  -2   3   1  108.39    4.10
  -2   3   1  106.79    3.90
  -2   3   1  107.09    4.00
  -2   3   1  109.79    4.00
   2   3  -1  105.39    4.00
   2   3  -1  110.09    2.90
  -2   3   1  110.09    4.20
  -2   3   1  110.89    3.90
   2   3  -1  110.79    3.90
   1  -3  -1 1128.19   24.10
   1  -3  -1 1226.58   23.30
  -1  -3   1 1249.38   23.30
  -1  -3   1 1248.78   22.50
   1  -3  -1 1259.57   23.40
   1  -3  -1 1246.98   23.40
  -1  -3   1 1241.08   23.70
  -1  -3   1 1257.67   23.30
   1  -3  -1 1232.18   23.50
   1  -3  -1 1252.87   23.60
   1  -3  -1 1249.28   23.60
  -1  -3   1 1214.48   23.40
  -1  -3   1 1230.88   23.40
  -1  -3   1 1210.48   23.40
   1  -3  -1 1164.28   23.00
  -1   3   1 1208.08   23.40
   1   3  -1 1227.58   23.30
   1   3  -1 1269.27   22.90
  -1   3   1 1260.97   23.50
  -1   3   1 1208.38   23.40
   1   3  -1 1231.38   23.40
   1   3  -1 1221.28   23.30
  -1   3   1 1232.28   23.50
   1   3  -1 1261.77   23.40
  -1   3   1 1216.98   23.40
  -1   3   1 1248.38   23.40
   1   3  -1 1235.98   23.40
   0  -3  -1 1162.08   22.60
   0  -3   1 1174.28   22.50
   0  -3  -1 1176.68   22.50
   0  -3  -1 1184.88   22.70
   0  -3   1 1217.98   22.00
   0  -3   1 1201.58   22.50
   0  -3  -1 1195.88   22.80
   0  -3   1 1148.99   22.60
   0  -3  -1 1205.98   22.60
   0  -3   1 1179.88   22.60
   0  -3  -1 1189.78   22.50
   0  -3   1 1213.68   22.50
   0  -3  -1 1212.08   22.40
   0  -3   1 1198.18   22.50
   0   3   1 1186.98   22.40
   0   3  -1 1160.28   22.10
   0   3  -1 1181.78   22.60
   0   3  -1 1171.98   22.50
   0   3   1 1206.68   22.70
   0   3   1 1201.08   22.70
   0   3   1 1164.58   22.40
   0   3   1 1172.58   22.90
   0   3  -1 1205.08   22.60
   0   3  -1 1186.38   22.50
   0   3  -1 1164.98   22.60
   0   3   1 1160.68   22.50
   0   3   1 1166.18   22.50
  -1  -3  -1 2242.98   41.30
   1  -3   1 2250.77   41.50
   1  -3   1 2241.18   41.70
   1  -3   1 2307.57   41.60
  -1  -3  -1 2275.07   41.80
  -1  -3  -1 2218.28   41.70
  -1  -3  -1 2229.08   41.70
   1  -3   1 2322.77   41.40
   1  -3   1 2300.27   41.60
   1   3   1 2277.87   41.70
   1   3   1 2305.57   41.30
  -1   3  -1 2193.18   41.70
   1   3   1 2292.37   41.80
  -1   3  -1 2271.07   41.50
  -1   3  -1 2304.77   41.70
   1   3   1 2201.98   41.20
  -1   3  -1 2296.47   41.60
   1   3   1 2308.87   41.80
  -1   3  -1 2300.67   41.50
   1   3   1 2288.27   41.60
  -1   3  -1 2271.57   41.60
   1   3   1 2196.58   41.90
   2  -3   1 1788.92   33.00
   2  -3   1 1776.32   33.00
  -2  -3  -1 1752.92   32.60
   2  -3   1 1742.63   33.10
  -2  -3  -1 1765.82   33.20
  -2  -3  -1 1777.22   33.20
  -2  -3  -1 1780.12   33.20
   2  -3   1 1759.02   32.90
   2  -3   1 1728.33   32.90
   2   3   1 1764.82   32.60
   2   3   1 1775.62   33.40
  -2   3  -1 1751.12   33.00
   2   3   1 1785.62   33.20
  -2   3  -1 1722.53   32.00
  -2   3  -1 1743.23   33.00
   2   3   1 1760.42   33.10
  -2   3  -1 1779.42   33.10
   2   3   1 1763.92   33.00
  -2   3  -1 1798.22   32.90
   2   3   1 1770.92   33.30
   2   3   1 1749.12   33.10
  -2   3  -1 1790.02   33.10
  -3  -3  -1 1621.14   30.50
   3  -3   1 1564.74   30.50
  -3  -3  -1 1565.44   30.60
  -3  -3  -1 1619.24   30.70
   3  -3   1 1629.54   30.50
   3  -3   1 1602.24   30.40
  -3  -3  -1 1552.54   29.90
   3  -3   1 1633.14   30.60
  -3  -3  -1 1587.34   30.70
  -3   3  -1 1587.44   30.50
  -3   3  -1 1566.34   30.60
   3   3   1 1625.84   30.70
   3   3   1 1641.94   30.60
  -3   3  -1 1620.14   30.50
   3   3   1 1613.24   30.00
  -3   3  -1 1615.34   30.40
  -3   3  -1 1605.74   30.50
   3   3   1 1572.74   30.60
   3   3   1 1628.84   30.70
  -3   3  -1 1562.24   29.50
   4  -3   1 1757.12   33.40
  -4  -3  -1 1716.23   33.80
   4  -3   1 1715.73   33.50
   4  -3   1 1760.22   33.30
  -4  -3  -1 1732.93   33.50
  -4  -3  -1 1747.43   33.00
   4  -3   1 1761.32   33.50
  -4  -3  -1 1739.23   32.60
  -4  -3  -1 1708.03   33.50
  -4  -3  -1 1718.33   33.50
  -4   3  -1 1699.83   33.30
   4   3   1 1706.13   33.30
   4   3   1 1791.52   33.60
  -4   3  -1 1732.23   32.30
  -4   3  -1 1718.53   33.60
   4   3   1 1738.23   33.60
  -4   3  -1 1740.03   33.20
   4   3   1 1778.52   33.40
  -4   3  -1 1763.52   33.40
  -4   3  -1 1787.52   33.50
   5  -3   1  679.43   15.50
  -5  -3  -1  661.13   15.40
  -5  -3  -1  654.43   15.10
   5  -3   1  674.23   15.20
   5  -3   1  665.13   15.20
  -5  -3  -1  674.63   14.70
  -5  -3  -1  655.83   15.20
  -5  -3  -1  660.13   14.30
   5   3   1  669.53   15.00
   5   3   1  677.23   15.10
   5   3   1  680.33   15.40
  -5   3  -1  675.93   15.20
  -5   3  -1  662.83   15.20
  -5   3  -1  667.93   14.10
  -5   3  -1  675.73   15.50
  -5   3  -1  665.23   15.20
   6  -3   1  256.17    9.40
   6  -3   1  254.17    8.70
  -6  -3  -1  253.97    8.80
   6  -3   1  262.37    8.80
  -6  -3  -1  257.27    8.70
  -6  -3  -1  262.97    8.90
   6  -3   1  272.67    8.80
  -6  -3  -1  260.67    9.70
  -6  -3  -1  264.57    7.80
  -6  -3  -1  234.18    9.00
  -6   3  -1  254.67    7.70
  -6   3  -1  256.87    8.70
  -6   3  -1  261.27    8.80
   6   3   1  268.77    9.00
  -6   3  -1  264.17    8.80
   6   3   1  246.68    8.30
   6   3   1  264.37    9.00
  -6   3  -1  259.07    8.70
   6   3   1  253.57    8.60
   7  -3   1  368.46    9.60
   7  -3   1  365.46   11.40
   7  -3   1  367.06   11.40
  -7  -3  -1  361.96   10.20
  -7  -3  -1  358.66   10.20
  -7  -3  -1  363.96   11.30
   7  -3   1  370.96   12.10
  -7  -3  -1  370.86   11.60
  -7  -3  -1  361.06   12.40
   7  -3   1  340.77   11.20
   7  -3   1  359.36   10.20
  -7  -3  -1  377.56   11.50
  -7   3  -1  365.86   11.30
   7   3   1  362.16   11.40
   7   3   1  372.16   11.80
  -7   3  -1  376.26   11.50
  -7   3  -1  366.26   10.30
   7   3   1  365.76   10.80
  -7   3  -1  367.36   11.30
   7   3   1  369.26   11.70
  -7   3  -1  367.36   11.20
   8  -3   1  144.79    9.50
   8  -3   1  151.88    6.50
   8  -3   1  132.69    7.70
   8  -3   1  135.49    8.80
  -8  -3  -1  147.29    8.70
  -8  -3  -1  140.49    7.30
  -8  -3  -1  143.69    7.20
  -8  -3  -1  152.58    8.50
  -8  -3  -1  146.19    8.70
   8  -3   1  158.28    9.10
  -8   3  -1  135.99    8.50
   8   3   1  107.59    8.30
  -8   3  -1  136.69    8.80
   8   3   1  134.89    7.70
   8   3   1  145.69    9.30
  -8   3  -1  150.78    7.60
  -8   3  -1  135.59    9.00
   8   3   1  144.49    9.50
  -9  -3  -1  127.69    9.70
  -9  -3  -1  119.89    9.60
   9  -3   1  104.99   10.40
   9  -3   1  121.79    6.80
  -9  -3  -1  114.59    8.00
  -9  -3  -1  127.29    9.90
   9  -3   1  114.19    9.00
   9  -3   1  116.89   10.30
  -9  -3  -1  115.29    8.10
  -9  -3  -1  131.59    9.90
   9  -3   1   97.79   10.40
   9  -3   1  107.69   10.70
   9   3   1  118.19   11.00
   9   3   1  106.59   10.70
   9   3   1  103.79    8.50
   9   3   1  115.19    8.30
   9   3   1  119.89   10.90
  -9   3  -1  109.29    8.60
  -9   3  -1  124.79    9.70
  -9   3  -1  103.89    8.20
  -9   3  -1  107.19    9.30
 -10  -3  -1   73.59    8.00
 -10  -3  -1   72.39    6.90
  10  -3   1   61.49    5.50
 -10  -3  -1   43.10    6.30
  10  -3   1   68.69    9.30
 -10  -3  -1   61.89    7.40
 -10  -3  -1   41.30    8.10
  10  -3   1   66.09    9.00
  10   3   1   46.60    8.70
 -10   3  -1   47.20    7.90
 -10   3  -1   72.39    8.00
  10   3   1   70.89    7.20
 -10   3  -1   51.99    6.50
 -10   3  -1   78.29    8.50
  11  -3   1    4.50    5.00
 -11  -3  -1    1.00    8.00
 -11  -3  -1   -1.10    7.70
 -11  -3  -1  -11.00    7.50
 -11  -3  -1   13.80    6.60
 -11   3  -1    9.60    7.00
 -11   3  -1    7.10    7.80
 -11   3  -1   -1.00    7.20
  11   3   1    4.70    7.80
 -12  -3  -1  -16.50    9.60
  12  -3   1    7.50    9.50
 -12  -3  -1   -5.20    9.70
 -12  -3  -1    5.80    8.20
 -12  -3  -1   -0.20   10.20
 -12   3  -1    4.80    8.90
 -12   3  -1    3.40   10.30
  12   3   1   26.50    8.80
 -12   3  -1   -2.70    9.80
 -12  -4   1   76.99   11.70
 -12  -4   1   86.99   10.30
 -12  -4   1  101.29   11.90
 -12  -4   1   88.79   11.20
 -12   4   1   85.99   10.70
  12   4  -1  102.69   10.10
 -12   4   1   98.29   11.30
 -12   4   1   97.99   12.20
  11  -4  -1    6.10    4.20
 -11  -4   1   13.70    7.80
 -11  -4   1   12.30    7.60
 -11  -4   1   12.60    6.00
 -11  -4   1   14.20    7.10
 -11  -4   1   -5.70    7.00
 -11   4   1   11.10    7.20
  11   4  -1    4.30    6.70
 -11   4   1    0.90    7.20
 -11   4   1    2.20    6.70
  11   4  -1    3.30    6.10
 -10  -4   1   77.89    7.40
 -10  -4   1   73.09    7.70
 -10  -4   1   72.69    7.70
 -10  -4   1   85.79    6.80
  10  -4  -1   73.59    6.10
 -10  -4   1   94.89    8.70
 -10   4   1   89.19    7.60
  10   4  -1   86.49    7.30
 -10   4   1   80.59    8.10
 -10   4   1   81.29    7.80
 -10   4   1   77.79    8.40
  10   4  -1   75.49    6.20
  -9  -4   1   52.09    8.50
   9  -4  -1   59.49    7.20
  -9  -4   1   58.79    6.10
   9  -4  -1   67.19    7.40
  -9  -4   1   66.59    6.90
  -9  -4   1   67.19    6.70
  -9  -4   1   57.29    6.40
   9  -4  -1   57.59    5.20
   9  -4  -1   43.70    6.80
   9  -4  -1   63.99    7.20
  -9  -4   1   62.39    5.30
  -9   4   1   60.09    6.00
   9   4  -1   60.19    7.30
  -9   4   1   47.00    6.50
  -9   4   1   50.19    6.00
   9   4  -1   45.70    6.70
  -9   4   1   46.50    6.10
   9   4  -1   68.39    6.60
   9   4  -1   57.79    6.80
  -8  -4   1  664.93   17.20
   8  -4  -1  657.83   17.40
   8  -4  -1  656.83   16.90
  -8  -4   1  619.74   16.80
  -8  -4   1  654.33   16.40
  -8  -4   1  657.43   16.90
  -8  -4   1  627.54   15.10
  -8   4   1  641.44   17.10
  -8   4   1  628.94   16.60
   8   4  -1  634.04   17.00
  -8   4   1  625.24   15.90
   8   4  -1  647.14   16.50
   8   4  -1  624.54   14.50
  -8   4   1  663.03   17.00
  -8   4   1  656.53   16.40
  -7  -4   1  635.94   15.50
   7  -4  -1  643.14   15.80
   7  -4  -1  651.93   16.20
  -7  -4   1  618.74   15.80
  -7  -4   1  633.24   14.70
   7  -4  -1  635.34   15.80
  -7  -4   1  629.24   16.10
   7  -4  -1  630.34   16.00
  -7  -4   1  625.24   15.90
   7   4  -1  630.74   15.80
   7   4  -1  629.14   15.80
  -7   4   1  627.94   15.10
  -7   4   1  641.24   15.20
  -7   4   1  635.64   15.90
  -7   4   1  621.94   15.70
   7   4  -1  643.34   16.00
   7   4  -1  602.14   13.60
  -7   4   1  650.53   16.30
  -6  -4   1   95.19    5.50
  -6  -4   1   95.19    6.00
   6  -4  -1   94.59    6.00
  -6  -4   1   96.69    6.20
   6  -4  -1  101.99    6.20
   6  -4  -1  104.89    6.50
  -6  -4   1   88.89    6.20
   6  -4  -1   91.29    6.20
  -6  -4   1   87.59    5.90
   6   4  -1  105.69    6.30
   6   4  -1   88.99    6.30
  -6   4   1  101.79    6.00
  -6   4   1   94.09    6.10
  -6   4   1   91.49    6.30
  -6   4   1   96.09    6.40
  -6   4   1   97.79    5.50
  -6   4   1   94.59    5.50
   6   4  -1   98.39    6.10
   6   4  -1   96.99    6.20
   5  -4  -1  167.98    6.50
  -5  -4   1  166.38    6.40
  -5  -4   1  160.28    6.60
   5  -4  -1  167.58    6.60
  -5  -4   1  160.78    6.60
   5  -4  -1  180.18    6.80
  -5  -4   1  176.28    6.80
  -5  -4   1  161.48    6.50
   5  -4  -1  172.48    6.80
  -5   4   1  168.68    6.00
  -5   4   1  165.08    6.10
   5   4  -1  168.68    6.70
   5   4  -1  161.78    6.60
   5   4  -1  167.88    6.90
  -5   4   1  155.58    6.90
  -5   4   1  170.68    7.10
  -5   4   1  167.48    6.70
  -5   4   1  166.58    6.60
   5   4  -1  177.98    7.00
  -4  -4   1  257.27    7.70
   4  -4  -1  260.67    7.70
   4  -4  -1  251.47    7.20
  -4  -4   1  251.17    7.50
   4  -4  -1  249.78    7.50
  -4  -4   1  255.57    7.80
   4  -4  -1  245.48    7.40
  -4  -4   1  236.98    7.40
  -4  -4   1  252.27    7.70
  -4   4   1  255.57    7.90
  -4   4   1  240.88    7.00
  -4   4   1  240.08    6.70
   4   4  -1  258.17    7.50
   4   4  -1  246.78    7.60
  -4   4   1  238.68    7.60
   4   4  -1  241.48    7.80
   4   4  -1  245.68    7.60
   4   4  -1  251.67    7.50
   4   4  -1  251.37    7.50
  -4   4   1  263.47    8.10
   4   4  -1  250.47    5.80
   4   4  -1  246.18    7.60
  -4   4   1  246.68    7.50
   3  -4  -1 1026.60   20.00
  -3  -4   1  991.10   20.80
  -3  -4   1 1016.30   20.70
  -3  -4   1 1027.70   21.00
  -3  -4   1 1027.90   20.50
   3  -4  -1 1037.10   20.60
   3  -4  -1 1053.59   20.80
  -3  -4   1 1017.20   20.90
   3  -4  -1 1012.20   20.80
   3  -4  -1 1038.90   20.80
   3   4  -1 1028.30   20.70
  -3   4   1 1001.80   20.80
   3   4  -1 1043.20   19.20
   3   4  -1 1037.60   20.50
  -3   4   1 1019.30   21.00
  -3   4   1 1024.20   21.00
   3   4  -1 1044.70   20.80
  -3   4   1 1012.40   20.80
  -3   4   1 1033.60   19.80
   3   4  -1 1042.60   20.80
  -3   4   1 1021.20   20.80
   3   4  -1 1063.29   20.90
   3   4  -1 1015.20   20.70
  -3   4   1 1016.00   20.80
   2  -4  -1 1662.53   31.20
  -2  -4   1 1624.64   31.30
   2  -4  -1 1634.64   30.30
  -2  -4   1 1620.04   31.20
   2  -4  -1 1648.54   31.20
   2  -4  -1 1661.63   31.20
   2  -4  -1 1658.83   31.30
  -2  -4   1 1681.13   31.60
  -2  -4   1 1602.34   31.30
   2   4  -1 1624.24   31.20
  -2   4   1 1602.54   31.10
   2   4  -1 1633.64   31.10
   2   4  -1 1610.54   29.90
  -2   4   1 1617.64   31.30
  -2   4   1 1598.44   31.30
   2   4  -1 1647.74   31.20
  -2   4   1 1591.04   31.10
   2   4  -1 1638.64   30.80
   2   4  -1 1666.33   31.30
  -2   4   1 1684.33   31.40
  -2   4   1 1677.73   31.30
   2   4  -1 1637.14   31.30
   1  -4  -1  101.89    4.10
  -1  -4   1  104.79    4.30
   1  -4  -1  106.49    4.30
  -1  -4   1  101.09    4.50
   1  -4  -1  103.39    4.40
  -1  -4   1  102.29    3.40
   1  -4  -1  104.59    4.40
  -1  -4   1  106.39    4.50
  -1  -4   1   98.39    4.60
  -1  -4   1  104.79    4.30
  -1  -4   1  100.69    4.60
   1  -4  -1   98.39    4.50
   1  -4  -1  100.29    3.50
   1  -4  -1  105.79    4.70
   1   4  -1  108.89    4.40
  -1   4   1  103.29    4.50
   1   4  -1  102.59    3.80
   1   4  -1  124.39    4.50
   1   4  -1  110.29    4.40
   1   4  -1  103.79    4.40
  -1   4   1  106.69    4.50
  -1   4   1   99.89    4.20
  -1   4   1  103.69    4.30
   1   4  -1  107.69    4.40
  -1   4   1   97.49    4.30
   1   4  -1  118.89    3.70
   0  -4   1 2017.40   36.50
   0  -4   1 1950.70   36.70
   0  -4   1 1965.70   35.90
   0  -4   1 1995.50   36.60
   0  -4  -1 1947.11   36.70
   0  -4  -1 1990.70   36.60
   0  -4  -1 1994.80   36.60
   0  -4   1 1978.10   36.90
   0  -4  -1 1942.31   36.90
   0  -4   1 1922.51   36.40
   0  -4   1 1934.51   36.70
   0  -4  -1 1961.10   36.50
   0  -4   1 1896.31   36.50
   0  -4  -1 1946.91   36.80
   0  -4  -1 1955.80   36.20
   0   4   1 1967.30   36.70
   0   4  -1 1896.41   36.40
   0   4  -1 1915.71   36.00
   0   4   1 1906.81   36.30
   0   4   1 1908.21   36.50
   0   4   1 1952.30   36.40
   0   4   1 1983.30   36.80
   0   4   1 1931.41   36.60
   0   4  -1 1959.60   36.60
   0   4  -1 1958.50   36.60
   0   4  -1 1932.41   36.50
   0   4   1 1933.91   37.00
   0   4  -1 1995.80   36.70
  -1  -4  -1 1576.34   30.30
  -1  -4  -1 1572.24   30.00
  -1  -4  -1 1584.04   30.30
   1  -4   1 1555.64   30.20
   1  -4   1 1593.24   29.60
  -1  -4  -1 1571.94   30.10
  -1  -4  -1 1604.24   30.40
   1  -4   1 1616.34   30.00
   1  -4   1 1557.64   29.80
  -1  -4  -1 1596.14   29.90
   1  -4   1 1593.04   30.00
   1   4   1 1558.54   30.10
  -1   4  -1 1592.44   30.10
   1   4   1 1589.54   30.20
  -1   4  -1 1558.04   30.10
   1   4   1 1621.14   30.30
   1   4   1 1539.55   30.10
  -1   4  -1 1566.44   29.80
  -1   4  -1 1542.95   30.00
  -1   4  -1 1595.84   30.10
  -1   4  -1 1538.25   30.00
   1   4   1 1580.14   29.80
   1   4   1 1534.25   29.50
   2  -4   1  665.63   14.10
   2  -4   1  647.74   13.90
  -2  -4  -1  647.14   14.30
  -2  -4  -1  670.93   14.50
   2  -4   1  635.04   14.40
  -2  -4  -1  664.03   13.90
   2  -4   1  654.53   14.10
  -2  -4  -1  624.74   14.30
   2  -4   1  657.33   14.00
  -2   4  -1  659.93   13.90
   2   4   1  642.94   14.10
   2   4   1  657.03   13.50
   2   4   1  661.53   14.20
  -2   4  -1  653.43   14.10
   2   4   1  647.14   14.10
  -2   4  -1  661.03   14.30
  -2   4  -1  658.33   14.20
   2   4   1  675.63   14.50
   2   4   1  655.93   14.30
  -2   4  -1  660.13   14.20
   2   4   1  653.03   14.60
  -2   4  -1  655.63   14.20
  -2   4  -1  657.63   14.20
   2   4   1  641.94   13.70
   3  -4   1  260.47    7.60
  -3  -4  -1  263.07    7.90
  -3  -4  -1  267.57    8.00
   3  -4   1  276.67    7.80
  -3  -4  -1  264.77    7.80
   3  -4   1  283.97    7.80
   3  -4   1  266.57    7.60
  -3  -4  -1  259.97    7.30
  -3   4  -1  260.37    7.60
   3   4   1  259.67    7.20
  -3   4  -1  264.77    7.90
   3   4   1  259.57    8.00
   3   4   1  253.37    7.60
   3   4   1  270.97    7.90
   3   4   1  265.07    6.80
  -3   4  -1  264.37    7.80
  -3   4  -1  271.17    7.80
  -3   4  -1  261.47    7.70
   3   4   1  267.07    7.90
  -3   4  -1  262.17    7.40
  -3   4  -1  267.47    6.60
   3   4   1  274.27    7.80
   3   4   1  272.17    7.80
   4  -4   1   99.39    5.50
  -4  -4  -1   98.09    4.80
  -4  -4  -1  109.59    5.40
   4  -4   1  103.19    5.60
  -4  -4  -1  101.09    5.60
   4  -4   1   97.99    5.20
  -4  -4  -1  105.09    5.70
   4  -4   1  102.19    5.40
   4   4   1   96.39    4.80
  -4   4  -1  104.59    5.50
  -4   4  -1   98.49    5.40
  -4   4  -1  113.89    5.50
   4   4   1  108.29    5.90
   4   4   1  103.99    5.60
  -4   4  -1  110.49    5.30
  -4   4  -1  105.59    5.60
   4   4   1   99.89    5.50
  -4   4  -1  106.59    4.30
   4   4   1  102.69    5.40
  -5  -4  -1  833.02   18.20
  -5  -4  -1  826.92   17.80
  -5  -4  -1  838.22   19.30
  -5  -4  -1  837.12   18.70
   5  -4   1  835.22   18.50
  -5  -4  -1  842.12   18.80
   5  -4   1  841.72   18.70
  -5  -4  -1  834.22   18.90
   5  -4   1  824.42   18.70
   5  -4   1  838.82   18.50
   5   4   1  867.21   18.90
   5   4   1  845.82   18.80
  -5   4  -1  837.42   18.70
  -5   4  -1  836.42   18.90
   5   4   1  868.31   19.00
  -5   4  -1  844.92   18.60
  -5   4  -1  851.81   18.40
  -5   4  -1  847.82   18.60
  -5   4  -1  828.82   17.30
  -6  -4  -1  549.65   13.10
   6  -4   1  536.75   14.00
   6  -4   1  544.15   14.50
  -6  -4  -1  552.74   15.10
   6  -4   1  524.15   18.00
   6  -4   1  526.55   14.00
  -6  -4  -1  531.25   14.10
  -6  -4  -1  543.85   14.40
  -6  -4  -1  534.25   14.10
  -6  -4  -1  511.85   13.10
   6   4   1  531.85   13.90
   6   4   1  541.25   14.00
   6   4   1  540.55   14.30
  -6   4  -1  534.05   12.60
  -6   4  -1  538.25   14.10
   6   4   1  533.85   14.20
  -6   4  -1  559.84   13.80
  -6   4  -1  555.14   14.20
  -6   4  -1  538.75   14.00
  -7  -4  -1   36.80    5.10
   7  -4   1   24.40    4.50
   7  -4   1   27.30    4.90
  -7  -4  -1   30.10    5.70
  -7  -4  -1   22.90    4.50
  -7  -4  -1   23.10    4.00
  -7  -4  -1   27.20    4.60
   7  -4   1   28.80    5.10
  -7  -4  -1   28.70    4.00
  -7   4  -1   34.60    4.10
   7   4   1   27.90    4.80
  -7   4  -1   31.90    4.90
  -7   4  -1   25.70    3.90
  -7   4  -1   29.40    4.70
   7   4   1   23.20    4.60
  -7   4  -1   24.80    4.30
   7   4   1   25.90    4.70
   8  -4   1   61.59    6.90
  -8  -4  -1   59.09    6.50
   8  -4   1   65.39    7.10
  -8  -4  -1   58.99    5.70
  -8  -4  -1   53.79    7.30
  -8  -4  -1   41.30    7.40
  -8  -4  -1   57.29    5.20
   8  -4   1   52.59    6.40
   8  -4   1   55.69    4.60
  -8  -4  -1   52.89    5.90
   8   4   1   52.99    5.70
  -8   4  -1   46.00    5.70
  -8   4  -1   56.79    5.10
  -8   4  -1   45.50    5.60
   8   4   1   58.29    6.90
   8   4   1   52.59    6.60
  -8   4  -1   54.69    6.40
  -9  -4  -1  108.99    8.70
  -9  -4  -1  114.39    9.20
  -9  -4  -1  111.79    8.60
  -9  -4  -1  105.59    8.50
   9  -4   1  106.79    9.00
   9  -4   1   87.19    8.60
   9  -4   1  114.19    7.40
  -9  -4  -1  115.89   10.80
   9  -4   1  112.69   11.50
  -9   4  -1   98.19    8.20
  -9   4  -1  103.99    8.20
   9   4   1  104.39    9.40
  -9   4  -1  113.29   11.40
  -9   4  -1  101.69    8.60
   9   4   1  102.49    9.20
  -9   4  -1   84.19    8.00
   9   4   1  110.09    8.50
 -10  -4  -1  358.06   14.50
  10  -4   1  378.96   17.70
 -10  -4  -1  377.66   16.30
  10  -4   1  390.76   12.00
 -10  -4  -1  396.06   17.10
  10  -4   1  365.46   18.80
 -10  -4  -1  384.26   16.60
 -10   4  -1  390.16   14.40
 -10   4  -1  386.86   16.00
 -11  -4  -1   60.39    8.20
  11  -4   1   51.99   11.00
 -11  -4  -1   64.19   10.50
 -11  -4  -1   58.29   10.40
 -11  -4  -1   50.69   10.20
 -11  -4  -1   65.79    9.90
  11  -4   1   58.69    6.70
 -11   4  -1   58.79    9.40
  11   4   1   45.80    9.30
 -11   4  -1   39.20    8.30
 -11   4  -1   56.19    8.30
  11   4   1   62.59    9.20
 -12  -4  -1   18.30   11.60
 -12  -4  -1   18.10    9.10
 -12  -4  -1   16.80   11.80
 -12  -4  -1   13.00   11.30
  12   4   1   14.90   10.00
 -12   4  -1   19.30   11.20
 -12   4  -1   11.30   10.60
 -12   4  -1    9.70    9.70
 -12  -5   1   26.90   10.10
 -12  -5   1   30.30   11.10
 -12  -5   1   42.30   12.30
 -12  -5   1   16.10   11.90
 -12   5   1   37.40   10.20
 -12   5   1   29.10   10.70
 -12   5   1   32.50   11.20
 -11  -5   1   26.00    9.30
 -11  -5   1   27.50    9.20
 -11  -5   1   24.80    8.10
  11  -5  -1   18.90    5.20
 -11  -5   1   27.30    8.50
 -11  -5   1   18.90    8.00
 -11   5   1   16.60    8.40
  11   5  -1   24.60    9.80
 -11   5   1   12.50    7.80
 -11   5   1   11.50    8.60
 -10  -5   1  447.36   17.50
 -10  -5   1  441.46   15.80
 -10  -5   1  407.86   14.60
 -10  -5   1  460.85   17.40
 -10  -5   1  478.05   17.40
  10  -5  -1  451.05   18.00
  10  -5  -1  440.06   12.10
 -10   5   1  449.95   15.80
 -10   5   1  438.96   22.20
  10   5  -1  475.25   16.10
 -10   5   1  422.56   16.90
  10   5  -1  438.36   13.20
 -10   5   1  454.95   17.00
  -9  -5   1   81.39    7.50
  -9  -5   1   68.49    7.50
  -9  -5   1   73.19    6.60
  -9  -5   1   67.59    7.00
  -9  -5   1   66.49    7.20
   9  -5  -1   69.99    8.10
   9  -5  -1   60.19    7.50
  -9   5   1   76.99    7.40
   9   5  -1   70.49    6.80
  -9   5   1   86.99    7.90
  -9   5   1   79.49    7.80
   9   5  -1   82.79    7.80
   9   5  -1   69.09    8.50
  -8  -5   1   13.70    6.60
  -8  -5   1   11.00    4.90
  -8  -5   1   10.10    4.30
  -8  -5   1   10.00    4.80
  -8  -5   1   16.50    5.20
   8  -5  -1   10.50    5.60
   8  -5  -1   12.70    5.40
   8  -5  -1   10.70    5.20
   8  -5  -1    2.10    4.90
  -8  -5   1    8.20    4.30
   8   5  -1   11.90    5.40
  -8   5   1    3.70    3.90
  -8   5   1   14.50    5.40
  -8   5   1    1.80    5.60
   8   5  -1   10.50    3.10
   8   5  -1    5.50    4.60
   8   5  -1    4.20    7.90
  -8   5   1    8.70    4.40
   8   5  -1   13.30    5.10
  -8   5   1    6.10    4.40
  -8   5   1    3.90    4.30
   7  -5  -1  451.15   13.30
  -7  -5   1  437.96   13.30
  -7  -5   1  437.56   12.70
   7  -5  -1  441.66   13.30
  -7  -5   1  455.55   13.50
  -7  -5   1  452.95   13.70
  -7  -5   1  449.76   12.50
   7  -5  -1  427.96   13.40
  -7   5   1  440.76   13.90
  -7   5   1  430.76   13.20
   7   5  -1  442.56   13.60
  -7   5   1  454.95   12.50
  -7   5   1  447.46   12.40
   7   5  -1  454.65   13.30
  -7   5   1  439.96   13.40
   7   5  -1  450.35   13.50
   7   5  -1  459.35   13.20
  -6  -5   1   32.90    4.10
  -6  -5   1   43.50    4.60
   6  -5  -1   36.90    4.30
  -6  -5   1   34.90    4.40
   6  -5  -1   33.40    4.00
  -6  -5   1   45.80    4.80
  -6  -5   1   36.40    4.90
   6  -5  -1   36.20    4.50
  -6   5   1   37.20    4.90
   6   5  -1   33.60    4.50
   6   5  -1   42.50    4.90
  -6   5   1   35.50    3.90
   6   5  -1   44.20    4.60
  -6   5   1   41.50    4.10
   6   5  -1   38.20    3.10
  -6   5   1   41.90    5.10
   6   5  -1   40.30    4.70
  -6   5   1   37.30    4.50
  -6   5   1   31.60    4.20
   6   5  -1   39.70    4.50
  -5  -5   1 1179.48   24.80
  -5  -5   1 1203.78   24.90
   5  -5  -1 1228.68   25.30
   5  -5  -1 1172.88   24.90
   5  -5  -1 1188.98   24.40
  -5  -5   1 1204.88   24.90
   5  -5  -1 1212.18   25.00
  -5  -5   1 1190.08   25.10
   5  -5  -1 1169.78   24.30
  -5  -5   1 1197.78   25.30
   5   5  -1 1208.08   24.80
  -5   5   1 1230.08   25.20
   5   5  -1 1197.08   25.10
  -5   5   1 1178.18   25.00
  -5   5   1 1165.18   24.20
   5   5  -1 1210.98   25.00
   5   5  -1 1190.28   25.00
  -5   5   1 1186.28   25.10
   5   5  -1 1200.58   25.50
   5   5  -1 1197.48   22.70
  -5   5   1 1181.98   25.40
  -5   5   1 1166.78   23.90
  -5   5   1 1198.38   25.50
  -5   5   1 1224.88   25.40
   5   5  -1 1209.28   25.10
   5   5  -1 1187.78   24.90
   4  -5  -1  631.04   14.80
  -4  -5   1  633.44   14.90
   4  -5  -1  562.94   15.70
  -4  -5   1  631.64   14.90
  -4  -5   1  624.84   14.60
   4  -5  -1  618.04   13.90
   4  -5  -1  617.64   14.30
  -4  -5   1  610.44   14.90
   4  -5  -1  608.74   14.70
   4   5  -1  626.04   14.70
   4   5  -1  631.64   14.70
  -4   5   1  638.64   14.80
   4   5  -1  629.74   14.50
  -4   5   1  626.54   13.60
  -4   5   1  615.34   14.90
  -4   5   1  625.44   15.10
  -4   5   1  620.84   14.80
   4   5  -1  612.84   12.60
   4   5  -1  634.84   14.60
  -4   5   1  635.64   14.80
  -4   5   1  615.94   14.70
   4   5  -1  625.84   14.70
   4   5  -1  653.33   15.00
   3  -5  -1  219.28    7.20
   3  -5  -1  187.28    8.00
   3  -5  -1  217.68    6.40
  -3  -5   1  209.98    7.40
   3  -5  -1  212.08    7.40
  -3  -5   1  210.48    7.20
   3  -5  -1  232.48    7.50
  -3  -5   1  208.38    7.30
  -3   5   1  209.88    7.60
   3   5  -1  210.68    7.00
   3   5  -1  209.68    7.20
   3   5  -1  219.98    7.40
  -3   5   1  218.88    7.50
  -3   5   1  213.98    7.30
   3   5  -1  209.38    7.20
  -3   5   1  193.08    7.10
  -3   5   1  207.28    6.20
   3   5  -1  214.38    5.60
   3   5  -1  201.98    7.40
  -3   5   1  204.38    7.10
  -3   5   1  213.28    7.40
  -2  -5   1 2069.49   39.40
  -2  -5   1 2000.60   39.30
   2  -5  -1 2079.39   39.10
   2  -5  -1 2030.20   39.60
   2  -5  -1 2074.49   39.10
  -2  -5   1 2083.69   39.70
  -2  -5   1 2007.90   39.20
  -2  -5   1 2123.49   39.20
   2  -5  -1 2028.60   38.00
   2  -5  -1 2140.49   39.40
  -2  -5   1 2051.89   39.10
   2  -5  -1 2067.99   39.20
  -2   5   1 1995.90   39.20
  -2   5   1 2017.10   39.10
   2   5  -1 1957.10   37.70
   2   5  -1 2067.89   39.10
   2   5  -1 2069.29   38.60
  -2   5   1 2082.49   39.40
   2   5  -1 2124.09   39.30
  -2   5   1 2022.20   39.20
   2   5  -1 2124.19   39.40
  -2   5   1 2062.89   39.30
   2   5  -1 2057.49   39.30
  -2   5   1 2074.09   39.30
   2   5  -1 2032.10   39.10
   1  -5  -1  120.89    5.20
   1  -5  -1  122.59    5.70
  -1  -5   1  121.49    5.60
  -1  -5   1  121.09    5.60
   1  -5  -1  121.49    5.50
  -1  -5   1  126.19    4.30
  -1  -5   1  122.29    5.30
  -1  -5   1  123.59    5.50
   1  -5  -1  120.69    5.30
  -1  -5   1  120.89    5.30
   1  -5  -1  127.19    5.20
   1  -5  -1  126.99    5.80
   1  -5  -1  122.59    4.40
   1  -5  -1  119.39    5.40
   1   5  -1  123.39    5.40
  -1   5   1  119.69    5.50
  -1   5   1  121.89    5.50
   1   5  -1  127.89    4.80
  -1   5   1  122.79    5.30
  -1   5   1  133.69    5.40
   1   5  -1  130.29    5.60
   1   5  -1  123.19    5.30
   1   5  -1  119.99    4.50
   1   5  -1  127.99    5.60
  -1   5   1  122.39    5.20
  -1   5   1  123.89    5.60
   1   5  -1  121.99    5.50
   0  -5   1  584.44   13.30
   0  -5  -1  600.64   13.70
   0  -5   1  599.04   14.10
   0  -5   1  604.64   13.80
   0  -5  -1  600.54   14.10
   0  -5  -1  594.84   13.60
   0  -5  -1  601.64   13.20
   0  -5   1  591.54   13.90
   0  -5   1  604.04   13.70
   0  -5  -1  592.44   13.70
   0  -5  -1  608.94   13.90
   0  -5   1  602.24   13.50
   0  -5   1  606.94   13.60
   0  -5  -1  617.04   13.70
   0  -5   1  606.64   12.80
   0   5   1  595.14   13.70
   0   5  -1  601.44   13.60
   0   5  -1  612.74   13.60
   0   5  -1  589.14   13.00
   0   5  -1  611.44   13.80
   0   5  -1  602.94   13.70
   0   5   1  603.84   13.90
   0   5   1  605.44   13.50
   0   5  -1  611.44   13.70
   0   5   1  620.54   13.80
   0   5   1  610.24   13.90
   0   5   1  612.64   13.30
   1  -5   1  217.48    6.90
   1  -5   1  211.38    7.30
   1  -5   1  209.08    6.60
  -1  -5  -1  215.08    7.00
   1  -5   1  203.28    6.30
  -1  -5  -1  213.78    7.10
  -1  -5  -1  216.08    7.00
   1  -5   1  208.18    6.90
  -1  -5  -1  201.18    7.10
  -1  -5  -1  208.58    7.10
  -1   5  -1  223.48    7.20
   1   5   1  212.68    7.20
   1   5   1  209.18    6.90
  -1   5  -1  220.88    7.00
   1   5   1  202.78    7.40
   1   5   1  206.88    6.80
   1   5   1  213.78    6.40
  -1   5  -1  209.08    7.00
  -1   5  -1  215.08    6.70
  -1   5  -1  208.98    6.90
   1   5   1  207.68    7.20
  -1   5  -1  211.78    6.90
   1   5   1  215.88    7.00
  -2  -5  -1   47.50    4.40
  -2  -5  -1   43.40    4.00
  -2  -5  -1   48.70    4.70
   2  -5   1   44.90    4.30
   2  -5   1   48.10    4.10
   2  -5   1   34.00    3.40
   2  -5   1   43.50    4.00
   2  -5   1   44.40    4.20
  -2   5  -1   47.60    4.30
   2   5   1   47.40    3.90
  -2   5  -1   42.40    4.20
  -2   5  -1   48.70    4.30
   2   5   1   43.40    4.10
   2   5   1   34.40    3.70
   2   5   1   43.60    4.20
   2   5   1   38.60    3.60
   2   5   1   45.00    4.30
  -2   5  -1   42.00    4.20
   2   5   1   46.10    3.70
  -2   5  -1   37.50    3.50
   2   5   1   46.30    4.10
   3  -5   1 1392.26   27.30
  -3  -5  -1 1366.56   26.90
  -3  -5  -1 1316.47   27.50
   3  -5   1 1213.28   28.00
   3  -5   1 1361.96   27.00
  -3  -5  -1 1359.66   27.50
   3  -5   1 1354.66   27.20
  -3  -5  -1 1352.76   27.50
  -3   5  -1 1367.36   27.40
  -3   5  -1 1389.06   27.40
   3   5   1 1396.66   27.70
  -3   5  -1 1348.77   27.40
   3   5   1 1364.26   27.20
   3   5   1 1345.57   26.20
   3   5   1 1370.66   27.40
   3   5   1 1384.86   26.80
  -3   5  -1 1357.46   27.40
   3   5   1 1355.86   27.30
  -3   5  -1 1326.27   25.80
   3   5   1 1248.28   28.80
  -3   5  -1 1407.66   27.40
  -3   5  -1 1348.37   27.20
  -3   5  -1 1383.86   26.90
   3   5   1 1353.16   27.90
  -4  -5  -1  298.17    9.40
  -4  -5  -1  303.77    9.80
   4  -5   1  317.97    9.50
  -4  -5  -1  315.87    9.80
   4  -5   1  309.47    9.40
   4  -5   1  298.77    9.40
   4  -5   1  293.67    9.40
  -4  -5  -1  297.47    8.90
  -4   5  -1  305.27    8.00
   4   5   1  304.27    9.40
   4   5   1  308.67    9.90
   4   5   1  295.97    8.90
   4   5   1  310.37    9.60
  -4   5  -1  308.87    9.80
  -4   5  -1  318.77    9.20
  -4   5  -1  301.37    9.50
  -4   5  -1  294.97    9.60
   4   5   1  288.27    8.20
  -4   5  -1  306.57    9.50
  -4   5  -1  308.57    9.60
   4   5   1  307.97    9.80
  -4   5  -1  307.07    9.70
   4   5   1  315.77    9.80
   4   5   1  315.17    9.50
   5  -5   1  556.44   14.20
  -5  -5  -1  546.85   14.00
   5  -5   1  558.74   14.30
  -5  -5  -1  565.84   14.60
  -5  -5  -1  562.24   13.50
   5  -5   1  580.54   14.50
  -5  -5  -1  546.15   14.40
   5  -5   1  563.64   14.30
  -5   5  -1  549.45   14.30
   5   5   1  543.65   14.70
  -5   5  -1  532.25   14.20
   5   5   1  556.64   14.70
   5   5   1  552.84   14.50
  -5   5  -1  559.74   14.40
  -5   5  -1  538.85   13.70
   5   5   1  542.05   14.10
  -5   5  -1  560.54   12.70
  -5   5  -1  556.34   14.60
   5   5   1  564.24   14.20
   5   5   1  554.04   14.40
   6  -5   1  210.38    9.20
  -6  -5  -1  194.38   10.20
   6  -5   1  220.68    9.20
  -6  -5  -1  208.48    8.90
   6  -5   1  207.48    9.30
  -6  -5  -1  211.38    9.50
  -6  -5  -1  203.68    9.50
  -6  -5  -1  223.28    8.30
  -6   5  -1  216.28    9.50
  -6   5  -1  221.58    7.50
  -6   5  -1  220.68    9.40
   6   5   1  212.08    9.40
  -6   5  -1  216.88    9.00
  -6   5  -1  202.08    9.20
   6   5   1  231.68   10.00
  -6   5  -1  230.38    9.40
   6   5   1  221.68    9.90
  -7  -5  -1  174.48    8.40
  -7  -5  -1  176.08    9.00
   7  -5   1  160.78   10.20
   7  -5   1  177.88    9.70
  -7  -5  -1  183.88    9.90
  -7  -5  -1  174.58    9.80
   7  -5   1  171.28   10.00
   7   5   1  173.18    9.50
  -7   5  -1  172.48    7.80
  -7   5  -1  189.18    9.70
  -7   5  -1  187.68    9.60
   7   5   1  173.18   10.40
   7   5   1  187.68   10.60
  -7   5  -1  194.38    9.50
  -8  -5  -1  636.84   18.00
  -8  -5  -1  624.84   16.30
  -8  -5  -1  612.54   20.20
  -8  -5  -1  593.94   16.90
   8  -5   1  644.04   22.90
   8  -5   1  625.94   18.40
  -8  -5  -1  661.93   18.40
   8  -5   1  596.14   18.70
  -8  -5  -1  636.94   18.40
   8  -5   1  623.74   19.20
   8   5   1  619.44   18.90
  -8   5  -1  626.54   18.30
  -8   5  -1  636.64   17.90
  -8   5  -1  648.44   15.90
  -8   5  -1  603.24   18.60
   8   5   1  623.94   19.20
   8   5   1  589.44   18.70
  -8   5  -1  645.84   18.10
   8   5   1  659.83   17.80
  -9  -5  -1   14.20    6.60
  -9  -5  -1   13.80    5.50
   9  -5   1   -1.50    7.40
  -9  -5  -1   -0.90    6.80
  -9  -5  -1    7.90    6.60
   9  -5   1    2.30    4.20
  -9  -5  -1   -1.60    6.10
   9  -5   1   13.50    7.10
   9   5   1    7.70    7.10
  -9   5  -1    9.90    6.30
   9   5   1    6.20    8.40
  -9   5  -1    2.80    5.80
  -9   5  -1    7.20    5.10
  10  -5   1    9.10    8.20
 -10  -5  -1   21.50    8.10
 -10  -5  -1    3.80    7.40
 -10  -5  -1   -0.20    6.40
  10  -5   1    6.20    5.10
 -10  -5  -1   13.20    7.90
  10   5   1   14.60    7.50
 -10   5  -1   19.20    6.90
 -10   5  -1   11.20    7.90
 -10   5  -1    2.60    7.20
  11  -5   1   54.49   12.60
 -11  -5  -1   68.79   11.20
 -11  -5  -1   50.19    8.80
 -11  -5  -1   56.79   11.30
 -11  -5  -1   61.59   10.90
  11  -5   1   50.79    7.40
 -11   5  -1   24.50    9.80
 -11   5  -1   56.69   10.20
 -11   5  -1   59.99    8.90
  11   5   1   46.50    9.90
 -11  -6   1   38.10   10.70
 -11  -6   1   10.20   10.20
 -11  -6   1    6.50   10.50
 -11  -6   1   22.70    9.00
  11   6  -1   16.80    9.40
 -11   6   1    6.40   10.00
 -11   6   1   32.30   10.20
 -11   6   1   17.30    8.50
 -10  -6   1   22.60    8.10
 -10  -6   1   11.50    7.50
 -10  -6   1   34.80    8.60
 -10  -6   1   24.00    8.50
  10  -6  -1   22.80    5.20
 -10  -6   1   16.00    8.50
  10  -6  -1   40.60    9.30
 -10   6   1   40.30    8.70
 -10   6   1   24.60    8.10
  10   6  -1   12.00    7.50
  10   6  -1   28.10    7.90
  10   6  -1   31.90    5.40
 -10   6   1   25.70    7.20
  -9  -6   1   -2.40    6.10
  -9  -6   1   -2.10    6.10
  -9  -6   1    0.80    6.20
  -9  -6   1    3.20    5.70
   9  -6  -1    6.80    5.10
   9  -6  -1   12.10   11.60
  -9  -6   1    2.80    6.30
  -9   6   1    4.90    6.40
  -9   6   1    0.40    5.30
   9   6  -1    9.90    4.50
  -9   6   1    1.80    6.90
  -9   6   1   -6.20    5.40
  -9   6   1   -1.90    6.40
   9   6  -1    4.80    6.00
   9   6  -1    1.50    3.90
  -8  -6   1   54.39    6.90
  -8  -6   1   56.79    6.70
   8  -6  -1   57.29    5.70
  -8  -6   1   71.89    7.40
   8  -6  -1   56.99    6.90
  -8  -6   1   57.69    9.00
  -8  -6   1   55.19    6.40
   8  -6  -1   55.09    7.40
  -8   6   1   67.19    6.90
   8   6  -1   68.49    8.10
   8   6  -1   45.50    6.70
  -8   6   1   64.99    6.00
   8   6  -1   61.29    5.50
   8   6  -1   52.19    6.60
  -8   6   1   49.80    6.20
   8   6  -1   50.29    6.50
  -8   6   1   53.99    6.80
  -8   6   1   65.99    7.30
   8   6  -1   52.19    5.50
  -8   6   1   58.49    7.20
   7  -6  -1  396.26   12.10
   7  -6  -1  433.16   13.70
  -7  -6   1  424.56   14.10
  -7  -6   1  411.96   13.30
  -7  -6   1  422.16   14.10
   7  -6  -1  410.56   14.00
  -7  -6   1  421.96   13.30
  -7  -6   1  416.66   14.10
   7  -6  -1  410.46   13.90
  -7   6   1  436.66   12.50
   7   6  -1  434.56   13.60
  -7   6   1  433.66   14.50
  -7   6   1  419.26   13.80
   7   6  -1  416.46   10.20
   7   6  -1  416.46   14.50
  -7   6   1  400.06   12.50
   7   6  -1  423.46   15.90
  -7   6   1  430.46   14.80
  -7   6   1  426.86   14.20
  -7   6   1  408.86   15.20
   7   6  -1  418.16   13.50
  -6  -6   1   20.10    4.80
  -6  -6   1   15.50    4.20
   6  -6  -1   12.30    4.80
  -6  -6   1   12.70    4.20
   6  -6  -1   18.30    4.40
  -6  -6   1   10.10    4.20
   6  -6  -1   16.00    3.90
   6  -6  -1    7.60    4.30
   6   6  -1    7.10    4.60
  -6   6   1   14.90    4.50
  -6   6   1   11.50    4.30
  -6   6   1   11.30    4.60
  -6   6   1   22.10    4.50
   6   6  -1   11.60    4.10
  -6   6   1   13.60    3.60
   6   6  -1   20.70    4.50
   6   6  -1   14.90    4.50
   6   6  -1   14.00    2.70
  -6   6   1   12.50    3.70
   5  -6  -1  428.16   12.80
   5  -6  -1  425.56   12.10
   5  -6  -1  444.36   12.80
  -5  -6   1  449.66   12.60
  -5  -6   1  427.76   12.90
  -5  -6   1  450.45   12.90
   5  -6  -1  440.56   12.90
   5  -6  -1  445.66   11.90
  -5  -6   1  441.86   12.90
  -5   6   1  435.96   13.00
   5   6  -1  431.66   12.40
  -5   6   1  434.76   12.80
   5   6  -1  447.76   12.80
  -5   6   1  434.16   11.80
  -5   6   1  472.55   13.20
  -5   6   1  431.16   13.00
   5   6  -1  451.45   10.10
   5   6  -1  444.76   12.90
   5   6  -1  454.75   12.90
  -5   6   1  440.66   12.80
   5   6  -1  452.45   12.90
  -4  -6   1  164.08    7.90
   4  -6  -1  154.18    7.50
   4  -6  -1  168.88    7.50
   4  -6  -1  173.28    7.60
  -4  -6   1  160.08    7.70
  -4  -6   1  177.98    7.80
  -4  -6   1  161.98    7.70
   4  -6  -1  162.28    6.80
   4  -6  -1  165.18    7.80
   4   6  -1  162.28    7.60
  -4   6   1  158.78    8.20
   4   6  -1  162.78    5.50
  -4   6   1  159.08    8.00
  -4   6   1  158.38    7.60
  -4   6   1  155.78    7.70
   4   6  -1  161.18    7.50
   4   6  -1  162.58    7.20
   4   6  -1  159.18    7.60
  -4   6   1  153.28    7.80
  -4   6   1  166.78    7.70
   4   6  -1  166.18    8.10
   4   6  -1  162.08    7.50
  -4   6   1  160.48    6.40
   3  -6  -1  368.06   10.50
  -3  -6   1  349.37   10.70
   3  -6  -1  359.36   10.50
   3  -6  -1  339.37    9.20
   3  -6  -1  354.16   10.50
  -3  -6   1  330.67   10.40
   3  -6  -1  362.46   10.50
  -3  -6   1  365.46   10.60
   3   6  -1  362.36   10.00
  -3   6   1  362.36   10.80
   3   6  -1  358.76    8.60
   3   6  -1  351.46   10.50
  -3   6   1  355.86   10.40
  -3   6   1  349.96   10.60
  -3   6   1  354.36   10.60
   3   6  -1  353.06   10.50
  -3   6   1  361.26   10.90
   3   6  -1  345.27   10.60
   3   6  -1  353.36   10.60
   3   6  -1  347.37   10.30
  -3   6   1  347.57   10.40
  -2  -6   1  920.91   20.80
  -2  -6   1  947.21   20.40
   2  -6  -1  923.61   20.00
   2  -6  -1  946.01   20.50
   2  -6  -1  924.61   19.00
  -2  -6   1  952.10   20.70
   2  -6  -1  949.01   20.80
  -2  -6   1  929.11   20.60
  -2  -6   1  943.21   20.30
   2  -6  -1  962.70   20.40
   2  -6  -1  913.91   20.50
  -2  -6   1  934.21   20.50
   2   6  -1  939.91   20.30
  -2   6   1  928.81   20.50
  -2   6   1  931.01   20.30
   2   6  -1  965.60   20.60
   2   6  -1  928.01   20.40
  -2   6   1  952.60   20.50
   2   6  -1  938.41   19.60
   2   6  -1  924.41   18.80
   2   6  -1  941.91   20.30
  -2   6   1  943.21   20.70
  -2   6   1  945.81   20.40
  -2   6   1  927.11   20.30
  -1  -6   1  449.16   10.40
  -1  -6   1  459.05   12.10
  -1  -6   1  452.75   11.70
  -1  -6   1  451.85   12.10
   1  -6  -1  456.35   10.60
   1  -6  -1  442.56   12.10
  -1  -6   1  457.85   12.10
   1  -6  -1  453.65   12.10
   1  -6  -1  445.86   11.80
  -1  -6   1  467.35   11.90
   1  -6  -1  453.45   12.30
   1  -6  -1  463.25   11.80
   1   6  -1  459.75   12.00
   1   6  -1  460.95   11.90
   1   6  -1  458.35   10.80
  -1   6   1  458.35   11.90
   1   6  -1  463.15   11.90
   1   6  -1  452.35   11.80
  -1   6   1  458.45   11.90
  -1   6   1  452.25   11.60
   1   6  -1  454.05   11.00
  -1   6   1  460.95   12.00
  -1   6   1  392.16   13.50
  -1   6   1  463.15   12.00
   0  -6   1  308.97    8.30
   0  -6   1  296.87    9.30
   0  -6  -1  302.77    9.40
   0  -6   1  310.87    9.30
   0  -6   1  302.57    9.60
   0  -6  -1  294.17    8.30
   0  -6  -1  312.67    8.70
   0  -6   1  303.17    8.90
   0  -6   1  297.17    9.70
   0  -6  -1  311.47    9.80
   0  -6  -1  303.77    9.30
   0  -6  -1  317.17    9.70
   0  -6  -1  308.07    9.50
   0  -6   1  310.87    9.10
   0  -6  -1  303.17    9.20
   0   6  -1  307.77    9.30
   0   6   1  292.37    9.40
   0   6   1  303.97    8.80
   0   6  -1  310.57    9.20
   0   6   1  301.17    9.20
   0   6   1  314.97    9.40
   0   6   1  296.87    9.20
   0   6   1  287.27    9.60
   0   6  -1  318.17    9.50
   0   6  -1  309.17    9.30
   0   6  -1  296.47   10.40
   0   6  -1  290.47    8.50
  -1  -6  -1  698.13   16.20
  -1  -6  -1  687.23   16.20
   1  -6   1  657.33   16.10
  -1  -6  -1  665.83   15.70
  -1  -6  -1  679.63   15.90
   1  -6   1  669.23   15.00
   1  -6   1  652.43   16.10
  -1  -6  -1  689.23   16.20
   1  -6   1  691.93   15.30
  -1  -6  -1  683.83   15.90
   1  -6   1  638.04   16.70
   1  -6   1  646.74   15.50
  -1   6  -1  694.13   15.80
   1   6   1  691.43   15.60
   1   6   1  683.83   16.10
   1   6   1  676.73   15.80
   1   6   1  672.03   15.50
  -1   6  -1  685.03   15.90
   1   6   1  669.53   15.00
  -1   6  -1  679.03   15.90
   1   6   1  696.43   16.20
   1   6   1  674.83   15.80
  -1   6  -1  697.83   18.10
  -1   6  -1  668.13   15.40
  -1   6  -1  662.73   15.60
  -2  -6  -1  107.99    6.50
  -2  -6  -1  113.09    6.40
   2  -6   1  111.39    6.40
   2  -6   1  107.29    6.80
   2  -6   1  110.29    5.80
  -2  -6  -1  112.19    6.70
  -2  -6  -1  107.69    6.70
   2  -6   1  104.49    6.40
   2  -6   1  115.89    6.10
   2  -6   1  103.59    5.80
   2   6   1   98.09    6.10
   2   6   1  121.49    6.90
   2   6   1  113.29    6.30
   2   6   1  104.69    5.90
  -2   6  -1  111.29    6.40
   2   6   1  105.19    6.70
   2   6   1  124.99    6.20
  -2   6  -1  129.09    6.40
   2   6   1  106.99    6.70
  -2   6  -1   97.39    8.40
  -2   6  -1  113.19    6.20
  -2   6  -1   95.49    6.50
  -2   6  -1  110.69    6.40
   2   6   1  118.19    5.50
  -3  -6  -1  501.65   13.00
   3  -6   1  521.35   13.00
  -3  -6  -1  499.55   13.60
   3  -6   1  525.35   12.90
   3  -6   1  522.75   13.30
   3  -6   1  510.95   13.30
  -3  -6  -1  511.35   13.60
   3   6   1  516.55   13.60
  -3   6  -1  499.75   13.30
  -3   6  -1  517.05   13.50
   3   6   1  502.15   13.10
   3   6   1  508.05   12.00
   3   6   1  490.15   13.80
  -3   6  -1  500.85   13.30
   3   6   1  504.65   12.80
   3   6   1  489.75   13.20
  -3   6  -1  496.45   13.20
   3   6   1  502.35   13.20
   3   6   1  481.15   15.00
  -3   6  -1  515.85   13.50
  -4  -6  -1   19.10    3.70
   4  -6   1   28.80    4.70
   4  -6   1   18.40    3.90
  -4  -6  -1   13.50    3.90
   4  -6   1   21.30    4.10
  -4  -6  -1   18.90    4.20
   4  -6   1   25.30    4.20
  -4  -6  -1   28.60    4.50
  -4   6  -1   21.90    4.30
  -4   6  -1   18.00    4.00
  -4   6  -1   20.10    3.70
  -4   6  -1   22.50    3.10
   4   6   1   15.20    3.50
   4   6   1   21.70    4.30
   4   6   1   25.00    4.70
   4   6   1   20.80    4.10
   4   6   1   12.70    4.00
  -4   6  -1   21.20    4.20
  -4   6  -1   24.10    4.40
  -4   6  -1   19.10    3.70
  -4   6  -1   15.00    3.70
   4   6   1   18.40    3.80
   4   6   1   18.70    3.80
   4   6   1   21.90    3.30
   5  -6   1  386.36   12.30
  -5  -6  -1  385.76   11.40
   5  -6   1  386.56   12.30
   5  -6   1  377.96   11.90
  -5  -6  -1  400.46   12.70
  -5  -6  -1  404.06   12.70
  -5  -6  -1  378.06   12.10
   5  -6   1  389.06   12.40
  -5   6  -1  403.76   12.60
  -5   6  -1  393.06   10.30
  -5   6  -1  411.86   11.80
   5   6   1  405.26   12.30
   5   6   1  387.76   11.60
   5   6   1  386.06   12.80
  -5   6  -1  389.36   12.50
   5   6   1  377.66   12.70
   5   6   1  398.46   12.10
   5   6   1  384.26   12.70
  -5   6  -1  397.86   12.20
  -5   6  -1  363.56   12.40
   5   6   1  370.86   12.20
  -5   6  -1  378.66   12.70
   5   6   1  386.96   10.40
  -5   6  -1  391.46   12.20
   6  -6   1  500.85   15.30
  -6  -6  -1  525.45   15.70
  -6  -6  -1  529.85   15.10
  -6  -6  -1  554.44   14.40
   6  -6   1  530.15   15.40
   6  -6   1  530.45   15.50
  -6  -6  -1  530.05   15.50
  -6  -6  -1  496.45   16.20
   6  -6   1  530.65   15.30
  -6   6  -1  526.55   15.90
  -6   6  -1  534.95   14.90
   6   6   1  506.55   15.90
   6   6   1  535.15   15.40
  -6   6  -1  536.55   15.30
  -6   6  -1  530.75   13.20
   6   6   1  548.55   13.20
  -6   6  -1  537.15   15.40
   6   6   1  517.45   15.10
   6   6   1  536.05   16.20
  -6   6  -1  531.75   15.60
   6   6   1  538.95   15.70
  -6   6  -1  542.35   15.80
  -7  -6  -1   92.39    8.10
   7  -6   1   65.99    7.30
   7  -6   1   59.39    7.20
  -7  -6  -1   65.49    6.80
  -7  -6  -1   61.29    6.70
   7  -6   1   80.29    8.10
  -7  -6  -1   53.19    8.00
  -7  -6  -1   73.29    6.30
   7  -6   1   82.99    7.60
   7   6   1   75.69    6.60
  -7   6  -1   64.09    7.20
  -7   6  -1   68.79    6.90
   7   6   1   68.49    6.80
   7   6   1   65.69    6.60
   7   6   1   85.79    7.90
  -7   6  -1   83.69    7.00
   7   6   1   79.39    7.70
   7   6   1   63.29    7.90
  -7   6  -1   81.19    7.40
   7   6   1   74.69    7.30
  -7   6  -1   68.89    7.80
   8  -6   1    3.20    6.30
  -8  -6  -1    5.50    6.00
  -8  -6  -1    2.90    5.00
   8  -6   1    4.20    6.60
  -8  -6  -1    5.80    6.10
  -8  -6  -1    3.20    6.40
   8   6   1    4.80    6.00
   8   6   1    3.00    5.60
   8   6   1    1.60    7.70
  -8   6  -1    5.80    5.50
  -8   6  -1   10.90    6.90
  -8   6  -1   -0.40    4.40
   8   6   1    0.40    5.60
  -8   6  -1   -2.60    4.90
  -9  -6  -1   32.50    8.40
   9  -6   1   40.40    8.60
  -9  -6  -1   32.70    6.80
  -9  -6  -1   20.30    7.90
   9  -6   1   31.50   10.70
   9   6   1   27.50    7.40
   9   6   1   25.30    7.30
   9   6   1   22.00    8.10
  -9   6  -1   34.40    6.40
  -9   6  -1   28.40    7.40
 -10  -6  -1   34.00   10.00
 -10  -6  -1   31.00    8.10
 -10  -6  -1   48.10   10.10
  10  -6   1   33.60   10.20
 -10   6  -1   26.70    8.80
 -10   6  -1   42.40    7.80
  10   6   1   45.60    9.30
  10   6   1   45.10   10.10
  10   6   1   30.30    9.20
 -10   6  -1   45.80    9.70
 -11  -6  -1   52.19   10.50
  11  -6   1   55.59   11.60
 -11  -6  -1   44.50   13.00
 -11  -6  -1   56.69   12.60
  11  -6   1   66.99   13.80
 -11   6  -1   56.99   10.10
  11   6   1   41.70   11.60
 -11   6  -1   50.49   12.10
 -11   6  -1   64.49   12.30
  11   6   1   78.39   12.70
  11   6   1   40.80   11.60
 -10  -7   1   65.29   10.50
  10  -7  -1   86.09   11.10
 -10  -7   1   54.79   10.30
 -10  -7   1   48.90   10.80
 -10   7   1   67.09    9.40
 -10   7   1   80.89   11.10
 -10   7   1   54.29   10.30
  10   7  -1   81.89   12.20
  10   7  -1   69.99    9.70
  -9  -7   1  100.19   10.40
   9  -7  -1  119.29   10.50
  -9  -7   1  120.69   11.20
  -9  -7   1  136.09   12.90
   9  -7  -1   97.09    8.70
   9   7  -1   93.89    7.60
  -9   7   1  102.19   10.00
  -9   7   1   94.69    9.90
   9   7  -1   96.99    9.70
   9   7  -1   85.09    9.50
  -9   7   1   81.39   10.30
  -9   7   1   99.59   10.50
  -9   7   1   87.39   11.00
  -9   7   1  100.29    8.40
  -8  -7   1   21.10    7.50
   8  -7  -1   28.00    6.70
  -8  -7   1   18.00    6.40
   8  -7  -1   29.80    6.40
  -8  -7   1   17.80    6.60
  -8  -7   1   21.30    6.90
  -8   7   1   21.30    8.20
  -8   7   1   30.60    7.00
  -8   7   1   17.70    9.40
  -8   7   1   24.40    7.10
  -8   7   1   13.00    6.70
  -8   7   1    6.80    6.30
   8   7  -1   24.90    4.10
  -8   7   1   24.40    6.00
   8   7  -1   25.30    7.00
   7  -7  -1  122.49   10.30
  -7  -7   1  110.79   11.00
  -7  -7   1   99.89    9.70
   7  -7  -1  119.79    9.20
   7  -7  -1  127.49    9.70
  -7  -7   1  107.39   10.40
  -7  -7   1  131.19   10.30
  -7   7   1  125.09   10.40
   7   7  -1  119.79    9.70
   7   7  -1  107.89   10.40
  -7   7   1  114.29    9.50
   7   7  -1  126.29    6.20
  -7   7   1  115.79   11.00
  -7   7   1  132.19   10.50
  -7   7   1  143.79   12.80
   7   7  -1  104.89    8.50
   7   7  -1  105.09   10.30
  -7   7   1  123.19    8.70
  -7   7   1  124.79   12.00
  -6  -7   1   82.69    7.20
   6  -7  -1   89.39    7.50
   6  -7  -1   85.49    8.10
   6  -7  -1   84.39    7.40
   6  -7  -1   75.29    7.00
   6  -7  -1   98.79    8.40
  -6  -7   1  107.89    8.90
  -6  -7   1   91.79    7.60
  -6  -7   1   80.09    6.90
  -6   7   1   96.19    8.80
   6   7  -1   98.39    8.00
   6   7  -1  104.69    9.10
   6   7  -1   90.09    8.70
  -6   7   1   94.69    9.40
   6   7  -1   78.89    7.10
  -6   7   1   89.29    7.30
  -6   7   1   78.89    7.50
  -6   7   1   99.79    9.90
   6   7  -1   97.59    5.40
   6   7  -1   90.39    7.90
  -6   7   1   93.39    8.80
  -6   7   1   87.69    7.70
   5  -7  -1  311.57   11.80
   5  -7  -1  300.87   10.40
  -5  -7   1  304.87   11.50
   5  -7  -1  296.37   10.90
  -5  -7   1  300.07   11.40
  -5  -7   1  301.07   11.80
   5  -7  -1  281.77   11.40
   5  -7  -1  293.57   11.50
  -5  -7   1  310.97   11.60
  -5   7   1  326.97   12.20
  -5   7   1  302.97   10.20
   5   7  -1  306.77   11.20
  -5   7   1  298.67   11.70
   5   7  -1  296.27   11.40
   5   7  -1  281.37   11.50
  -5   7   1  296.57   11.50
   5   7  -1  292.97   11.20
   5   7  -1  289.57    8.20
  -5   7   1  292.87   11.20
   5   7  -1  309.07   12.00
  -5   7   1  299.27   12.00
  -4  -7   1  343.87   12.30
   4  -7  -1  360.76   11.90
   4  -7  -1  361.76   10.50
  -4  -7   1  356.66   11.70
  -4  -7   1  337.97   11.90
   4  -7  -1  325.97   11.30
   4  -7  -1  332.07   11.60
   4  -7  -1  343.47   12.00
  -4  -7   1  369.06   11.90
  -4   7   1  378.26   12.40
   4   7  -1  354.46   12.50
   4   7  -1  339.07   11.50
  -4   7   1  349.37   11.70
  -4   7   1  356.56   12.00
   4   7  -1  350.36   11.20
   4   7  -1  339.97   11.80
   4   7  -1  372.76   11.90
  -4   7   1  356.26   12.10
   4   7  -1  357.16    9.20
  -4   7   1  341.47   12.20
  -3  -7   1   78.19    6.30
   3  -7  -1   85.99    7.00
   3  -7  -1   73.49    6.70
  -3  -7   1   77.19    7.50
  -3  -7   1   77.69    7.10
   3  -7  -1   69.99    5.70
   3  -7  -1   76.79    6.60
  -3  -7   1   80.59    7.00
   3  -7  -1   80.59    6.90
  -3   7   1   74.49    6.90
  -3   7   1   76.79    7.20
   3   7  -1   80.29    6.80
   3   7  -1   73.09    5.00
   3   7  -1   59.09    5.50
  -3   7   1   77.79    6.90
  -3   7   1   69.19    6.70
   3   7  -1   85.29    6.80
   3   7  -1   69.09    5.90
  -3   7   1   80.69    8.10
   3   7  -1   78.69    7.10
   3   7  -1   74.49    6.40
   2  -7  -1  160.28    6.50
   2  -7  -1  137.79    7.50
   2  -7  -1  153.38    8.40
  -2  -7   1  180.18    8.20
  -2  -7   1  149.29    8.30
   2  -7  -1  152.78    7.60
  -2  -7   1  164.38    7.90
  -2  -7   1  160.38    8.20
  -2  -7   1  190.88    8.50
  -2  -7   1  159.18    8.00
   2  -7  -1  159.78    7.70
   2  -7  -1  149.99    8.10
  -2   7   1  158.58    7.90
  -2   7   1  156.48    8.20
   2   7  -1  165.68    8.00
  -2   7   1  157.08    8.00
   2   7  -1  152.88    8.10
   2   7  -1  144.59    8.10
   2   7  -1  154.08    7.10
   2   7  -1  157.48    8.00
   2   7  -1  161.98    7.90
  -2   7   1  141.89    8.20
  -2   7   1  161.28    8.20
   2   7  -1  157.28    6.30
  -2   7   1  165.38    8.00
  -1  -7   1   81.29    6.30
  -1  -7   1   65.19    6.70
   1  -7  -1   73.39    5.10
   1  -7  -1   75.99    5.80
   1  -7  -1   70.99    6.70
  -1  -7   1   66.49    6.30
   1  -7  -1   69.29    6.90
   1  -7  -1   66.59    6.20
  -1  -7   1   66.89    6.70
   1  -7  -1   78.69    6.60
   1  -7  -1   73.69    6.50
  -1  -7   1   77.09    6.80
  -1  -7   1   77.19    6.20
  -1  -7   1   75.49    4.90
   1  -7  -1   69.89    6.60
  -1  -7   1   64.29    6.10
  -1   7   1   80.69    6.10
  -1   7   1   82.09    6.50
  -1   7   1   75.09    7.10
   1   7  -1   70.69    5.80
   1   7  -1   69.79    6.50
  -1   7   1   77.79    7.00
   1   7  -1   67.29    6.20
   1   7  -1   73.69    6.80
   1   7  -1   70.19    6.30
   1   7  -1   72.49    5.30
  -1   7   1   74.79    6.40
  -1   7   1   68.59    6.70
   0  -7  -1  322.87   10.80
   0  -7   1  307.77   10.40
   0  -7   1  306.97    9.70
   0  -7  -1  325.37   10.40
   0  -7  -1  318.07   10.50
   0  -7   1  320.97   10.80
   0  -7   1  304.27   10.10
   0  -7  -1  328.87   10.70
   0  -7   1  314.47   10.50
   0  -7  -1  310.07    9.30
   0  -7  -1  315.27    9.10
   0  -7  -1  317.87   10.70
   0  -7   1  312.87    9.10
   0   7  -1  328.27   10.60
   0   7  -1  306.47    9.50
   0   7   1  320.37   10.40
   0   7   1  316.07   10.30
   0   7  -1  298.27   10.40
   0   7  -1  323.67   10.50
   0   7   1  310.07   10.40
   0   7   1  288.47   11.90
   0   7  -1  311.17   10.20
   0   7   1  320.77    9.80
   0   7  -1  330.57    9.20
   0   7   1  322.17   10.80
   0   7  -1  309.47   10.30
   1  -7   1  826.12   19.10
  -1  -7  -1  833.92   19.60
  -1  -7  -1  834.62   19.20
   1  -7   1  833.52   19.20
   1  -7   1  802.62   19.70
   1  -7   1  825.52   19.60
  -1  -7  -1  830.12   19.40
  -1  -7  -1  808.32   19.60
  -1  -7  -1  853.11   19.40
  -1  -7  -1  812.32   19.40
   1  -7   1  818.22   18.50
   1  -7   1  813.82   18.10
   1   7   1  836.32   19.00
  -1   7  -1  858.81   19.60
   1   7   1  822.92   19.20
  -1   7  -1  827.12   19.20
   1   7   1  824.82   18.20
   1   7   1  820.82   18.70
  -1   7  -1  806.22   19.10
  -1   7  -1  797.62   19.30
   1   7   1  836.32   19.30
   1   7   1  829.62   20.20
  -1   7  -1  823.12   19.40
  -1   7  -1  825.22   18.70
   1   7   1  827.22   19.60
   2  -7   1  291.97    9.60
   2  -7   1  292.67   10.40
   2  -7   1  304.67    9.80
   2  -7   1  295.57   11.00
  -2  -7  -1  318.57   11.20
   2  -7   1  296.37   10.50
   2  -7   1  304.67   10.80
  -2  -7  -1  295.67   10.40
  -2  -7  -1  300.87   10.90
  -2   7  -1  321.27   10.60
  -2   7  -1  305.37   10.90
   2   7   1  299.57   11.00
   2   7   1  310.07   10.30
  -2   7  -1  305.17   10.20
   2   7   1  307.07    9.30
   2   7   1  303.87   11.20
   2   7   1  312.47   10.30
  -2   7  -1  313.87   10.70
   2   7   1  305.77   10.40
  -2   7  -1  303.27   10.50
   2   7   1  305.37   10.50
  -3  -7  -1  311.17   11.20
   3  -7   1  294.57   10.80
   3  -7   1  308.07   10.90
   3  -7   1  293.47   10.10
  -3  -7  -1  299.37   10.40
  -3  -7  -1  295.57   10.90
   3  -7   1  295.97    9.90
   3   7   1  303.47    9.20
   3   7   1  285.67   10.50
   3   7   1  298.97   10.40
   3   7   1  276.17   11.10
   3   7   1  299.07   11.50
   3   7   1  295.87   10.80
  -3   7  -1  306.07   11.10
  -3   7  -1  296.27   10.90
  -3   7  -1  297.17   10.60
  -3   7  -1  303.67   10.90
   3   7   1  305.57   10.70
  -3   7  -1  313.87   10.80
  -4  -7  -1  191.18   10.00
  -4  -7  -1  188.58    9.60
   4  -7   1  195.18    9.00
   4  -7   1  205.58    9.50
   4  -7   1  195.78    9.90
   4  -7   1  193.18    9.70
  -4  -7  -1  199.88    9.10
  -4  -7  -1  199.98    9.90
  -4   7  -1  198.18    9.80
  -4   7  -1  204.08    9.60
   4   7   1  190.98    9.30
   4   7   1  196.08   10.10
   4   7   1  185.48    9.30
   4   7   1  227.28   10.70
  -4   7  -1  187.78    9.90
  -4   7  -1  203.88    9.80
   4   7   1  209.08   10.40
   4   7   1  192.08    7.60
   4   7   1  189.68    9.50
  -4   7  -1  188.78    7.30
  -4   7  -1  188.98    9.50
   4   7   1  182.48    9.10
   5  -7   1  114.29    9.60
   5  -7   1  111.89    9.60
   5  -7   1  117.19    9.10
  -5  -7  -1  107.29    9.20
  -5  -7  -1  124.79    8.70
  -5  -7  -1  100.19    9.40
   5  -7   1  100.19    8.50
  -5  -7  -1  110.59    9.30
  -5   7  -1  117.19    9.10
  -5   7  -1  112.99    6.50
  -5   7  -1  113.59    9.60
   5   7   1  103.79    9.00
  -5   7  -1  110.79    8.90
   5   7   1  122.19    9.90
  -5   7  -1  108.89    8.50
   5   7   1   82.89   11.20
   5   7   1  105.69   10.10
   5   7   1  111.89    8.80
   5   7   1  106.19    6.80
  -5   7  -1  104.39    9.80
  -5   7  -1  111.49    8.90
   5   7   1  110.99    9.10
  -5   7  -1  115.59   10.00
   5   7   1  106.09    8.80
   6  -7   1   41.20    6.30
  -6  -7  -1   77.39    7.80
  -6  -7  -1   49.80    7.30
  -6  -7  -1   56.89    7.00
   6  -7   1   47.50    7.40
   6  -7   1   58.09    6.70
  -6  -7  -1   55.79    6.00
   6  -7   1   60.39    7.00
   6   7   1   57.39    7.00
  -6   7  -1   65.19    5.30
  -6   7  -1   67.79    8.10
   6   7   1   57.79    7.60
   6   7   1   62.79    7.10
   6   7   1   64.49    7.40
   6   7   1   61.69    5.40
  -6   7  -1   78.99    7.90
  -6   7  -1   62.89    7.00
  -6   7  -1   41.00    7.10
   6   7   1   68.39    8.30
   6   7   1   60.19    7.10
  -6   7  -1   65.09    6.70
  -6   7  -1   57.49    7.50
  -7  -7  -1   15.40    7.80
   7  -7   1   22.30    7.50
  -7  -7  -1   16.30    5.60
  -7  -7  -1   28.90    6.60
   7  -7   1   25.60    6.70
  -7  -7  -1   29.30    7.10
   7   7   1   30.90    7.30
  -7   7  -1   20.50    6.20
   7   7   1   34.90    6.70
  -7   7  -1   32.90    7.50
   7   7   1   20.40    8.00
  -7   7  -1   21.40    6.50
  -7   7  -1   32.40    7.20
  -7   7  -1   19.80    4.70
   7   7   1   21.90    6.70
   7   7   1   30.60    5.10
  -8  -7  -1  171.18   14.10
  -8  -7  -1  161.38   12.10
   8  -7   1  166.58   16.80
  -8  -7  -1  153.08   14.20
   8  -7   1  181.68   14.20
  -8   7  -1  163.48   13.10
   8   7   1  180.58   14.00
   8   7   1  169.38   13.40
   8   7   1  173.08   13.30
  -8   7  -1  168.58   16.90
   8   7   1  168.88    9.50
  -8   7  -1  169.98   13.50
  -8   7  -1  159.88   10.30
  -9  -7  -1  118.09   10.90
   9  -7   1  130.29   12.30
  -9  -7  -1  129.19   10.00
  -9  -7  -1  137.39   12.50
  -9   7  -1  122.59   11.70
  -9   7  -1  135.69   11.20
   9   7   1   99.29   11.20
  -9   7  -1  106.29   10.80
   9   7   1  110.99   10.20
   9   7   1  105.69   10.30
   9   7   1  114.59   10.80
 -10  -7  -1   17.50   10.60
  10  -7   1   11.20   11.30
  10  -7   1   20.20    7.70
 -10  -7  -1    7.80   11.20
 -10  -7  -1    7.10    9.20
  10   7   1   22.20   11.20
  10   7   1    8.30   10.80
 -10   7  -1    4.90   10.20
  10   7   1   16.90    8.00
 -10   7  -1   17.00    9.80
  10   7   1   16.20   11.00
 -10   7  -1   11.10    8.20
 -10  -8   1   -9.00   11.80
  10  -8  -1    8.40   11.80
 -10  -8   1    1.90   10.60
 -10   8   1   -1.70   12.20
  10   8  -1    0.80   12.20
 -10   8   1   -3.00   10.80
 -10   8   1    5.60    9.40
  -9  -8   1   28.40   10.80
  -9  -8   1   57.49   10.20
   9  -8  -1   57.89   10.10
  -9  -8   1   57.69   10.70
   9   8  -1   33.90   10.40
  -9   8   1   50.89   10.00
  -9   8   1   45.60    8.30
  -9   8   1   39.90   10.10
  -9   8   1   53.09   10.20
   9   8  -1   54.89   10.20
   8  -8  -1  123.79   12.20
   8  -8  -1  129.19   13.50
  -8  -8   1  154.08   13.70
  -8  -8   1  134.19   11.30
  -8  -8   1  114.69   11.10
  -8   8   1  158.68   14.60
  -8   8   1  171.38   15.10
   8   8  -1  148.89   14.40
  -8   8   1  127.59   10.40
   8   8  -1  116.09    7.70
  -8   8   1  117.69   11.20
   8   8  -1  141.09   11.20
  -8   8   1  130.29   12.60
  -8   8   1  134.99   14.10
   7  -8  -1  178.68   12.20
  -7  -8   1  169.08   13.50
  -7  -8   1  199.78   13.80
  -7  -8   1  172.68   12.90
  -7   8   1  173.98   11.70
  -7   8   1  164.98   13.00
  -7   8   1  177.28   12.80
   7   8  -1  171.68    7.60
   7   8  -1  177.38   13.20
  -7   8   1  152.88   15.30
  -7   8   1  165.78   11.10
  -7   8   1  180.18   14.10
   7   8  -1  173.38   12.80
   6  -8  -1  215.08   13.80
  -6  -8   1  231.58   12.80
  -6  -8   1  222.68   12.80
  -6  -8   1  232.88   12.50
   6  -8  -1  238.28   11.30
  -6   8   1  223.38   14.30
   6   8  -1  207.08   12.90
   6   8  -1  236.58    8.10
  -6   8   1  256.67   13.30
   6   8  -1  221.98   15.00
   6   8  -1  237.68   12.60
  -6   8   1  257.77   12.90
  -6   8   1  232.58   12.40
  -6   8   1  231.28   10.60
  -6   8   1  235.28   14.30
   6   8  -1  222.18   12.10
   5  -8  -1  126.39    8.90
   5  -8  -1  104.79   11.10
   5  -8  -1  128.79   10.80
  -5  -8   1  118.29   10.30
   5  -8  -1  123.19   11.20
  -5  -8   1  118.39   11.60
  -5  -8   1  128.19   10.60
  -5  -8   1  122.89   10.40
  -5   8   1  122.99    9.50
   5   8  -1  126.19   11.60
  -5   8   1  136.09    8.50
   5   8  -1  126.69   12.10
   5   8  -1  136.39   10.10
  -5   8   1  125.59   10.30
   5   8  -1  128.09    6.50
  -5   8   1  128.89    9.80
   5   8  -1  133.09    9.90
  -5   8   1  129.19   10.30
   5   8  -1  128.29   12.50
   5   8  -1  117.19   11.30
  -5   8   1  112.49    9.80
   4  -8  -1  129.69   10.20
  -4  -8   1  127.49    9.70
  -4  -8   1  110.39   10.60
   4  -8  -1  103.89    8.70
   4  -8  -1  120.49    8.00
  -4  -8   1  113.49    9.60
   4  -8  -1  110.79   10.40
   4  -8  -1  107.19    9.50
  -4   8   1  131.09    9.60
   4   8  -1  113.49    9.10
   4   8  -1  113.19   10.10
   4   8  -1  116.19    8.80
  -4   8   1   89.79    7.60
  -4   8   1  125.29   10.40
   4   8  -1  108.39   11.00
   4   8  -1  126.59   10.60
  -4   8   1  106.09   10.30
   4   8  -1  121.69    9.10
   4   8  -1  112.99    6.30
   3  -8  -1  149.49    9.40
   3  -8  -1  137.19    9.30
   3  -8  -1  152.48    7.80
   3  -8  -1  131.39    9.10
   3  -8  -1  162.38    9.90
  -3  -8   1  142.59    9.50
  -3  -8   1  146.49   10.60
  -3  -8   1  162.18    9.80
  -3  -8   1  171.78    9.60
  -3   8   1  163.98    9.40
  -3   8   1  161.28    9.50
  -3   8   1  151.28    9.40
   3   8  -1  179.68    9.60
   3   8  -1  168.48   10.30
   3   8  -1  152.88   10.10
  -3   8   1  161.58   10.40
   3   8  -1  145.49   10.60
   3   8  -1  162.58    7.10
   3   8  -1  170.58    9.60
   3   8  -1  153.88    8.50
   2  -8  -1   71.69    6.30
   2  -8  -1   82.19    8.50
   2  -8  -1   85.39    8.40
  -2  -8   1   86.89    8.20
  -2  -8   1   86.59    8.30
  -2  -8   1   78.59    8.00
   2  -8  -1   96.39    7.80
   2  -8  -1   74.19    6.60
  -2   8   1   82.09    6.80
  -2   8   1   80.89    7.80
   2   8  -1   86.79    6.90
   2   8  -1   86.09    6.40
   2   8  -1   77.89    7.90
  -2   8   1   93.99    7.90
  -2   8   1   88.49    8.20
   2   8  -1   83.69    6.90
  -2   8   1   97.29    7.90
   2   8  -1   89.49    8.90
   2   8  -1   94.59    7.50
   2   8  -1   60.49    6.10
  -2   8   1   58.59    6.00
  -1  -8   1  257.67   11.20
   1  -8  -1  249.38   10.90
   1  -8  -1  270.47   10.00
   1  -8  -1  257.37    8.90
  -1  -8   1  272.27   10.20
  -1  -8   1  266.87   10.70
   1  -8  -1  250.77   10.90
   1  -8  -1  255.77   10.80
   1  -8  -1  255.17   10.60
   1  -8  -1  249.28   11.00
  -1  -8   1  246.88   10.80
  -1  -8   1  245.28   10.70
  -1  -8   1  259.37    8.60
  -1   8   1  258.47   11.10
   1   8  -1  252.47   10.80
   1   8  -1  253.27   11.20
   1   8  -1  255.87    9.20
   1   8  -1  277.57   10.80
  -1   8   1  270.67   10.20
  -1   8   1  258.97   11.40
  -1   8   1  274.47   10.70
   1   8  -1  240.38   11.10
   1   8  -1  265.97   10.70
  -1   8   1  234.38   10.80
  -1   8   1  260.27   10.70
   1   8  -1  261.87    9.40
   0  -8   1  267.97   11.20
   0  -8   1  266.87   11.10
   0  -8  -1  279.27    9.80
   0  -8   1  269.77   10.00
   0  -8   1  255.87    9.00
   0  -8  -1  280.57   11.30
   0  -8   1  262.87   11.10
   0  -8  -1  287.97   11.50
   0  -8   1  258.57   11.00
   0  -8   1  272.47   10.90
   0  -8  -1  286.17   11.20
   0  -8  -1  276.27   11.30
   0  -8  -1  261.67   10.90
   0  -8  -1  263.57    9.00
   0   8  -1  269.67   10.90
   0   8   1  281.87   11.80
   0   8  -1  283.57    9.90
   0   8   1  288.17   10.90
   0   8  -1  270.87    9.30
   0   8  -1  255.07   11.30
   0   8   1  282.07   10.10
   0   8   1  264.47   10.90
   0   8  -1  292.57   10.90
   0   8  -1  268.77   11.20
   0   8   1  258.07   11.50
   0   8   1  283.57   11.00
  -1  -8  -1  208.78   10.30
   1  -8   1  204.78    9.80
  -1  -8  -1  198.78   10.20
  -1  -8  -1  217.38   10.20
   1  -8   1  207.88    8.80
  -1  -8  -1  203.08    8.50
   1  -8   1  213.18   10.70
   1  -8   1  206.88    9.00
   1  -8   1  210.38   10.10
  -1   8  -1  219.28   10.90
  -1   8  -1  211.58    9.20
   1   8   1  210.88   10.80
   1   8   1  213.48    8.60
   1   8   1  187.88   10.80
  -1   8  -1  202.38    9.80
  -1   8  -1  189.18   10.30
   1   8   1  213.48   10.00
   1   8   1  205.88    9.90
   1   8   1  205.38   10.00
  -1   8  -1  225.98   10.10
   1   8   1  207.28    9.30
   2  -8   1  391.36   12.10
  -2  -8  -1  392.16   13.10
   2  -8   1  404.86   13.80
  -2  -8  -1  406.86   13.70
   2  -8   1  395.16   12.40
  -2  -8  -1  415.76   14.00
   2  -8   1  394.56   13.20
   2  -8   1  400.76   13.70
   2   8   1  390.26   13.00
   2   8   1  404.46   11.70
  -2   8  -1  402.66   13.70
   2   8   1  417.66   13.40
  -2   8  -1  421.66   14.20
  -2   8  -1  417.86   13.70
  -2   8  -1  409.56   13.30
   2   8   1  410.16   14.30
   2   8   1  407.46   13.20
  -2   8  -1  404.76   13.00
   2   8   1  384.46   12.90
   2   8   1  396.36   14.00
   3  -8   1   61.79    6.40
   3  -8   1   69.69    6.90
   3  -8   1   48.90    6.10
  -3  -8  -1   55.59    5.90
   3  -8   1   61.99    5.80
  -3  -8  -1   65.09    6.70
  -3  -8  -1   71.39    7.10
  -3   8  -1   63.59    6.50
   3   8   1   64.89    6.60
   3   8   1   52.29    6.30
  -3   8  -1   72.59    7.30
  -3   8  -1   73.59    7.00
   3   8   1   55.99    7.30
   3   8   1   55.49    6.00
   3   8   1   61.29    5.40
  -3   8  -1   49.70    6.40
  -3   8  -1   62.69    6.40
   3   8   1   68.99    7.50
   4  -8   1  189.48   10.00
  -4  -8  -1  155.48   13.20
   4  -8   1  199.28   12.20
   4  -8   1  187.28   10.90
  -4  -8  -1  189.68   10.60
   4  -8   1  201.48   11.40
  -4  -8  -1  193.28   12.10
  -4  -8  -1  184.18   11.30
  -4   8  -1  199.08    8.30
   4   8   1  187.98   10.70
   4   8   1  195.28   13.10
   4   8   1  211.38   12.60
   4   8   1  195.68    8.80
  -4   8  -1  191.48   11.10
  -4   8  -1  182.08   11.90
  -4   8  -1  200.38   11.00
  -4   8  -1  193.08   12.10
   4   8   1  199.48   10.80
  -4   8  -1  176.98   11.90
   4   8   1  179.78   11.00
   4   8   1  193.78   11.50
  -4   8  -1  197.08   11.20
  -5  -8  -1  167.38   11.60
   5  -8   1  171.08   12.20
  -5  -8  -1  143.39   10.80
   5  -8   1  165.68   12.50
   5  -8   1  150.98   11.90
   5  -8   1  146.29   11.40
  -5  -8  -1  152.88   11.60
   5  -8   1  158.48   10.70
  -5   8  -1  142.69   12.80
  -5   8  -1  165.28    8.10
  -5   8  -1  166.38   11.40
  -5   8  -1  159.38   14.40
   5   8   1  144.49   11.70
  -5   8  -1  157.78   11.30
   5   8   1  155.58   13.90
   5   8   1  165.88   11.60
   5   8   1  169.98   13.70
   5   8   1  135.69   12.60
   5   8   1  150.48   11.20
  -5   8  -1  153.28   11.10
   5   8   1  166.98   10.80
   5   8   1  164.58    8.50
  -6  -8  -1   57.79    7.70
  -6  -8  -1   65.79    7.20
   6  -8   1   55.19    8.80
   6  -8   1   74.99    9.70
  -6  -8  -1   59.89    8.40
   6  -8   1   77.39    9.00
  -6   8  -1   61.69    9.50
   6   8   1   75.79    6.10
   6   8   1   49.50    9.40
  -6   8  -1   69.69    6.00
  -6   8  -1   69.89    8.70
  -6   8  -1   61.79    8.10
   6   8   1   60.49    7.90
  -6   8  -1   83.09    8.40
   6   8   1   52.09    6.80
   6   8   1   59.59    8.80
  -7  -8  -1   70.89    9.70
   7  -8   1   56.99   10.90
   7  -8   1   56.99    8.80
   7  -8   1   60.09    8.60
  -7  -8  -1   62.59    8.00
  -7  -8  -1   55.79    9.00
  -7   8  -1   55.99    8.90
  -7   8  -1   62.19    6.30
  -7   8  -1   57.39    8.70
  -7   8  -1   50.39    8.10
  -7   8  -1   45.20   10.40
   7   8   1   51.79    8.00
   7   8   1   59.49    8.50
   7   8   1   60.49    6.30
   7   8   1   62.79    9.30
   8  -8   1   51.39    9.90
  -8  -8  -1   48.10   10.20
  -8  -8  -1   40.80   10.10
  -8  -8  -1   41.20    8.40
  -8   8  -1   43.30    8.50
   8   8   1   37.10    6.50
   8   8   1   40.70    9.20
   8   8   1   23.90    9.50
   8   8   1   47.10    9.70
  -8   8  -1   45.60    8.10
  -8   8  -1   29.90    9.00
  -9  -8  -1   14.50   11.20
   9  -8   1   30.80   11.60
  -9  -8  -1   47.30    9.60
  -9  -8  -1   49.00   12.10
  -9   8  -1   38.10   10.20
  -9   8  -1   27.70    9.90
   9   8   1   34.80   11.20
   9   8   1   37.70   11.50
  -9   8  -1   35.60    8.30
   9   8   1   37.30   11.20
  -9  -9   1    3.30   11.00
   9   9  -1   27.20   12.10
  -9   9   1   15.70   17.20
  -8  -9   1   46.80   10.20
  -8  -9   1   68.29   10.80
   8  -9  -1   60.79    9.90
  -8  -9   1   36.00   10.90
   8   9  -1   66.09   17.10
  -8   9   1   56.69   10.90
  -8   9   1   59.69   12.10
  -8   9   1   62.39   10.30
   8   9  -1   70.19   11.20
  -8   9   1   41.70    8.70
  -7  -9   1    4.80    8.40
  -7  -9   1   16.60    9.20
  -7  -9   1   29.30    8.50
   7   9  -1   23.30    8.40
  -7   9   1   14.40    8.40
  -7   9   1   27.20   12.20
  -7   9   1   15.20    6.60
  -7   9   1    9.70    8.40
  -7   9   1   24.60    9.80
   7   9  -1   18.70    8.60
  -6  -9   1   54.49    8.70
   6  -9  -1   59.29    7.70
  -6  -9   1   62.39    8.90
   6  -9  -1   32.90    8.60
  -6  -9   1   56.89    9.30
  -6   9   1   55.19    9.20
   6   9  -1   49.30    8.30
  -6   9   1   66.79    9.00
  -6   9   1   63.59    9.70
   6   9  -1   58.99    8.40
  -6   9   1   52.09    8.30
   6   9  -1   54.69    5.30
  -6   9   1   59.99    7.20
  -5  -9   1  224.78   14.30
   5  -9  -1  217.68   11.50
  -5  -9   1  207.38   13.20
  -5  -9   1  235.58   14.20
   5  -9  -1  193.58   13.80
   5  -9  -1  197.88   15.40
   5   9  -1  240.28   13.50
  -5   9   1  213.08   14.20
   5   9  -1  233.78    9.00
  -5   9   1  222.08   15.80
  -5   9   1  225.98   16.50
  -5   9   1  237.88   14.20
  -5   9   1  235.98   13.60
   5   9  -1  223.58   13.00
   4  -9  -1   10.70    6.80
   4  -9  -1   13.30    6.90
  -4  -9   1    8.20    6.40
  -4  -9   1    9.80    6.10
   4  -9  -1   12.10    5.20
  -4  -9   1   19.60    6.60
   4   9  -1   18.80    6.10
   4   9  -1    9.30    6.50
  -4   9   1   21.50    7.70
  -4   9   1   13.40    6.40
  -4   9   1    0.60    5.90
  -4   9   1   13.90    6.30
   4   9  -1   20.70    9.00
  -4   9   1   20.70    7.80
   4   9  -1    8.50    4.30
   4   9  -1    9.70    6.90
  -3  -9   1  106.79   10.90
  -3  -9   1   93.09    8.60
   3  -9  -1  104.19    8.90
  -3  -9   1   79.39    7.70
   3  -9  -1   64.29    8.00
   3  -9  -1   94.39    8.70
   3  -9  -1   94.79    8.10
  -3   9   1   88.19    8.90
   3   9  -1   84.69    7.60
  -3   9   1   89.59    8.20
   3   9  -1   95.59    9.20
   3   9  -1   86.79    7.90
  -3   9   1  108.59   10.70
  -3   9   1  102.39    9.40
  -3   9   1   95.89    8.20
   3   9  -1   94.89    7.30
  -2  -9   1   82.29    7.60
   2  -9  -1  105.59    7.80
   2  -9  -1   72.29    7.30
   2  -9  -1   85.89    8.50
  -2  -9   1  106.09   10.30
   2  -9  -1   84.59    7.60
  -2  -9   1  103.29   10.50
  -2  -9   1   99.79    9.30
   2  -9  -1   81.99    8.20
   2   9  -1  107.99   10.00
   2   9  -1   95.69    9.00
  -2   9   1   93.29    9.10
  -2   9   1   94.59    9.60
   2   9  -1  112.39    8.60
   2   9  -1   89.69    8.90
  -2   9   1  103.99    9.90
  -2   9   1  100.89    9.10
  -2   9   1   69.49    8.50
  -2   9   1   87.69    7.40
   2   9  -1   92.49    7.70
   2   9  -1   78.69    9.70
   2   9  -1   90.09    8.50
   1  -9  -1   25.70    5.80
  -1  -9   1   29.00    6.70
   1  -9  -1   27.90    4.70
  -1  -9   1   32.10    6.50
  -1  -9   1   27.30    6.20
  -1  -9   1   31.60    6.10
  -1  -9   1   29.90    6.60
  -1  -9   1   36.10    5.60
   1  -9  -1   26.10    6.00
   1  -9  -1   31.10    7.60
  -1  -9   1   31.10    5.00
   1  -9  -1   32.50    7.20
   1  -9  -1   30.30    6.60
  -1  -9   1   22.20    6.40
   1   9  -1   22.70    6.80
  -1   9   1   32.60    7.10
  -1   9   1   36.40    6.30
  -1   9   1   29.20    6.90
  -1   9   1   19.50    7.30
   1   9  -1   19.60    6.40
   1   9  -1   26.40    6.90
   1   9  -1   25.00    5.70
  -1   9   1   33.70    6.10
   1   9  -1   34.70    5.50
   1   9  -1   33.30    5.40
  -1   9   1   31.50    6.30
   1   9  -1   24.40    5.80
   0  -9   1  166.08    9.10
   0  -9   1  172.88   11.50
   0  -9   1  160.48   12.00
   0  -9  -1  151.58   11.60
   0  -9   1  182.08   11.90
   0  -9  -1  148.39    8.60
   0  -9  -1  175.88   11.50
   0  -9   1  175.88    9.70
   0  -9   1  162.78   11.00
   0  -9  -1  178.18   11.20
   0  -9   1  161.48   10.80
   0  -9  -1  183.88   12.70
   0  -9  -1  129.29   11.80
   0   9  -1  156.78   11.80
   0   9   1  159.28    9.50
   0   9   1  172.08   11.70
   0   9  -1  187.88    9.40
   0   9   1  166.08   12.50
   0   9  -1  179.78   11.20
   0   9   1  176.18   11.00
   0   9  -1  191.48    9.70
   0   9   1  160.38   12.60
   0   9  -1  157.78   11.60
   0   9  -1  176.08   12.50
   0   9   1  158.98   10.80
   0   9  -1  169.48   10.80
   1  -9   1   45.90    7.40
  -1  -9  -1   46.90    5.70
   1  -9   1   24.60    6.50
  -1  -9  -1   24.40    7.80
  -1  -9  -1   43.70    6.40
  -1  -9  -1   44.90    6.90
   1  -9   1   51.59    6.90
   1  -9   1   41.80    5.90
  -1  -9  -1   48.40    6.50
   1  -9   1   30.70    6.50
   1  -9   1   47.20    6.00
  -1   9  -1   39.60    6.30
  -1   9  -1   46.90    6.10
   1   9   1   51.19    7.70
  -1   9  -1   41.00    5.30
  -1   9  -1   38.30    6.80
  -1   9  -1   46.80    7.50
  -1   9  -1   26.20    8.50
   1   9   1   34.50    8.00
  -1   9  -1   51.49    6.80
   1   9   1   38.10    6.30
   1   9   1   46.10    6.70
   1   9   1   53.69    6.10
   1   9   1   45.60    7.30
   2  -9   1  232.08   12.60
  -2  -9  -1  242.98   12.10
  -2  -9  -1  247.28   12.50
   2  -9   1  208.68   11.50
  -2  -9  -1  238.98   12.80
   2  -9   1  242.28   12.80
   2  -9   1  242.28   13.20
   2  -9   1  222.38   10.60
   2   9   1  213.78   14.10
  -2   9  -1  248.68   12.50
   2   9   1  216.98   13.90
  -2   9  -1  224.58   13.50
   2   9   1  232.28   12.20
   2   9   1  222.88   12.10
  -2   9  -1  270.37   18.00
   2   9   1  233.28   10.30
  -2   9  -1  200.98   20.10
  -2   9  -1  234.38   11.60
   2   9   1  212.18   12.40
   2   9   1  218.78   12.90
  -3  -9  -1  301.07   13.90
   3  -9   1  278.07   12.00
   3  -9   1  259.87   13.00
  -3  -9  -1  291.97   14.20
  -3  -9  -1  299.27   13.40
   3  -9   1  292.07   14.20
   3  -9   1  284.37   14.70
  -3   9  -1  270.87   13.50
   3   9   1  275.87   13.50
  -3   9  -1  272.67   15.00
   3   9   1  275.77   15.90
   3   9   1  271.87   13.70
   3   9   1  280.57   13.00
   3   9   1  277.17   14.20
  -3   9  -1  295.37   13.50
   3   9   1  289.27   10.90
  -3   9  -1  277.17   13.40
  -4  -9  -1    9.00    6.60
   4  -9   1   18.80    7.20
   4  -9   1   21.30    6.30
  -4  -9  -1   22.80    7.30
  -4  -9  -1   15.30    6.40
  -4   9  -1   25.50    6.90
   4   9   1   20.10    6.60
  -4   9  -1   15.10    6.70
  -4   9  -1   20.70    6.50
   4   9   1    7.60    7.90
   4   9   1   17.70    5.10
  -4   9  -1   11.50    7.80
  -4   9  -1   12.80    4.80
   4   9   1   29.90    6.60
   4   9   1   26.80    8.80
  -5  -9  -1   34.70    8.10
   5  -9   1   27.30    8.80
  -5  -9  -1   20.50    9.80
  -5  -9  -1   24.60    7.00
   5  -9   1   27.90    7.20
  -5   9  -1   20.30    7.30
   5   9   1   17.50    7.20
  -5   9  -1   47.30   10.00
  -5   9  -1   20.70    7.80
   5   9   1   20.00    9.40
   5   9   1   29.60    7.60
   5   9   1   32.50    5.60
  -5   9  -1   24.40    5.10
  -5   9  -1   28.00    7.60
  -6  -9  -1   27.30    8.40
  -6  -9  -1   14.20    8.40
   6  -9   1    7.80    7.60
  -6  -9  -1   20.60    7.90
   6  -9   1    6.30    9.50
   6   9   1   12.50    5.80
   6   9   1    9.70    7.90
  -6   9  -1    7.20    8.20
   6   9   1   15.30    7.40
  -6   9  -1   13.90    5.70
  -6   9  -1   16.40    8.60
  -6   9  -1   -2.90    7.10
  -7  -9  -1   40.00   10.50
   7  -9   1   45.00   10.00
  -7  -9  -1   40.00   10.30
  -7  -9  -1   46.50    9.30
  -7   9  -1   56.89   10.10
  -7   9  -1   39.50    9.20
  -7   9  -1   36.00    6.90
  -7   9  -1   45.70   11.00
   7   9   1   44.00   12.30
   7   9   1   44.10    9.50
   7   9   1   38.60    7.20
   8  -9   1   49.10   11.90
  -8  -9  -1   48.20   12.20
  -8  -9  -1   36.40   11.80
  -8  -9  -1   48.30   10.30
  -8   9  -1   65.39   11.70
  -8   9  -1   66.19   12.00
  -8   9  -1   61.39    9.00
   8   9   1   54.29   11.00
   8   9   1   64.99   12.30
  -7 -10   1   16.20   11.80
  -7 -10   1   18.50   11.10
  -7 -10   1   20.20   11.00
   7 -10  -1   46.30   10.80
  -7  10   1   32.30    9.20
  -7  10   1   17.10   10.00
  -7  10   1   32.20   12.20
   7  10  -1   32.00   11.00
  -7  10   1   28.30   11.40
  -6 -10   1   52.79   10.50
  -6 -10   1   51.19   10.40
   6 -10  -1   48.00   10.70
  -6 -10   1   28.30   10.70
   6  10  -1   31.30    9.50
   6  10  -1   35.80   10.00
  -6  10   1   37.90    9.80
  -6  10   1   34.10    7.80
  -6  10   1   35.20   10.90
  -6  10   1   55.99   10.80
  -5 -10   1   48.10    9.70
  -5 -10   1   41.60    9.40
  -5 -10   1   40.70   10.20
   5 -10  -1   55.89    8.00
  -5  10   1   43.70    9.10
  -5  10   1   59.59   10.30
  -5  10   1   49.80    7.80
   5  10  -1   35.00    8.70
   5  10  -1   50.59    9.50
   5  10  -1   46.50    6.40
  -5  10   1   47.10    9.50
  -5  10   1   29.30   10.70
  -4 -10   1   20.60    8.60
  -4 -10   1   12.10    7.90
  -4 -10   1   27.70    8.70
   4 -10  -1   22.00    6.70
  -4  10   1   19.00   10.70
   4  10  -1   16.50    8.30
  -4  10   1   26.50    8.40
  -4  10   1   22.10    7.70
   4  10  -1   23.10    8.00
  -4  10   1   28.50    7.60
   4  10  -1   23.60    5.90
  -3 -10   1   47.30    8.20
  -3 -10   1   61.79    8.30
  -3 -10   1   58.89    8.70
  -3 -10   1   53.69    8.30
   3 -10  -1   60.09    6.90
   3  10  -1   59.69    8.60
   3  10  -1   54.39    8.10
  -3  10   1   59.79    8.60
  -3  10   1   58.39    8.40
   3  10  -1   51.89    8.40
  -3  10   1   74.69   11.20
   3  10  -1   73.09    6.70
  -3  10   1   54.29    8.70
  -2 -10   1   30.70    7.70
  -2 -10   1   37.80    8.00
  -2 -10   1   39.20    7.30
   2 -10  -1   40.30    6.00
  -2 -10   1   29.30    8.00
   2 -10  -1   38.70    8.80
  -2  10   1   36.80    7.80
  -2  10   1   42.30   10.30
   2  10  -1   47.80    7.90
  -2  10   1   47.70    9.30
   2  10  -1   35.70    7.50
  -2  10   1   40.40    8.20
   2  10  -1   40.00    6.10
   2  10  -1   36.00    7.90
   1 -10  -1  169.48   10.10
  -1 -10   1  195.68   13.90
  -1 -10   1  185.88   12.10
  -1 -10   1  191.68   15.20
  -1 -10   1  173.48   13.90
   1 -10  -1  201.58   14.00
   1 -10  -1  149.39   15.10
   1 -10  -1  187.58   13.30
  -1 -10   1  200.38   13.40
  -1  10   1  227.18   13.80
  -1  10   1  190.88   16.40
  -1  10   1  195.68   13.50
  -1  10   1  181.58   12.20
  -1  10   1  151.38   13.00
   1  10  -1  186.38   13.40
   1  10  -1  211.48   13.40
   1  10  -1  184.18   10.80
   0 -10  -1   86.79    9.30
   0 -10  -1   58.59    7.90
   0 -10  -1   65.39    9.60
   0 -10  -1   92.69    9.20
   0 -10  -1   75.69    8.80
   0 -10   1   73.89    7.80
   0 -10   1   59.69   10.00
   0 -10   1   87.89    9.90
   0 -10   1   66.69    9.00
   0  10   1   89.59    9.30
   0  10   1   80.79    9.90
   0  10  -1   67.19    8.20
   0  10   1   57.79   10.20
   0  10  -1   88.29    7.90
   0  10  -1   97.29    9.30
   0  10   1   64.79    8.20
   0  10   1   74.09    8.80
  -1 -10  -1    5.60    7.00
   1 -10   1   10.00    7.20
   1 -10   1   -3.10    7.50
  -1 -10  -1   -1.10    7.00
   1 -10   1    4.20    7.00
  -1 -10  -1   11.60    5.70
  -1 -10  -1    5.80    6.30
   1  10   1   11.70    9.20
  -1  10  -1    2.30    6.70
  -1  10  -1   -9.90    8.80
   1  10   1   -1.50    6.60
   1  10   1   10.70    5.80
   1  10   1    6.10    6.70
  -1  10  -1   14.30    6.20
  -1  10  -1    1.10    6.60
   2 -10   1   15.20    7.20
   2 -10   1   26.70    6.90
  -2 -10  -1   18.00    7.50
  -2 -10  -1   17.90    6.30
  -2 -10  -1   27.90    8.00
   2 -10   1   10.20    7.60
   2 -10   1   34.80    8.80
  -2 -10  -1   31.80    7.90
   2  10   1   10.80   10.20
   2  10   1   20.20    7.40
   2  10   1   20.70    7.40
  -2  10  -1   21.50    7.60
   2  10   1   18.40    6.30
  -2  10  -1   19.10    7.10
  -2  10  -1   12.10    6.00
  -2  10  -1   24.00    7.40
  -3 -10  -1   42.00    8.30
  -3 -10  -1   32.00    7.90
  -3 -10  -1   54.29    9.30
   3 -10   1   55.19   10.20
   3 -10   1   37.20    7.50
   3  10   1   43.00    8.00
  -3  10  -1   44.70    8.40
  -3  10  -1   44.60    8.70
  -3  10  -1   59.09    9.10
   3  10   1   42.50    6.90
   3  10   1   33.50    7.60
   4 -10   1   77.59    9.10
   4 -10   1   52.39   11.00
  -4 -10  -1   77.29   10.40
  -4 -10  -1   80.49   10.00
  -4 -10  -1   82.69    9.80
  -4  10  -1   87.79   10.30
   4  10   1   80.89    7.80
   4  10   1   51.09    9.90
  -4  10  -1   65.99    9.30
   4  10   1   77.69    9.90
  -4  10  -1   79.79    7.30
  -4  10  -1   84.39    9.50
  -5 -10  -1   63.59   10.00
   5 -10   1   41.60    9.50
  -5 -10  -1   68.69   10.70
  -5 -10  -1   66.49   11.20
   5  10   1   60.99   10.00
  -5  10  -1   56.39    7.50
  -5  10  -1   57.89   10.60
  -5  10  -1   64.49   10.50
   5  10   1   63.79    7.80
  -5  10  -1   70.09   10.40
   5  10   1   72.19   10.40
  -6 -10  -1   35.70   11.30
  -6 -10  -1   30.10   11.20
  -6 -10  -1   29.10   10.20
   6 -10   1   33.80   10.40
  -6  10  -1   23.20   10.70
   6  10   1   22.90    7.50
  -6  10  -1   16.10   10.20
   6  10   1   36.30   10.50
  -6  10  -1   14.20   11.10
   6  10   1   23.70   10.10
  -6  10  -1   23.40   14.10
  -7 -10  -1    6.00   13.00
   7 -10   1   35.20   12.00
  -7 -10  -1   39.70   12.70
  -7 -10  -1   38.30   11.40
  -7  10  -1   38.40   12.40
   7  10   1   28.00   12.40
   7  10   1   18.80   12.00
  -7  10  -1   15.10   11.40
   5 -11  -1   27.90   12.60
  -5 -11   1    8.40   11.40
  -5 -11   1    1.20   10.70
  -5 -11   1   16.20   11.20
  -5  11   1   14.10   11.40
   5  11  -1    6.30   10.80
  -5  11   1   -6.70   10.60
  -5  11   1  -13.10    8.70
  -5  11   1   -3.70   11.60
  -4 -11   1   58.79   10.40
  -4 -11   1   51.49   10.20
  -4 -11   1   44.90   11.00
  -4 -11   1   51.49   11.50
   4  11  -1   56.69   11.60
  -4  11   1   68.29   11.50
  -4  11   1   61.69   12.10
   4  11  -1   63.19   11.40
  -4  11   1   63.79   11.10
  -3 -11   1   78.09   10.30
  -3 -11   1   56.09   11.00
  -3 -11   1   44.80   11.00
  -3 -11   1   65.49   12.00
   3 -11  -1   66.49    8.70
  -3  11   1   64.69   11.30
  -3  11   1   68.79   10.90
   3  11  -1   65.29   10.70
   3  11  -1   58.69   10.80
   3  11  -1   60.49    8.50
  -3  11   1   52.99   10.50
  -2 -11   1    6.30    8.00
   2 -11  -1   11.10    7.00
  -2 -11   1    5.80    9.60
  -2 -11   1   21.30    9.30
  -2 -11   1   -2.40    9.00
  -2  11   1    7.90    9.00
   2  11  -1   -4.90    6.80
   2  11  -1    4.20    8.90
  -2  11   1    5.20    8.90
  -2  11   1    4.30    9.10
   2  11  -1    8.30    9.10
  -1 -11   1   20.30    9.90
  -1 -11   1   23.10    8.10
   1 -11  -1   21.70    7.10
  -1 -11   1    4.10    9.30
   1  11  -1   16.00    9.60
   1  11  -1    8.40    9.20
  -1  11   1   18.60    8.20
  -1  11   1   16.20    8.70
   1  11  -1   20.30    8.60
  -1  11   1   11.50    8.90
   0 -11   1   12.20    8.90
   0 -11  -1   17.50    7.00
   0 -11   1    6.00    7.60
   0 -11  -1    7.30    9.20
   0 -11   1   11.40   12.30
   0 -11   1   20.80    9.70
   0  11   1   21.50    8.10
   0  11  -1    9.90    8.40
   0  11  -1    9.80    7.80
   0  11  -1   22.10    9.10
   0  11  -1   -2.50    9.00
   0  11   1   21.40    9.40
   0  11   1   14.60    9.60
  -1 -11  -1  114.59   12.30
  -1 -11  -1   99.79   11.60
   1 -11   1  109.99   13.60
   1 -11   1  118.79   12.30
  -1 -11  -1  109.69   11.80
  -1 -11  -1  131.39   12.60
   1 -11   1  119.89   10.10
  -1  11  -1  114.39   11.70
   1  11   1  113.19   11.30
  -1  11  -1  117.89   11.70
  -1  11  -1  138.69   11.30
   1  11   1  115.69   11.70
   1  11   1  129.19   10.40
  -2 -11  -1   42.10    8.50
   2 -11   1   46.20    8.70
  -2 -11  -1   42.00    9.70
  -2 -11  -1   42.70   10.80
  -2 -11  -1   66.29   11.00
   2  11   1   47.30   10.00
  -2  11  -1   50.79   12.10
  -2  11  -1   46.80   10.10
   2  11   1   42.20   10.40
  -2  11  -1   37.50   10.40
   2  11   1   57.29    8.70
   3 -11   1   14.50    8.50
  -3 -11  -1   18.90    9.90
  -3 -11  -1   11.40    8.40
  -3 -11  -1   17.40   10.60
  -3 -11  -1    9.50   10.20
  -3  11  -1   13.70   10.20
   3  11   1    3.10    9.40
  -3  11  -1   13.10   10.00
   3  11   1   16.70    7.90
  -3  11  -1   17.40   10.50
   3  11   1   28.40   10.00
  -4 -11  -1   26.10   12.10
  -4 -11  -1   25.40   11.30
   4 -11   1   31.50   10.20
  -4 -11  -1   16.90   11.20
   4  11   1   17.60   11.30
  -4  11  -1   36.30   12.00
  -4  11  -1   21.20    8.10
   4  11   1   33.70   11.90
  -4  11  -1   26.60   11.40
   4  11   1   21.20    8.80
  -4  11  -1   26.40   11.40
  -5 -11  -1    1.80   11.50
  -5 -11  -1  -10.60   10.70
   5 -11   1   -6.30   10.60
  -5 -11  -1    6.10   13.50
  -5  11  -1  -14.50   12.00
  -5  11  -1   23.70   12.60
  -5  11  -1   10.20   12.30
   5  11   1   19.70   12.60
  -1  12   1   58.89   12.70
   0 -12  -1   23.00   14.10
   0  12  -1   -4.50   12.20
   0  12   1    4.80   11.80
 -13   0   2   12.00    9.20
 -13   0   2    5.80    9.80
 -13   0   2   13.40    8.80
 -12   0   2   57.49    8.50
  12   0  -2   49.99    8.60
 -12   0   2   40.70    7.40
 -12   0   2   53.09    8.30
 -11   0   2   46.10    6.80
  11   0  -2   46.70    4.00
 -11   0   2   37.40    6.80
 -11   0   2   33.20    6.00
 -10   0   2   44.40    5.40
  10   0  -2   40.90    3.50
  10   0  -2   44.60    6.30
 -10   0   2   37.60    5.60
 -10   0   2   37.00    5.30
  10   0  -2   39.80    6.00
 -10   0   2   38.60    6.80
  10   0  -2   48.30    5.80
   9   0  -2    3.00    2.20
   9   0  -2    0.70    3.10
  -9   0   2    3.50    3.60
   9   0  -2   -1.80    3.70
  -9   0   2   -0.80    4.40
  -9   0   2   -0.20    3.60
   9   0  -2   -1.70    3.70
  -9   0   2   -1.20    3.30
  -8   0   2   74.19    6.00
  -8   0   2   67.09    5.90
  -8   0   2   69.09    5.70
  -8   0   2   72.89    6.80
   8   0  -2   65.69    6.20
   8   0  -2   75.49    3.80
   8   0  -2   71.19    5.70
   8   0  -2   77.69    5.70
   8   0  -2   65.89    5.30
  -7   0   2  903.01   20.10
   7   0  -2  921.11   19.30
  -7   0   2  902.21   19.60
   7   0  -2  937.91   19.20
  -7   0   2  902.01   19.40
  -7   0   2  931.61   19.60
   7   0  -2  925.71   17.40
   7   0  -2  916.11   19.60
   7   0  -2  899.31   19.20
  -6   0   2  157.08    5.80
  -6   0   2  153.78    6.40
  -6   0   2  146.29    5.50
   6   0  -2  149.19    5.40
   6   0  -2  151.08    5.30
  -6   0   2  147.09    5.60
  -6   0   2  150.38    5.20
   6   0  -2  152.88    5.40
   6   0  -2  155.18    5.80
   6   0  -2  146.29    3.90
  -5   0   2 2530.55   46.70
   5   0  -2 2609.54   46.70
   5   0  -2 2552.14   46.50
   5   0  -2 2545.65   45.20
   5   0  -2 2619.24   47.00
  -5   0   2 2461.15   46.40
  -5   0   2 2519.75   46.90
  -5   0   2 2513.95   46.70
   5   0  -2 2545.95   46.60
  -5   0   2 2549.44   47.30
   4   0  -2  289.37    7.00
   4   0  -2  284.27    6.60
  -4   0   2  284.57    6.60
   4   0  -2  286.47    6.60
   4   0  -2  278.37    6.50
  -4   0   2  282.17    6.60
  -4   0   2  280.67    6.90
  -4   0   2  277.87    6.50
  -3   0   2  276.37    6.00
   3   0  -2  270.47    5.90
   3   0  -2  280.77    6.40
   3   0  -2  270.57    5.90
  -3   0   2  276.77    6.00
   3   0  -2  274.77    6.00
  -3   0   2  276.07    6.00
  -3   0   2  276.97    6.40
  -1   0   2 1330.67   24.00
   0   0  -2   10.80    1.00
   0   0  -2    9.90    0.90
   0   0   2    7.60    0.90
   0   0   2    9.30    0.80
   0   0   2   11.50    0.90
   0   0   2    9.70    0.90
   0   0   2   11.50    0.80
   1   0   2 1371.46   25.30
   1   0   2 1383.86   24.90
  -1   0  -2 1370.56   24.30
  -1   0  -2 1368.46   25.20
   1   0   2 1345.57   25.20
   1   0   2 1408.26   25.10
  -1   0  -2 1383.66   25.00
   1   0   2 1370.86   25.00
   2   0   2 1392.76   26.20
  -2   0  -2 1387.16   26.00
   2   0   2 1425.06   26.00
  -2   0  -2 1405.86   26.20
  -2   0  -2 1377.66   25.70
   2   0   2 1426.26   26.00
  -2   0  -2 1407.56   26.00
   2   0   2 1355.36   25.90
   2   0   2 1419.76   25.70
   3   0   2 6189.78  110.39
   3   0   2 6274.97  110.39
  -3   0  -2 6128.89  110.59
   4   0   2  614.44   13.10
  -4   0  -2  645.34   13.30
   4   0   2  627.24   14.10
  -4   0  -2  636.04   13.70
  -4   0  -2  636.34   14.00
   4   0   2  638.44   13.70
   4   0   2  636.94   13.70
  -4   0  -2  623.14   13.60
   4   0   2  641.94   13.20
   5   0   2   95.99    4.30
   5   0   2   82.69    5.50
   5   0   2   90.09    5.00
  -5   0  -2   94.49    5.40
  -5   0  -2   91.49    5.00
  -5   0  -2   97.39    4.70
   5   0   2   92.29    4.90
  -5   0  -2   95.89    5.00
   5   0   2   88.29    4.30
   6   0   2  952.30   20.30
  -6   0  -2  955.60   20.00
   6   0   2  951.90   20.60
   6   0   2  981.10   20.50
   6   0   2  945.11   19.50
   6   0   2  937.91   21.10
  -6   0  -2  931.01   20.40
  -6   0  -2  947.91   20.50
  -6   0  -2  943.81   20.80
   7   0   2   38.90    4.50
  -7   0  -2   49.30    5.30
   7   0   2   35.00    4.40
   7   0   2   42.40    4.80
  -7   0  -2   38.10    4.20
  -7   0  -2   47.20    4.90
   7   0   2   33.40    3.80
   7   0   2   43.00    5.10
  -7   0  -2   34.90    4.40
   7   0   2   37.00    3.60
   8   0   2   55.49    6.00
   8   0   2   49.80    5.70
   8   0   2   65.99    6.20
  -8   0  -2   49.99    4.80
  -8   0  -2   54.09    5.60
  -8   0  -2   47.90    5.60
   8   0   2   45.80    4.40
   8   0   2   57.79    5.40
   9   0   2   14.80    4.80
   9   0   2    6.40    5.80
  -9   0  -2    8.00    4.30
  -9   0  -2    8.40    4.90
  -9   0  -2    9.90    5.00
   9   0   2   16.10    4.10
   9   0   2   16.60    5.40
  10   0   2   88.39    6.80
  10   0   2   80.59    8.60
 -10   0  -2  104.19   10.70
 -10   0  -2  100.09    8.60
 -10   0  -2   92.79    7.80
  10   0   2   84.59    8.70
 -11   0  -2  315.77   16.20
  11   0   2  307.37   12.90
 -11   0  -2  316.07   16.60
 -11   0  -2  353.26   15.30
 -12   0  -2   16.80    8.00
 -12   0  -2    2.10    8.80
  12   0   2   -2.20    7.30
 -12   0  -2   -3.80    9.50
 -12   0  -2    2.60    9.00
 -13  -1   2   33.60   10.10
 -13  -1   2   30.00    8.70
 -13  -1   2   26.10    9.70
 -13  -1   2   15.80   10.20
 -13   1   2   18.00    8.60
 -13   1   2   37.70   10.30
 -13   1   2   30.30    9.90
 -12  -1   2  439.66   17.20
 -12  -1   2  433.46   17.30
 -12  -1   2  455.45   17.60
 -12  -1   2  428.66   17.30
 -12   1   2  424.76   17.10
 -12   1   2  432.96   17.10
 -12   1   2  453.85   17.50
  12   1  -2  381.46   16.20
 -11  -1   2  109.69   10.10
 -11  -1   2   82.49    7.60
  11  -1  -2   84.79    8.40
 -11  -1   2   86.59    8.00
 -11   1   2  105.79   10.40
 -11   1   2   91.69    8.10
  11   1  -2   89.99    9.30
  11   1  -2   90.79    6.80
 -11   1   2   89.19    8.20
  10  -1  -2   80.99    4.40
  10  -1  -2   80.19    7.40
 -10  -1   2   65.49    7.40
 -10  -1   2   92.19    8.90
 -10  -1   2   89.29   11.90
  10  -1  -2   85.79    7.40
  10  -1  -2   86.79    8.10
 -10  -1   2   77.49    8.10
  10   1  -2   87.09    7.50
 -10   1   2   93.29    8.40
 -10   1   2   73.59    7.30
  10   1  -2   90.79    8.00
 -10   1   2   78.49    8.20
  10   1  -2   85.49    5.90
 -10   1   2   84.19    6.80
  10   1  -2   86.59    7.30
   9  -1  -2  302.17   11.10
  -9  -1   2  295.67   12.10
   9  -1  -2  291.17   10.60
   9  -1  -2  302.57    7.20
  -9  -1   2  312.37   10.80
   9  -1  -2  322.27   10.40
  -9  -1   2  298.27   10.70
  -9  -1   2  315.07   10.60
  -9   1   2  289.67   11.20
  -9   1   2  296.17   10.60
   9   1  -2  300.67    8.40
  -9   1   2  310.27   10.60
  -9   1   2  303.97   10.60
   9   1  -2  287.57    9.50
   9   1  -2  285.27   10.60
  -8  -1   2  127.99    6.70
  -8  -1   2  118.19    6.70
  -8  -1   2  133.69    8.40
   8  -1  -2  125.49    7.00
   8  -1  -2  123.89    6.60
   8  -1  -2  116.89    6.50
  -8  -1   2  129.79    6.90
   8  -1  -2  131.79    6.80
   8  -1  -2  122.19    4.00
   8   1  -2  125.99    6.50
  -8   1   2  126.79    7.40
   8   1  -2  113.59    7.10
  -8   1   2  114.39    6.80
  -8   1   2  131.19    6.80
   8   1  -2  116.99    6.80
   8   1  -2  121.79    6.00
   8   1  -2  123.09    5.10
  -8   1   2  120.59    6.70
   7  -1  -2  467.65   10.30
   7  -1  -2  536.75   12.90
   7  -1  -2  523.45   12.50
  -7  -1   2  520.65   12.60
   7  -1  -2  535.75   12.70
   7  -1  -2  512.05   12.40
  -7  -1   2  513.45   10.50
  -7  -1   2  518.85   12.80
  -7  -1   2  517.15   12.70
  -7  -1   2  529.05   13.80
   7   1  -2  522.35   12.50
  -7   1   2  526.35   13.20
  -7   1   2  510.75   12.50
   7   1  -2  523.95   12.80
  -7   1   2  523.95   12.70
  -7   1   2  522.45   12.50
   7   1  -2  518.05   11.10
   7   1  -2  517.85   11.80
   7   1  -2  513.45   12.50
  -7   1   2  527.85   12.70
   6  -1  -2  172.68    6.00
   6  -1  -2  175.78    6.30
   6  -1  -2  184.78    6.00
  -6  -1   2  183.58    6.20
   6  -1  -2  177.28    4.00
  -6  -1   2  177.28    6.20
  -6  -1   2  177.38    4.50
   6  -1  -2  183.28    6.10
  -6  -1   2  178.48    6.20
  -6  -1   2  186.58    7.20
   6   1  -2  181.08    7.10
  -6   1   2  180.28    6.10
  -6   1   2  183.28    6.60
   6   1  -2  186.48    5.50
  -6   1   2  178.28    6.10
  -6   1   2  173.98    6.10
  -6   1   2  179.48    6.10
   6   1  -2  187.28    6.10
   6   1  -2  176.18    6.00
   6   1  -2  181.28    5.10
   5  -1  -2  990.60   19.40
  -5  -1   2  943.71   19.30
  -5  -1   2  927.61   19.10
  -5  -1   2  950.20   19.10
   5  -1  -2  954.50   19.00
   5  -1  -2  958.40   19.00
  -5  -1   2  963.30   17.80
   5  -1  -2  979.60   19.20
  -5   1   2  937.21   19.10
   5   1  -2  989.70   19.40
  -5   1   2  947.91   19.10
  -5   1   2  985.10   19.20
   5   1  -2  958.80   19.00
   5   1  -2  968.70   18.20
  -5   1   2  943.21   19.20
  -5   1   2  963.40   19.40
   5   1  -2  966.90   19.00
   5   1  -2  973.60   18.50
   4  -1  -2 5782.22  100.69
  -4  -1   2 5595.84  100.49
  -4  -1   2 5600.44  100.29
   4  -1  -2 5728.33  100.19
  -4   1   2 5458.05  100.49
  -4   1   2 5687.13  100.49
   4   1  -2 5588.24  100.19
   4   1  -2 5661.53  100.19
   4   1  -2 5731.53  100.59
  -4   1   2 5499.85  100.29
   3  -1  -2  358.46    7.80
  -3  -1   2  357.56    7.50
   3  -1  -2  349.47    7.40
  -3  -1   2  339.97    7.40
   3  -1  -2  350.76    7.50
  -3  -1   2  361.66    7.20
  -3  -1   2  355.96    6.90
  -3  -1   2  351.06    7.70
  -3   1   2  347.77    7.50
  -3   1   2  354.76    7.60
   3   1  -2  364.96    7.80
   3   1  -2  354.56    7.40
  -3   1   2  355.66    7.80
  -3   1   2  335.17    7.40
   3   1  -2  347.17    7.40
   3   1  -2  358.66    6.90
   2  -1  -2  738.03   14.10
  -2  -1   2  721.73   14.20
  -2  -1   2  705.23   13.60
   2  -1  -2  721.43   13.70
  -2  -1   2  717.93   13.60
   2  -1  -2  748.23   13.30
  -2  -1   2  722.23   13.20
  -2  -1   2  720.93   13.80
   2  -1  -2  741.03   13.70
   2   1  -2  733.63   13.60
  -2   1   2  719.03   13.70
  -2   1   2  748.93   14.20
   2   1  -2  753.32   13.90
  -2   1   2  751.62   13.40
  -2   1   2  739.43   13.60
   2   1  -2  737.43   13.60
  -2   1   2  735.43   13.70
   1  -1  -2 1649.13   29.30
   1  -1  -2 1682.93   29.90
  -1  -1   2 1469.95   29.50
  -1  -1   2 1620.44   29.70
   1  -1  -2 1642.84   29.30
  -1  -1   2 1651.33   29.30
  -1  -1   2 1637.94   29.20
   1  -1  -2 1662.23   29.50
  -1  -1   2 1679.13   29.20
   1  -1  -2 1681.03   29.40
   1  -1  -2 1664.83   29.30
   1   1  -2 1674.03   29.20
  -1   1   2 1655.93   29.50
  -1   1   2 1543.45   29.40
   1   1  -2 1654.83   29.20
  -1   1   2 1637.94   29.30
  -1   1   2 1592.74   29.80
   1   1  -2 1643.24   29.20
   1   1  -2 1647.84   29.30
  -1   1   2 1628.24   29.40
  -1   1   2 1694.73   29.40
   1   1  -2 1660.33   29.70
   0   1   2 2798.12   50.79
   0   1   2 2854.71   50.59
   0   1  -2 2889.61   50.99
  -1  -1  -2 1881.51   33.50
  -1  -1  -2 1874.51   34.20
   1  -1   2 1840.62   34.50
  -1  -1  -2 1863.81   34.30
  -1  -1  -2 1886.31   34.30
   1  -1   2 1922.41   34.20
   1  -1   2 1907.61   33.50
  -1  -1  -2 1909.91   34.40
   1  -1   2 1922.71   34.00
   1  -1   2 1956.70   34.20
  -1   1  -2 1887.21   34.20
  -1   1  -2 1890.31   34.30
   1   1   2 1867.81   34.40
   1   1   2 1903.01   34.30
   1   1   2 1921.01   34.30
   1   1   2 1798.22   34.30
  -1   1  -2 1930.41   34.00
  -1   1  -2 1891.61   33.60
  -1   1  -2 1905.61   34.50
  -2  -1  -2 1507.35   28.20
  -2  -1  -2 1501.55   27.20
  -2  -1  -2 1520.25   28.10
   2  -1   2 1532.45   27.40
  -2  -1  -2 1539.25   28.30
   2  -1   2 1540.15   28.10
  -2  -1  -2 1514.85   28.20
  -2  -1  -2 1492.15   28.10
   2  -1   2 1496.35   28.40
   2  -1   2 1559.74   28.10
   2   1   2 1536.45   28.20
   2   1   2 1493.35   28.30
   2   1   2 1515.45   28.10
  -2   1  -2 1494.55   28.10
   2   1   2 1484.75   28.10
   2   1   2 1540.85   28.20
  -2   1  -2 1515.85   28.30
  -2   1  -2 1502.55   28.10
  -2   1  -2 1528.55   27.70
  -3  -1  -2 1022.80   19.80
   3  -1   2 1020.90   20.40
  -3  -1  -2 1000.00   19.00
   3  -1   2 1043.50   20.00
  -3  -1  -2 1026.90   20.10
   3  -1   2 1033.00   20.10
  -3  -1  -2 1048.30   20.40
  -3  -1  -2 1014.50   20.00
   3  -1   2 1015.80   19.30
  -3   1  -2 1018.10   20.00
  -3   1  -2 1029.70   20.30
   3   1   2 1035.60   20.10
   3   1   2 1004.40   19.90
  -3   1  -2 1013.20   19.30
   3   1   2 1006.50   20.40
   3   1   2 1054.19   20.10
  -3   1  -2 1034.80   20.10
   3   1   2 1046.80   19.90
   4  -1   2 1603.24   30.10
  -4  -1  -2 1548.05   29.50
  -4  -1  -2 1561.34   30.30
  -4  -1  -2 1574.24   30.10
   4  -1   2 1550.24   29.40
  -4  -1  -2 1525.55   29.90
   4  -1   2 1559.54   29.10
   4  -1   2 1548.25   30.40
   4  -1   2 1566.64   29.90
  -4  -1  -2 1569.84   29.80
   4  -1   2 1586.64   29.90
   4   1   2 1533.25   29.80
  -4   1  -2 1568.44   29.90
   4   1   2 1550.74   29.60
  -4   1  -2 1617.64   30.20
   4   1   2 1580.74   30.00
   4   1   2 1535.45   30.40
   4   1   2 1575.04   29.60
  -4   1  -2 1538.45   29.20
  -4   1  -2 1532.55   29.90
  -5  -1  -2  396.36   10.10
  -5  -1  -2  381.16   10.50
   5  -1   2  365.56    9.90
   5  -1   2  383.96   10.70
   5  -1   2  378.86    9.20
  -5  -1  -2  384.16   10.10
   5  -1   2  394.46   10.00
  -5  -1  -2  390.46    9.90
   5  -1   2  388.56    9.30
  -5  -1  -2  378.26    9.30
   5  -1   2  380.56   10.30
  -5   1  -2  385.26   10.00
   5   1   2  428.16   10.30
   5   1   2  398.16    9.60
  -5   1  -2  390.56   10.10
   5   1   2  391.96    9.70
   5   1   2  365.66   10.50
   5   1   2  405.46   10.20
  -5   1  -2  387.06    9.40
   6  -1   2 1639.94   31.80
   6  -1   2 1675.23   32.00
   6  -1   2 1668.93   33.00
   6  -1   2 1717.13   33.10
   6  -1   2 1626.04   33.70
  -6  -1  -2 1652.93   33.10
  -6  -1  -2 1652.53   32.60
  -6  -1  -2 1662.13   33.00
  -6  -1  -2 1667.03   33.40
   6  -1   2 1696.23   33.20
  -6  -1  -2 1666.03   32.00
   6   1   2 1709.73   33.00
  -6   1  -2 1647.84   32.90
   6   1   2 1663.23   32.50
   6   1   2 1670.23   33.00
   6   1   2 1637.94   32.10
  -6   1  -2 1675.03   33.00
  -6   1  -2 1650.93   33.20
  -6   1  -2 1662.03   32.20
   7  -1   2  215.18    9.50
  -7  -1  -2  204.58    8.60
   7  -1   2  208.68    8.70
   7  -1   2  219.08    8.70
   7  -1   2  198.98    7.60
   7  -1   2  231.38    8.90
  -7  -1  -2  214.98    9.40
  -7  -1  -2  201.38    8.10
   7  -1   2  218.28    7.30
  -7  -1  -2  225.98    8.90
   7   1   2  210.68   11.20
  -7   1  -2  219.28    8.90
   7   1   2  212.58    8.30
  -7   1  -2  217.18    8.70
  -7   1  -2  230.98    8.10
  -7   1  -2  213.58    8.70
   7   1   2  234.28    9.00
   7   1   2  226.98    8.40
   7   1   2  219.28    7.70
   8  -1   2  292.57   10.10
   8  -1   2  280.67   10.70
   8  -1   2  294.97   11.20
  -8  -1  -2  299.17   10.50
  -8  -1  -2  296.77   10.80
   8  -1   2  299.67   11.20
  -8  -1  -2  286.97   11.00
   8  -1   2  308.47   12.10
   8  -1   2  304.37    9.30
  -8   1  -2  301.87   11.20
  -8   1  -2  289.27   10.00
   8   1   2  293.07   11.40
   8   1   2  293.67   10.50
   8   1   2  284.47   11.20
   8   1   2  299.77    9.70
   8   1   2  305.77   10.80
  -8   1  -2  318.57   11.10
   9  -1   2  111.39   10.30
   9  -1   2  116.79    8.70
   9  -1   2   93.09    7.00
  -9  -1  -2  110.19    7.60
   9  -1   2   97.79    8.70
   9  -1   2  101.49    9.70
  -9  -1  -2  104.39   10.30
  -9  -1  -2   92.99    9.20
   9  -1   2  101.39   10.50
  -9  -1  -2   94.99    9.90
   9   1   2  112.49   10.70
  -9   1  -2   98.99    9.40
  -9   1  -2  106.39    8.30
   9   1   2  100.19    9.40
   9   1   2   98.99    7.40
  -9   1  -2  108.39    9.50
   9   1   2   98.09    8.00
  -9   1  -2   70.69    7.30
  10  -1   2  159.08    8.80
 -10  -1  -2  169.88   11.60
  10  -1   2  143.89   11.00
 -10  -1  -2  177.68   12.00
  10  -1   2  148.99   12.10
 -10  -1  -2  159.58   11.20
 -10  -1  -2  147.59    9.60
 -10   1  -2  147.49   10.60
 -10   1  -2  162.18   11.70
  10   1   2  137.69   12.10
  10   1   2  143.29   13.70
  10   1   2  157.88    9.50
 -10   1  -2  125.79   11.90
 -11  -1  -2  102.69    9.80
 -11  -1  -2  104.09   10.10
  11  -1   2  122.09   10.20
 -11  -1  -2  100.89    9.90
 -11  -1  -2  139.19   13.30
 -11   1  -2  123.39   10.80
 -11   1  -2  118.39   10.50
  11   1   2  119.19   10.10
 -11   1  -2  129.39   12.60
 -12  -1  -2   11.20    9.10
 -12  -1  -2   21.50   10.20
  12  -1   2   15.50    7.50
 -12  -1  -2   10.90    8.20
 -12  -1  -2   17.60    9.50
 -12   1  -2   22.40   10.20
 -12   1  -2    4.70    9.00
 -12   1  -2   16.20    9.80
  12   1   2   20.90    7.90
 -13  -2   2   58.99   11.20
 -13  -2   2   45.90   10.20
 -13  -2   2   46.50   11.20
 -13  -2   2   59.49   11.20
 -13   2   2   46.10   10.60
 -13   2   2   40.60   10.10
 -13   2   2   36.10   10.60
 -12  -2   2   -0.50    7.50
 -12  -2   2   -4.20    7.40
 -12  -2   2   -1.80    6.90
 -12  -2   2    3.10    7.10
 -12   2   2   -7.40    7.30
 -12   2   2   -1.80    7.20
 -12   2   2   12.30    7.60
 -11  -2   2  204.08   12.60
  11  -2  -2  199.28   13.30
 -11  -2   2  205.38   12.70
 -11  -2   2  210.88   12.00
 -11  -2   2  224.28   12.60
  11   2  -2  200.08   10.50
  11   2  -2  201.38    9.40
 -11   2   2  216.88   12.80
 -11   2   2  218.98   12.30
 -11   2   2  218.68   12.20
  10  -2  -2  104.79    9.70
 -10  -2   2  119.99    9.40
  10  -2  -2  109.49   10.40
  10  -2  -2  115.39   10.30
 -10  -2   2  116.59   11.60
 -10  -2   2  118.99    8.90
 -10  -2   2  118.39    9.00
 -10  -2   2   74.79    8.10
  10  -2  -2  105.89    4.50
  10   2  -2  107.59    7.30
 -10   2   2   92.69    8.80
 -10   2   2  116.39   10.40
  10   2  -2   96.49    7.90
 -10   2   2  101.09   12.00
 -10   2   2  112.69    9.10
  10   2  -2  111.39    7.20
  10   2  -2   94.89    9.50
  10   2  -2  116.79   10.50
  -9  -2   2  467.75   13.50
   9  -2  -2  450.25    9.50
   9  -2  -2  454.55   13.30
  -9  -2   2  443.46   10.40
  -9  -2   2  457.15   13.40
  -9  -2   2  430.06   15.00
  -9  -2   2  438.56   13.30
  -9  -2   2  457.35   13.50
   9  -2  -2  440.06   13.50
   9  -2  -2  439.26   13.40
  -9   2   2  459.15   13.20
   9   2  -2  443.46   11.50
  -9   2   2  456.05   13.10
   9   2  -2  452.15   13.50
  -9   2   2  474.75   13.50
  -9   2   2  419.86   13.60
   8  -2  -2  489.85   10.00
  -8  -2   2  493.35   13.30
  -8  -2   2  499.35   13.20
  -8  -2   2  503.45   13.40
  -8  -2   2  489.15   14.70
  -8  -2   2  471.85   10.80
  -8  -2   2  498.25   13.20
   8  -2  -2  501.55   13.20
   8  -2  -2  516.45   13.20
   8  -2  -2  486.45   13.20
   8   2  -2  497.65   11.90
   8   2  -2  489.05   16.10
  -8   2   2  496.85   13.30
  -8   2   2  480.95   13.10
  -8   2   2  482.55   13.20
   8   2  -2  490.25   11.80
  -8   2   2  506.35   13.20
   8   2  -2  491.35   13.20
  -8   2   2  489.15   13.10
  -7  -2   2 1020.00   21.60
   7  -2  -2 1049.89   21.80
  -7  -2   2 1040.30   22.90
  -7  -2   2 1039.40   21.90
   7  -2  -2 1029.10   21.60
  -7  -2   2 1030.20   19.80
   7  -2  -2 1010.40   21.40
   7  -2  -2 1025.90   21.50
  -7  -2   2 1015.70   21.80
  -7  -2   2 1024.80   21.60
   7  -2  -2 1000.20   18.90
  -7   2   2 1010.80   21.70
   7   2  -2 1032.10   20.30
   7   2  -2 1034.90   20.60
  -7   2   2 1013.70   21.60
   7   2  -2 1041.50   21.80
   7   2  -2 1030.50   21.50
  -7   2   2 1035.90   21.70
   7   2  -2 1039.60   21.50
  -7   2   2  937.21   22.80
  -7   2   2 1006.70   21.50
   6  -2  -2 1113.39   22.00
  -6  -2   2 1085.79   22.20
   6  -2  -2 1122.99   22.40
   6  -2  -2  948.81   24.50
  -6  -2   2 1085.19   22.10
  -6  -2   2 1073.69   20.70
  -6  -2   2 1081.29   22.30
  -6  -2   2 1079.29   22.10
  -6   2   2 1077.79   22.00
  -6   2   2 1077.59   22.10
   6   2  -2 1099.29   22.00
   6   2  -2 1126.29   22.30
   6   2  -2 1101.59   20.90
  -6   2   2 1106.29   22.00
  -6   2   2 1081.59   22.10
  -6   2   2 1088.89   22.30
   6   2  -2 1120.09   21.40
   6   2  -2 1065.29   22.10
  -5  -2   2 2088.39   39.70
  -5  -2   2 2128.19   39.70
   5  -2  -2 2143.09   39.90
  -5  -2   2 2076.59   39.90
  -5  -2   2 2165.48   38.80
   5  -2  -2 2151.28   39.60
   5  -2  -2 2140.49   39.60
  -5  -2   2 2079.09   39.70
   5   2  -2 2098.29   39.20
   5   2  -2 2158.48   39.60
  -5   2   2 2083.69   39.60
  -5   2   2 2136.19   40.00
  -5   2   2 2144.09   39.50
  -5   2   2 2053.29   39.60
   5   2  -2 2184.68   39.80
  -5   2   2 2072.39   39.70
   5   2  -2 2160.98   38.50
   5   2  -2 2149.69   39.60
   4  -2  -2  645.64   13.50
  -4  -2   2  634.84   13.50
   4  -2  -2  626.14   13.10
  -4  -2   2  656.73   12.80
   4  -2  -2  639.34   13.20
   4  -2  -2  638.44   13.10
  -4  -2   2  622.64   13.20
  -4  -2   2  623.34   13.10
  -4  -2   2  613.54   13.10
   4  -2  -2  644.84   12.20
   4   2  -2  626.64   13.00
  -4   2   2  653.73   12.90
  -4   2   2  609.84   13.30
   4   2  -2  640.74   11.90
  -4   2   2  651.93   13.30
   4   2  -2  636.74   13.30
  -4   2   2  646.44   13.50
  -4   2   2  617.04   13.10
   4   2  -2  631.14   13.10
  -3  -2   2 1104.19   21.80
  -3  -2   2 1101.09   21.40
   3  -2  -2 1129.39   21.20
   3  -2  -2 1170.18   20.90
   3  -2  -2 1151.28   21.40
   3  -2  -2 1133.79   21.40
  -3  -2   2 1116.69   21.40
   3  -2  -2 1185.78   22.00
  -3  -2   2 1116.29   21.50
  -3  -2   2 1154.58   21.50
  -3   2   2 1125.29   21.90
  -3   2   2 1094.69   21.40
  -3   2   2 1127.09   20.90
  -3   2   2 1114.09   21.40
   3   2  -2 1139.29   21.50
   3   2  -2 1147.09   21.40
   3   2  -2 1144.79   21.40
  -2  -2   2 1303.87   24.10
   2  -2  -2 1299.17   23.70
  -2  -2   2 1233.78   23.70
   2  -2  -2 1264.47   23.10
   2  -2  -2 1283.67   23.70
  -2  -2   2 1276.77   23.60
   2  -2  -2 1281.47   24.10
   2  -2  -2 1303.07   23.60
  -2  -2   2 1272.47   23.70
   2   2  -2 1291.97   23.70
   2   2  -2 1319.37   23.70
   2   2  -2 1295.37   23.70
  -2   2   2 1280.67   23.80
   2   2  -2 1285.97   23.50
  -2   2   2 1274.17   22.90
  -2   2   2 1219.38   23.70
  -2   2   2 1271.27   24.10
  -2   2   2 1293.27   23.80
  -2   2   2 1259.47   23.70
  -2   2   2 1274.27   23.70
  -1  -2   2 2958.70   53.69
  -1  -2   2 2956.20   53.39
   1  -2  -2 3018.40   53.79
  -1  -2   2 3048.50   53.39
  -1  -2   2 2898.11   53.39
   1  -2  -2 2920.31   53.39
   1  -2  -2 2972.90   53.59
   1  -2  -2 2981.90   53.49
  -1  -2   2 2989.90   53.29
   1  -2  -2 3017.30   53.49
   1  -2  -2 3029.20   53.49
  -1   2   2 3027.70   53.59
  -1   2   2 2902.61   53.39
  -1   2   2 2997.70   53.59
   1   2  -2 2991.70   52.89
   1   2  -2 2979.50   53.29
   1   2  -2 3047.70   53.39
  -1   2   2 2930.41   53.79
   1   2  -2 2980.70   53.39
   1   2  -2 3046.10   53.69
  -1   2   2 2992.90   53.59
  -1   2   2 3014.40   53.59
  -1   2   2 2963.90   53.49
   0  -2   2 1132.69   21.10
   0  -2  -2 1142.29   20.60
   0  -2  -2 1075.19   21.10
   0  -2   2 1120.99   21.60
   0  -2   2 1125.19   21.40
   0  -2   2 1138.89   21.10
   0  -2  -2 1134.69   21.30
   0  -2  -2 1156.98   21.40
   0  -2   2 1165.48   21.00
   0  -2  -2 1121.89   21.30
   0   2   2 1122.99   21.20
   0   2   2 1117.29   21.20
   0   2  -2 1165.18   21.20
   0   2   2 1159.78   21.40
   0   2  -2 1132.49   20.20
   0   2   2 1142.09   21.00
   0   2  -2 1135.39   21.10
   0   2   2 1144.79   21.50
   0   2   2 1162.28   21.40
   0   2  -2 1166.68   21.20
   0   2  -2 1163.18   21.40
   0   2   2 1129.79   21.50
   1  -2   2  714.73   13.70
  -1  -2  -2  705.33   13.60
   1  -2   2  702.93   14.00
  -1  -2  -2  691.23   13.80
   1  -2   2  709.53   13.70
   1  -2   2  707.03   13.80
  -1  -2  -2  700.43   13.90
   1  -2   2  712.23   13.80
  -1  -2  -2  698.13   13.90
  -1  -2  -2  597.84   13.50
   1   2   2  685.53   13.90
   1   2   2  716.33   13.90
   1   2   2  709.33   13.10
  -1   2  -2  686.03   12.50
  -1   2  -2  715.93   14.00
  -1   2  -2  687.93   13.80
  -1   2  -2  694.63   13.60
   1   2   2  719.53   14.00
  -1   2  -2  701.13   13.70
   2  -2   2   12.10    1.00
  -2  -2  -2   10.80    2.00
   2  -2   2   12.00    1.70
   2  -2   2    7.70    1.50
  -2  -2  -2   12.90    1.80
  -2  -2  -2   12.10    1.80
   2  -2   2   12.60    1.90
  -2  -2  -2   13.70    1.30
  -2  -2  -2   13.50    1.80
   2  -2   2   11.30    1.70
   2   2   2    8.10    1.70
  -2   2  -2   13.10    1.90
  -2   2  -2    8.20    1.40
   2   2   2    7.00    1.50
   2   2   2    8.60    1.50
  -2   2  -2   13.50    1.10
  -2   2  -2    8.30    1.60
   2   2   2   13.20    1.30
  -2   2  -2   11.60    1.70
   2   2   2   11.30    1.80
  -3  -2  -2 3059.19   55.09
  -3  -2  -2 3019.90   56.19
  -3  -2  -2 3057.49   56.29
   3  -2   2 3113.99   56.09
  -3  -2  -2 3097.59   55.99
   3  -2   2 3035.40   56.39
   3  -2   2 3070.99   56.29
  -3  -2  -2 3029.70   56.19
  -3  -2  -2 3016.40   56.19
   3  -2   2 3100.69   54.99
   3  -2   2 3108.29   56.09
   3   2   2 3163.68   56.29
   3   2   2 3121.09   56.19
  -3   2  -2 3136.29   56.29
   3   2   2 3099.19   56.09
  -3   2  -2 3027.80   54.99
  -3   2  -2 3024.80   55.99
   3   2   2 3032.10   56.09
  -3   2  -2 3061.99   56.09
  -3   2  -2 3114.89   55.79
   4  -2   2  924.01   18.80
  -4  -2  -2  883.01   18.80
   4  -2   2  927.91   19.20
  -4  -2  -2  890.71   18.90
   4  -2   2  898.81   18.70
  -4  -2  -2  904.71   18.40
  -4  -2  -2  914.41   18.90
   4  -2   2  915.11   19.00
   4  -2   2  921.71   17.70
  -4  -2  -2  931.01   19.30
  -4  -2  -2  919.01   17.70
  -4   2  -2  922.11   18.80
  -4   2  -2  903.41   18.40
  -4   2  -2  905.61   18.70
  -4   2  -2  933.91   19.00
  -4   2  -2  893.11   17.70
   4   2   2  936.81   19.00
   4   2   2  912.21   18.70
   4   2   2  921.51   18.60
   4   2   2  900.11   18.80
   5  -2   2  697.73   15.30
  -5  -2  -2  668.53   14.00
  -5  -2  -2  548.85   19.50
  -5  -2  -2  690.03   15.50
   5  -2   2  690.23   15.30
   5  -2   2  672.83   14.10
  -5  -2  -2  677.23   14.70
  -5  -2  -2  678.53   15.40
   5  -2   2  666.03   15.80
  -5  -2  -2  697.63   15.40
   5  -2   2  679.93   15.40
  -5   2  -2  679.73   14.80
  -5   2  -2  680.03   15.30
   5   2   2  673.13   14.90
   5   2   2  708.83   15.50
  -5   2  -2  670.43   15.20
  -5   2  -2  687.83   14.30
   5   2   2  686.83   15.40
  -5   2  -2  701.93   15.60
  -6  -2  -2  277.77    8.20
   6  -2   2  270.77    7.90
   6  -2   2  264.17    9.70
  -6  -2  -2  282.27    9.80
   6  -2   2  264.27    8.80
  -6  -2  -2  278.47    7.70
  -6  -2  -2  277.27    9.20
  -6  -2  -2  264.37    8.90
  -6  -2  -2  286.07    9.20
   6  -2   2  269.67    8.90
   6  -2   2  273.67    7.90
   6  -2   2  286.07    9.10
  -6   2  -2  269.27    9.10
  -6   2  -2  273.87    8.00
   6   2   2  279.87    9.10
   6   2   2  260.57    9.10
   6   2   2  281.07    8.50
  -6   2  -2  278.77    9.30
  -6   2  -2  260.87    8.90
   6   2   2  275.77    8.80
  -7  -2  -2  410.86   13.00
   7  -2   2  407.06   12.90
   7  -2   2  421.06   12.30
  -7  -2  -2  408.26   12.00
  -7  -2  -2  419.06   12.40
  -7  -2  -2  397.26   10.50
   7  -2   2  410.66   10.90
  -7  -2  -2  416.66   12.20
   7  -2   2  421.86   10.80
  -7  -2  -2  402.26   10.80
   7   2   2  418.16   11.30
   7   2   2  420.26   12.30
   7   2   2  408.96   11.80
  -7   2  -2  410.26   12.10
  -7   2  -2  409.66   12.00
   7   2   2  419.96   12.60
  -7   2  -2  415.46   11.10
  -7   2  -2  406.76   12.50
   8  -2   2  327.87   12.10
   8  -2   2  344.87   10.80
  -8  -2  -2  326.37   10.30
   8  -2   2  357.46   12.30
  -8  -2  -2  358.36   12.10
  -8  -2  -2  345.17   12.40
  -8  -2  -2  358.96   11.90
  -8  -2  -2  347.87   10.20
   8  -2   2  359.36   13.10
   8  -2   2  341.27   10.00
   8   2   2  327.87   11.70
  -8   2  -2  336.27   11.80
  -8   2  -2  334.47   10.70
   8   2   2  335.27   11.30
   8   2   2  326.57   12.30
  -8   2  -2  355.76   12.20
  -8   2  -2  327.47   12.40
   8   2   2  329.17   12.30
   8   2   2  341.87   10.80
   9  -2   2  214.78   11.80
  -9  -2  -2  217.38   12.00
   9  -2   2  234.58    9.10
  -9  -2  -2  234.58    9.30
  -9  -2  -2  206.98   12.80
   9  -2   2  231.88   12.30
   9  -2   2  212.38   12.20
  -9  -2  -2  228.48   11.10
  -9  -2  -2  245.58   12.00
   9  -2   2  242.48   13.00
   9  -2   2  206.78   10.40
   9   2   2  203.58   11.70
   9   2   2  245.08   12.90
  -9   2  -2  225.18    9.90
  -9   2  -2  228.58   11.80
   9   2   2  212.38   12.60
   9   2   2  244.78   10.00
  -9   2  -2  215.78   12.80
  10  -2   2   64.19    9.10
 -10  -2  -2   63.09    8.10
 -10  -2  -2   55.99    7.70
 -10  -2  -2   52.69    7.60
  10  -2   2   71.49    9.10
  10  -2   2   48.50    7.70
  10  -2   2   67.99    6.10
 -10  -2  -2   59.79    6.30
  10   2   2   62.29    6.70
 -10   2  -2   68.99    8.30
  10   2   2   50.89    8.10
 -10   2  -2   51.29    7.80
 -10   2  -2   58.99    7.00
  10   2   2   65.49    9.70
 -11  -2  -2  156.78   13.90
 -11  -2  -2  181.98   15.90
 -11  -2  -2  168.28   15.20
 -11  -2  -2  170.08   15.30
  11  -2   2  188.58   11.10
  11   2   2  178.28   12.60
 -11   2  -2  178.78   13.60
 -11   2  -2  162.78   14.60
 -11   2  -2  204.58   15.80
  12  -2   2   37.70    8.30
 -12  -2  -2   21.60   11.30
 -12  -2  -2   30.70    8.50
 -12  -2  -2   11.40   10.30
 -12  -2  -2   52.99   11.30
 -12   2  -2   34.30   10.80
 -12   2  -2   49.60   10.10
  12   2   2   31.10    9.20
 -12   2  -2   33.70   10.70
 -13  -3   2   13.80   11.00
 -13  -3   2   -0.90   13.50
 -13  -3   2    4.90   10.40
 -13  -3   2   11.70   16.40
 -13   3   2    1.50   10.90
 -13   3   2   -2.00    9.90
 -13   3   2    1.70   12.60
 -12  -3   2   80.49   10.30
 -12  -3   2   75.29    9.50
 -12  -3   2   86.59    9.90
 -12  -3   2   61.39    8.50
 -12   3   2   68.29    9.40
 -12   3   2   86.89    9.70
 -12   3   2   63.49    9.40
 -11  -3   2  125.99    9.30
 -11  -3   2  119.19    9.80
 -11  -3   2  128.39    9.90
 -11  -3   2  135.69   11.90
  11   3  -2  122.69    9.30
 -11   3   2  137.59   11.60
 -11   3   2  150.48   12.20
 -11   3   2  126.29   11.40
 -10  -3   2    1.50    4.80
 -10  -3   2    8.80    5.20
  10  -3  -2   -0.20    6.00
  10  -3  -2   11.90    6.00
 -10  -3   2    3.70    4.20
  10  -3  -2    3.20    2.40
 -10  -3   2    2.50    4.90
 -10  -3   2    2.50    5.10
  10   3  -2    0.00    3.90
 -10   3   2   -0.30    4.40
 -10   3   2    0.40    4.60
 -10   3   2   -4.60    4.50
  10   3  -2    1.60    6.00
  10   3  -2    2.40    4.50
 -10   3   2    1.50    5.80
   9  -3  -2   12.30    4.80
  -9  -3   2   20.50    4.80
  -9  -3   2   13.70    4.60
  -9  -3   2   18.00    8.00
   9  -3  -2   15.50    2.30
  -9  -3   2   14.30    3.40
  -9   3   2   17.50    4.70
  -9   3   2   14.90    4.70
   9   3  -2   14.80    3.60
  -9   3   2   22.10    5.00
   9   3  -2   16.30    5.10
   9   3  -2   11.70    4.10
  -9   3   2   17.10    4.60
  -8  -3   2  140.49    5.90
  -8  -3   2  153.68    7.80
   8  -3  -2  145.59    8.00
   8  -3  -2  135.69    4.50
  -8  -3   2  157.88    7.70
  -8  -3   2  141.09    7.70
   8  -3  -2  139.89    7.70
  -8  -3   2  137.69    7.80
  -8   3   2  151.68    7.50
   8   3  -2  134.19    7.80
  -8   3   2  144.59    7.30
  -8   3   2  149.88    7.70
   8   3  -2  137.79    5.80
   8   3  -2  140.29    7.00
  -8   3   2  130.19    7.60
   8   3  -2  134.59    7.80
  -8   3   2  138.29    7.70
  -7  -3   2   74.89    5.70
  -7  -3   2   79.79    5.80
  -7  -3   2   73.69    4.40
   7  -3  -2   74.09    5.80
  -7  -3   2   65.19    5.50
   7  -3  -2   79.69    5.60
   7  -3  -2   75.79    5.60
  -7  -3   2   68.99    5.80
   7  -3  -2   79.69    6.30
  -7   3   2   74.29    5.50
  -7   3   2   71.89    5.40
   7   3  -2   76.89    5.90
  -7   3   2   72.49    5.60
   7   3  -2   73.19    5.80
   7   3  -2   75.89    5.90
  -7   3   2   71.49    5.80
   7   3  -2   78.09    5.40
   7   3  -2   72.99    4.10
  -7   3   2   60.09    6.20
   6  -3  -2  548.75   11.50
  -6  -3   2  560.34   13.30
  -6  -3   2  537.95   13.10
  -6  -3   2  554.74   13.10
  -6  -3   2  538.05   12.10
   6  -3  -2  531.75   13.20
   6  -3  -2  529.75   13.20
  -6  -3   2  531.35   13.10
   6  -3  -2  544.95   13.00
   6  -3  -2  545.25   12.90
   6   3  -2  555.24   12.80
  -6   3   2  543.65   12.90
  -6   3   2  563.74   12.60
   6   3  -2  569.04   13.20
  -6   3   2  535.35   13.00
   6   3  -2  552.04   12.90
  -6   3   2  552.74   13.50
   6   3  -2  551.44   11.30
   6   3  -2  546.25   12.90
  -6   3   2  533.05   13.00
  -5  -3   2  127.09    5.40
  -5  -3   2  124.09    5.20
  -5  -3   2  124.49    5.40
   5  -3  -2  128.89    4.30
   5  -3  -2  119.39    5.50
   5  -3  -2  124.59    5.30
   5  -3  -2  121.89    5.20
   5  -3  -2  114.09    5.00
  -5  -3   2  123.19    5.30
  -5  -3   2  130.59    4.90
  -5   3   2  120.49    4.70
  -5   3   2  123.79    5.20
  -5   3   2  120.89    5.70
   5   3  -2  127.79    5.20
   5   3  -2  127.79    5.20
   5   3  -2  122.39    3.60
  -5   3   2  125.19    5.20
  -5   3   2  133.19    5.30
   5   3  -2  130.39    5.30
   4  -3  -2 1534.05   28.80
  -4  -3   2 1529.65   29.20
  -4  -3   2 1509.95   29.50
  -4  -3   2 1502.45   29.30
   4  -3  -2 1545.55   28.50
   4  -3  -2 1569.34   29.60
  -4  -3   2 1497.25   29.10
  -4  -3   2 1517.55   29.10
   4  -3  -2 1519.95   29.10
   4  -3  -2 1562.44   29.20
  -4   3   2 1504.75   29.20
   4   3  -2 1558.74   29.20
   4   3  -2 1550.74   29.10
   4   3  -2 1548.45   29.20
   4   3  -2 1515.75   27.30
  -4   3   2 1524.65   29.20
  -4   3   2 1462.85   29.20
   4   3  -2 1563.04   29.20
  -4   3   2 1532.35   28.40
  -4   3   2 1512.95   29.60
   3  -3  -2  576.84   12.10
  -3  -3   2  582.44   12.50
  -3  -3   2  581.24   12.20
   3  -3  -2  591.64   12.40
   3  -3  -2  579.94   12.40
  -3  -3   2  586.94   12.60
   3  -3  -2  594.64   11.70
   3  -3  -2  584.14   12.80
  -3  -3   2  591.34   12.70
  -3  -3   2  579.34   12.40
   3   3  -2  587.14   12.40
   3   3  -2  587.24   12.30
  -3   3   2  598.94   12.60
  -3   3   2  582.14   12.40
   3   3  -2  588.44   12.40
  -3   3   2  590.74   11.50
   3   3  -2  595.34   12.30
   3   3  -2  577.74   12.70
  -3   3   2  578.54   12.80
   3   3  -2  598.94   12.20
  -3   3   2  580.14   12.40
  -3   3   2  579.74   12.40
   2  -3  -2 1210.18   22.60
  -2  -3   2 1149.08   22.30
  -2  -3   2 1180.58   22.10
   2  -3  -2 1179.58   22.20
  -2  -3   2 1168.38   22.10
  -2  -3   2 1159.58   21.80
  -2  -3   2 1112.79   22.20
   2  -3  -2 1137.39   21.10
   2  -3  -2 1156.78   22.20
   2  -3  -2 1156.58   22.20
  -2  -3   2 1153.38   22.50
  -2  -3   2 1192.48   22.60
  -2   3   2 1135.29   22.20
   2   3  -2 1180.18   21.80
  -2   3   2 1143.59   22.40
  -2   3   2 1181.98   22.40
   2   3  -2 1170.68   22.50
   2   3  -2 1163.48   22.20
  -2   3   2 1168.98   22.30
   2   3  -2 1153.58   22.10
   2   3  -2 1169.78   22.10
   2   3  -2 1189.88   20.80
  -2   3   2 1111.69   22.20
   2   3  -2 1167.98   22.20
  -2   3   2 1165.78   22.20
  -2   3   2 1162.58   21.10
  -2   3   2 1124.09   22.50
  -1  -3   2 1669.03   30.70
   1  -3  -2 1679.33   30.90
   1  -3  -2 1690.43   31.00
  -1  -3   2 1645.04   31.00
   1  -3  -2 1680.83   31.10
   1  -3  -2 1660.93   30.80
  -1  -3   2 1733.03   30.80
  -1  -3   2 1654.23   29.90
   1  -3  -2 1662.23   31.00
  -1  -3   2 1621.14   30.80
  -1  -3   2 1685.33   30.90
   1  -3  -2 1635.64   30.80
   1  -3  -2 1639.14   29.60
   1   3  -2 1571.74   30.00
   1   3  -2 1645.54   30.70
   1   3  -2 1700.13   31.10
  -1   3   2 1675.73   31.00
  -1   3   2 1691.83   31.00
  -1   3   2 1648.64   31.10
   1   3  -2 1660.43   30.10
  -1   3   2 1652.83   30.80
  -1   3   2 1598.54   30.80
  -1   3   2 1645.34   30.80
   1   3  -2 1627.14   30.70
   1   3  -2 1669.83   30.80
   1   3  -2 1669.53   30.80
  -1   3   2 1649.23   31.00
   0  -3  -2 1429.16   27.50
   0  -3  -2 1452.45   27.30
   0  -3   2 1424.36   27.30
   0  -3   2 1478.85   26.80
   0  -3   2 1422.36   27.40
   0  -3  -2 1450.75   27.40
   0  -3  -2 1451.85   27.20
   0  -3  -2 1470.65   27.60
   0  -3   2 1468.35   27.20
   0  -3   2 1495.95   27.20
   0  -3   2 1426.66   27.20
   0  -3  -2 1455.85   27.30
   0   3  -2 1458.15   26.20
   0   3   2 1505.35   27.60
   0   3   2 1454.55   27.40
   0   3  -2 1445.46   27.10
   0   3   2 1397.96   27.30
   0   3   2 1474.85   27.10
   0   3   2 1434.26   27.60
   0   3  -2 1447.66   26.90
   0   3  -2 1464.45   27.40
   0   3  -2 1461.65   27.30
   0   3  -2 1488.25   27.40
   0   3   2 1465.95   27.50
   0   3   2 1440.46   27.40
   0   3  -2 1457.35   27.20
   1  -3   2 1718.03   31.20
   1  -3   2 1682.73   31.30
  -1  -3  -2 1683.03   31.50
   1  -3   2 1703.43   31.50
   1  -3   2 1708.43   31.20
  -1  -3  -2 1672.03   31.40
  -1  -3  -2 1652.03   30.80
   1  -3   2 1657.63   31.00
  -1   3  -2 1677.53   31.30
   1   3   2 1698.23   31.50
   1   3   2 1656.53   31.50
  -1   3  -2 1657.83   31.10
   1   3   2 1624.14   31.10
  -1   3  -2 1681.93   31.10
   1   3   2 1658.63   31.20
  -1   3  -2 1635.54   31.00
  -1   3  -2 1679.33   31.40
  -1   3  -2 1680.83   31.10
   1   3   2 1662.03   30.70
   1   3   2 1598.54   31.20
   1   3   2 1664.83   31.40
  -1   3  -2 1640.84   31.20
   2  -3   2 1736.03   31.80
  -2  -3  -2 1647.24   31.90
   2  -3   2 1707.73   31.70
  -2  -3  -2 1663.23   31.70
  -2  -3  -2 1691.23   32.00
  -2  -3  -2 1661.43   31.10
   2  -3   2 1691.83   31.80
   2  -3   2 1654.03   31.90
   2  -3   2 1697.43   31.80
  -2  -3  -2 1725.63   32.00
  -2   3  -2 1653.43   31.80
   2   3   2 1685.43   31.90
   2   3   2 1718.33   32.00
  -2   3  -2 1656.43   31.70
  -2   3  -2 1718.73   31.80
  -2   3  -2 1634.74   31.90
   2   3   2 1654.93   32.00
   2   3   2 1723.13   32.00
   2   3   2 1684.43   31.00
  -3  -3  -2  415.76    9.20
  -3  -3  -2  428.06   10.30
   3  -3   2  425.16   10.10
   3  -3   2  422.46   10.00
  -3  -3  -2  421.36   10.30
  -3  -3  -2  423.86   10.30
   3  -3   2  427.06   10.30
  -3  -3  -2  422.56   10.10
   3  -3   2  425.36   10.10
   3   3   2  423.46   10.20
  -3   3  -2  423.36   10.00
   3   3   2  405.16   10.20
   3   3   2  422.56   10.30
  -3   3  -2  421.86   10.00
   3   3   2  415.16    9.20
  -3   3  -2  422.06    8.80
  -3   3  -2  423.86   10.10
  -3   3  -2  438.56   10.30
   3   3   2  404.06   10.30
   4  -3   2  599.54   13.70
  -4  -3  -2  585.54   13.40
   4  -3   2  609.34   13.90
  -4  -3  -2  597.74   12.60
  -4  -3  -2  605.24   14.20
  -4  -3  -2  596.64   13.80
   4  -3   2  609.94   14.10
   4  -3   2  593.54   13.50
  -4  -3  -2  609.44   13.90
   4   3   2  602.84   14.00
   4   3   2  590.14   13.70
  -4   3  -2  598.54   13.70
  -4   3  -2  591.54   13.60
   4   3   2  602.84   13.80
  -4   3  -2  599.64   13.70
   4   3   2  593.84   13.90
  -4   3  -2  606.04   13.50
  -4   3  -2  598.54   12.30
  -5  -3  -2  103.59    5.90
  -5  -3  -2  107.49    6.00
  -5  -3  -2  113.69    5.60
   5  -3   2  104.59    6.50
  -5  -3  -2   99.39    6.00
  -5  -3  -2  105.49    6.50
   5  -3   2  110.79    4.50
  -5  -3  -2  109.99    4.80
   5  -3   2  114.39    5.90
   5  -3   2  112.29    5.80
   5  -3   2  114.79    5.80
   5   3   2  108.69    5.90
  -5   3  -2  108.49    5.80
   5   3   2   93.59    7.40
  -5   3  -2  108.99    5.70
  -5   3  -2  117.29    5.80
   5   3   2  123.19    6.20
  -5   3  -2  115.89    4.80
   6  -3   2  870.21   18.00
   6  -3   2  902.11   19.60
   6  -3   2  886.01   19.70
  -6  -3  -2  843.62   19.50
  -6  -3  -2  854.61   18.70
  -6  -3  -2  863.71   19.60
  -6  -3  -2  861.21   18.00
  -6  -3  -2  850.61   20.20
  -6  -3  -2  855.61   19.70
   6  -3   2  856.81   20.10
   6  -3   2  870.41   19.40
  -6   3  -2  850.51   19.30
   6   3   2  849.61   19.10
  -6   3  -2  879.81   19.60
   6   3   2  874.21   19.70
  -6   3  -2  868.61   19.60
  -6   3  -2  859.71   19.10
   6   3   2  860.81   19.40
   6   3   2  885.21   19.80
  -6   3  -2  843.02   18.00
  -7  -3  -2  762.02   16.80
  -7  -3  -2  731.43   19.30
  -7  -3  -2  762.52   18.50
   7  -3   2  747.83   18.40
  -7  -3  -2  762.32   17.40
  -7  -3  -2  740.13   18.50
   7  -3   2  775.52   19.40
   7  -3   2  769.72   18.60
   7  -3   2  739.33   16.80
   7  -3   2  750.42   16.90
  -7  -3  -2  765.32   18.60
  -7   3  -2  780.92   18.60
  -7   3  -2  780.22   18.50
   7   3   2  783.32   18.90
  -7   3  -2  780.12   18.00
  -7   3  -2  767.62   17.00
  -7   3  -2  745.73   18.60
   7   3   2  762.32   18.70
   7   3   2  767.92   18.40
   7   3   2  760.42   17.90
   8  -3   2  121.79    9.30
   8  -3   2  137.49    7.10
  -8  -3  -2  141.09    9.40
   8  -3   2  141.19    9.70
   8  -3   2  136.79    7.80
  -8  -3  -2  154.08    7.40
  -8  -3  -2  145.89    9.20
   8  -3   2  140.19   10.00
  -8  -3  -2  143.19    9.10
   8  -3   2  128.39   11.40
  -8  -3  -2  146.49    8.00
  -8   3  -2  147.49    7.70
   8   3   2  144.79    9.30
   8   3   2  127.79   10.20
  -8   3  -2  135.09    9.10
   8   3   2  148.49   10.20
  -8   3  -2  121.99   10.00
  -8   3  -2  132.79    8.70
   8   3   2  142.39    8.30
  -8   3  -2  147.99    9.00
   9  -3   2   75.09    8.20
   9  -3   2   90.69    7.20
  -9  -3  -2   86.69    8.30
  -9  -3  -2   57.19    6.50
  -9  -3  -2   93.49    7.80
   9  -3   2   82.19    6.80
   9  -3   2   88.29    8.70
  -9  -3  -2   82.79    7.80
   9  -3   2   97.29    9.20
  -9  -3  -2   68.49    7.40
   9   3   2   79.89    8.60
  -9   3  -2   80.39    7.30
  -9   3  -2   77.89    7.30
   9   3   2   80.19    7.00
   9   3   2   78.69    8.10
  -9   3  -2   88.99    8.40
  10  -3   2   95.69   10.00
  10  -3   2   95.79    8.70
 -10  -3  -2  102.89    9.50
  10  -3   2   95.19   10.10
 -10  -3  -2   72.09    8.20
 -10  -3  -2   99.69    9.50
 -10  -3  -2   91.29    8.80
  10  -3   2  101.59    8.60
 -10   3  -2   94.89    8.90
  10   3   2   93.29    9.00
 -10   3  -2  104.29    8.20
  10   3   2   97.19    9.90
  10   3   2   83.19   10.40
 -10   3  -2  129.09   12.40
 -10   3  -2   82.09    9.30
  11  -3   2   14.80   10.10
 -11  -3  -2   10.10    8.80
 -11  -3  -2    2.70    8.50
  11  -3   2   11.20    5.90
 -11  -3  -2    6.50    6.60
 -11  -3  -2   27.20    8.70
  11   3   2   14.80    7.80
 -11   3  -2   12.20    8.50
 -11   3  -2   10.20    8.20
 -11   3  -2   14.10    7.50
  12  -3   2   37.90    9.90
 -12  -3  -2   26.20   11.30
 -12  -3  -2   34.50    8.80
 -12  -3  -2   33.30   12.50
 -12  -3  -2   42.90   11.30
 -12   3  -2   29.40   11.50
 -12   3  -2   50.49   10.30
 -12   3  -2   39.80   12.10
  12   3   2   50.69   10.40
 -12  -4   2   19.80    9.00
 -12  -4   2   10.70    8.80
 -12  -4   2    6.10    9.10
 -12  -4   2    7.10    9.20
 -12   4   2   24.00    8.80
 -12   4   2    3.00    8.40
 -12   4   2   -2.20    8.00
 -11  -4   2   65.09    6.40
 -11  -4   2   48.20    8.00
  11  -4  -2   51.29    3.90
 -11  -4   2   45.20    8.10
 -11  -4   2   56.99    8.20
 -11  -4   2   41.30    8.10
 -11   4   2   46.90    8.00
 -11   4   2   27.60    7.50
  11   4  -2   46.10    6.30
 -11   4   2   52.99    7.60
  10  -4  -2   44.30    3.50
 -10  -4   2   42.20    6.70
  10  -4  -2   48.00    4.20
 -10  -4   2   52.69    6.60
 -10  -4   2   43.20    7.00
 -10  -4   2   46.00    7.00
 -10  -4   2   44.20    5.30
 -10   4   2   38.10    7.30
 -10   4   2   42.60    6.30
  10   4  -2   40.10    5.10
 -10   4   2   40.50    6.60
 -10   4   2   49.10    6.70
  -9  -4   2   29.30    5.10
   9  -4  -2   28.20    6.30
  -9  -4   2   35.80    4.50
   9  -4  -2   33.50    6.10
   9  -4  -2   25.50    3.70
   9  -4  -2   34.60    3.20
  -9  -4   2   35.90    5.60
  -9  -4   2   29.20    5.80
   9   4  -2   22.50    5.80
  -9   4   2   31.10    4.80
  -9   4   2   44.20    5.90
  -9   4   2   36.00    5.80
  -9   4   2   27.00    4.90
  -9   4   2   32.00    5.40
   9   4  -2   16.50    5.50
   9   4  -2   36.50    4.00
  -8  -4   2  969.80   22.10
   8  -4  -2  941.51   21.70
  -8  -4   2  941.61   21.70
  -8  -4   2  978.40   22.00
   8  -4  -2  930.61   19.30
   8  -4  -2  943.21   22.10
  -8  -4   2  953.60   20.20
  -8  -4   2  942.31   21.80
   8   4  -2  937.21   21.80
   8   4  -2  920.41   19.10
  -8   4   2  937.01   21.60
  -8   4   2  949.51   21.10
  -8   4   2  943.81   22.30
  -8   4   2  955.90   21.90
  -8   4   2  981.90   21.50
   7  -4  -2  627.84   15.40
  -7  -4   2  570.84   15.20
   7  -4  -2  601.64   15.40
   7  -4  -2  616.64   13.30
  -7  -4   2  626.54   15.50
  -7  -4   2  598.04   15.20
   7  -4  -2  593.04   15.00
  -7  -4   2  601.34   15.10
  -7  -4   2  595.04   15.10
  -7   4   2  603.64   14.80
  -7   4   2  593.64   15.20
  -7   4   2  597.94   14.30
  -7   4   2  596.34   15.70
  -7   4   2  609.54   15.10
   7   4  -2  602.54   15.10
   7   4  -2  603.54   12.60
   7   4  -2  611.24   15.20
  -6  -4   2  133.19    6.60
  -6  -4   2  121.69    6.50
   6  -4  -2  136.29    6.50
   6  -4  -2  134.69    5.50
  -6  -4   2  138.09    6.60
   6  -4  -2  125.39    6.40
  -6  -4   2  141.79    6.70
   6  -4  -2  145.09    6.70
  -6  -4   2  135.69    6.10
   6  -4  -2  137.69    7.00
   6   4  -2  135.99    4.30
  -6   4   2  140.99    7.00
  -6   4   2  142.09    5.90
  -6   4   2  142.29    6.60
   6   4  -2  137.59    6.50
  -6   4   2  135.59    6.40
   6   4  -2  142.69    6.70
   6   4  -2  136.29    6.60
  -6   4   2  130.29    6.20
  -5  -4   2  196.28    7.00
  -5  -4   2  195.98    6.90
   5  -4  -2  205.58    7.00
  -5  -4   2  187.48    6.80
   5  -4  -2  193.98    6.20
   5  -4  -2  187.08    6.60
   5  -4  -2  185.08    6.70
  -5  -4   2  195.48    7.10
   5  -4  -2  202.18    7.30
  -5  -4   2  199.78    7.20
  -5   4   2  195.98    7.00
  -5   4   2  194.28    6.00
   5   4  -2  199.78    6.90
  -5   4   2  188.38    6.70
  -5   4   2  181.08    7.40
  -5   4   2  190.18    6.90
   5   4  -2  189.48    6.90
  -5   4   2  191.68    7.30
   5   4  -2  188.98    6.80
   5   4  -2  175.78    8.10
   5   4  -2  190.28    6.70
   4  -4  -2  280.27    7.80
   4  -4  -2  247.48    8.50
   4  -4  -2  271.17    7.20
   4  -4  -2  270.47    7.40
   4  -4  -2  303.97   11.40
  -4  -4   2  262.07    7.90
  -4  -4   2  273.67    8.00
  -4  -4   2  277.07    7.70
  -4  -4   2  265.97    7.90
  -4  -4   2  270.47    8.00
  -4   4   2  269.27    7.90
  -4   4   2  261.87    8.20
  -4   4   2  264.57    7.80
   4   4  -2  263.67    5.50
   4   4  -2  271.37    8.10
   4   4  -2  266.87    7.70
  -4   4   2  273.57    6.70
  -4   4   2  271.67    7.80
  -4   4   2  258.77    7.80
  -4   4   2  264.17    9.30
   4   4  -2  268.67    8.10
   4   4  -2  260.97    8.30
   4   4  -2  261.87    7.50
   4   4  -2  268.67    7.60
   3  -4  -2 1975.10   36.40
   3  -4  -2 1909.81   34.90
  -3  -4   2 1913.91   36.30
   3  -4  -2 1918.31   35.80
  -3  -4   2 1908.31   36.10
   3  -4  -2 1931.81   36.00
   3  -4  -2 1912.91   35.90
  -3  -4   2 1843.12   36.00
  -3  -4   2 1882.11   35.60
  -3  -4   2 1857.71   36.10
   3   4  -2 1923.21   35.80
   3   4  -2 1881.31   35.90
  -3   4   2 1904.41   36.10
  -3   4   2 1871.01   36.00
   3   4  -2 1901.31   35.50
  -3   4   2 1907.31   34.70
  -3   4   2 1853.31   36.30
   3   4  -2 1977.10   36.30
  -3   4   2 1860.81   35.90
  -3   4   2 1912.11   36.20
  -3   4   2 1904.01   36.30
   3   4  -2 1861.01   34.00
   3   4  -2 1920.71   36.00
   3   4  -2 1918.41   36.00
  -2  -4   2   49.50    3.60
  -2  -4   2   53.59    3.90
   2  -4  -2   46.30    3.70
   2  -4  -2   53.59    3.50
  -2  -4   2   57.49    4.00
   2  -4  -2   57.39    3.50
  -2  -4   2   55.59    2.20
  -2  -4   2   51.89    3.60
  -2  -4   2   56.89    3.50
   2  -4  -2   49.70    2.50
   2  -4  -2   54.39    3.80
  -2  -4   2   51.79    3.60
   2   4  -2   51.89    3.50
   2   4  -2   48.50    3.70
  -2   4   2   45.40    3.80
  -2   4   2   54.59    3.80
  -2   4   2   56.39    3.50
  -2   4   2   50.79    3.50
  -2   4   2   48.30    3.70
   2   4  -2   50.69    3.10
   2   4  -2   51.29    3.50
   2   4  -2   50.19    3.60
   2   4  -2   53.49    3.60
  -2   4   2   51.69    3.80
   1  -4  -2   86.69    2.90
  -1  -4   2   86.79    4.00
   1  -4  -2   86.29    3.90
  -1  -4   2   82.89    4.00
  -1  -4   2   83.89    4.10
   1  -4  -2   83.09    4.30
   1  -4  -2   81.29    4.30
   1  -4  -2   94.49    4.10
  -1  -4   2   86.69    3.10
   1  -4  -2   89.99    4.20
   1  -4  -2   83.59    4.20
  -1  -4   2   92.09    4.40
  -1  -4   2   85.69    4.10
   1  -4  -2   92.19    4.10
  -1   4   2   91.29    4.00
  -1   4   2   91.89    4.30
  -1   4   2   85.59    4.10
  -1   4   2   82.99    4.20
   1   4  -2   86.29    3.90
   1   4  -2   87.39    4.00
   1   4  -2   87.69    4.20
  -1   4   2   89.49    4.40
   1   4  -2   91.29    4.00
   1   4  -2   88.89    3.40
  -1   4   2   84.19    4.00
   1   4  -2   87.09    3.30
   1   4  -2   92.39    4.10
  -1   4   2   88.39    4.30
   0  -4  -2 1894.41   36.00
   0  -4   2 1886.61   36.00
   0  -4  -2 1932.51   35.80
   0  -4  -2 1928.61   35.90
   0  -4  -2 1943.71   36.20
   0  -4   2 1901.01   35.10
   0  -4  -2 1932.21   36.20
   0  -4   2 1904.01   36.10
   0  -4   2 1879.81   36.10
   0  -4   2 1942.41   35.80
   0  -4   2 1875.81   35.90
   0  -4   2 1966.30   35.80
   0  -4  -2 1888.01   35.80
   0  -4  -2 1907.61   35.90
   0   4  -2 1922.41   36.00
   0   4   2 1872.71   36.30
   0   4   2 1944.01   36.10
   0   4  -2 1876.91   35.80
   0   4  -2 1926.91   35.90
   0   4   2 1857.31   35.90
   0   4   2 1970.30   35.70
   0   4   2 1863.41   35.90
   0   4   2 1923.71   36.20
   0   4  -2 1931.01   34.70
   0   4  -2 1916.11   35.80
   0   4   2 1864.21   35.80
   0   4  -2 1929.41   35.90
   0   4  -2 1910.71   35.30
  -1  -4  -2  653.83   14.30
   1  -4   2  651.83   13.90
   1  -4   2  645.24   14.10
  -1  -4  -2  637.04   14.20
   1  -4   2  654.13   13.90
   1  -4   2  651.73   14.30
  -1  -4  -2  634.74   14.20
  -1  -4  -2  654.33   13.80
   1  -4   2  664.03   13.60
   1   4   2  647.54   13.50
  -1   4  -2  646.54   13.90
  -1   4  -2  666.93   14.10
   1   4   2  655.03   14.20
  -1   4  -2  666.53   14.00
   1   4   2  645.14   14.00
   1   4   2  652.03   14.00
   1   4   2  646.64   14.30
  -1   4  -2  644.14   14.10
   1   4   2  654.93   13.80
  -1   4  -2  645.54   13.70
  -1   4  -2  650.63   13.90
   1   4   2  659.03   14.50
   2  -4   2 1273.87   24.70
  -2  -4  -2 1243.18   24.20
   2  -4   2 1232.28   24.80
   2  -4   2 1276.07   24.70
  -2  -4  -2 1266.47   25.10
   2  -4   2 1227.08   24.90
  -2  -4  -2 1234.18   25.00
  -2  -4  -2 1232.68   25.00
   2  -4   2 1253.97   24.50
   2   4   2 1257.07   24.80
   2   4   2 1241.88   24.10
  -2   4  -2 1240.98   24.80
   2   4   2 1241.38   24.90
  -2   4  -2 1278.87   24.80
  -2   4  -2 1258.07   24.70
   2   4   2 1235.88   24.40
  -2   4  -2 1256.97   24.80
   2   4   2 1273.77   25.00
  -2   4  -2 1307.17   24.90
   2   4   2 1276.67   25.10
   2   4   2 1217.18   24.70
  -2   4  -2 1276.17   24.80
  -2   4  -2 1248.88   23.20
   2   4   2 1248.38   25.30
  -2   4  -2 1260.67   24.80
  -3  -4  -2  292.97    8.80
  -3  -4  -2  290.37    8.60
   3  -4   2  299.07    8.60
  -3  -4  -2  299.57    8.90
  -3  -4  -2  305.87    8.80
   3  -4   2  288.37    8.40
   3  -4   2  296.47    8.40
   3  -4   2  307.77    8.40
  -3  -4  -2  291.57    7.70
  -3   4  -2  304.47    8.60
  -3   4  -2  294.47    8.50
  -3   4  -2  299.67    6.90
   3   4   2  303.37    8.80
   3   4   2  300.97    8.70
  -3   4  -2  301.37    8.50
   3   4   2  299.27    8.50
  -3   4  -2  291.57    8.40
  -3   4  -2  306.47    8.60
   3   4   2  302.97    7.60
   3   4   2  297.27    8.50
   3   4   2  289.37    8.70
  -4  -4  -2  403.06   10.70
  -4  -4  -2  402.56    9.70
  -4  -4  -2  394.56   11.10
   4  -4   2  406.96   10.80
   4  -4   2  392.46   10.60
  -4  -4  -2  398.96   11.00
   4  -4   2  436.56   11.00
   4  -4   2  417.26   11.10
  -4  -4  -2  391.76   11.10
  -4   4  -2  397.76    9.10
   4   4   2  391.86   10.90
  -4   4  -2  395.26   10.70
  -4   4  -2  405.86   10.80
  -4   4  -2  407.56   11.30
  -4   4  -2  401.46   10.70
   4   4   2  403.06    9.80
   4   4   2  400.86   10.70
   4   4   2  414.96   11.00
   4   4   2  390.46   11.50
   5  -4   2 1303.87   26.50
   5  -4   2 1295.67   26.80
  -5  -4  -2 1272.57   25.10
   5  -4   2 1272.37   26.40
   5  -4   2 1253.07   26.40
  -5  -4  -2 1241.98   26.70
  -5  -4  -2 1288.97   26.10
  -5  -4  -2 1273.77   27.00
  -5  -4  -2 1268.17   26.60
  -5   4  -2 1282.27   26.40
  -5   4  -2 1262.17   24.70
   5   4   2 1270.97   26.40
   5   4   2 1271.87   26.50
   5   4   2 1292.47   26.80
  -5   4  -2 1268.37   26.40
  -5   4  -2 1253.17   26.20
   5   4   2 1284.47   26.60
  -5   4  -2 1280.57   26.40
   6  -4   2   10.90    3.80
  -6  -4  -2    7.60    3.80
   6  -4   2   11.50    3.80
   6  -4   2   12.80    4.30
  -6  -4  -2    8.40    4.10
  -6  -4  -2   11.30    3.00
   6  -4   2    2.40    3.10
  -6  -4  -2   14.00    3.80
  -6  -4  -2   11.00    3.70
   6   4   2   19.90    4.50
   6   4   2    6.50    3.50
   6   4   2   16.90    4.20
  -6   4  -2    8.40    3.60
  -6   4  -2   12.20    2.80
  -6   4  -2   19.20    4.10
  -6   4  -2   20.20    4.20
  -6   4  -2   10.80    3.50
   6   4   2   19.60    4.10
   7  -4   2   76.59    6.60
  -7  -4  -2   65.69    5.80
   7  -4   2   74.59    6.40
  -7  -4  -2   64.49    6.70
   7  -4   2   65.09    6.20
  -7  -4  -2   62.19    5.90
  -7  -4  -2   84.49    7.90
  -7  -4  -2   68.29    7.00
  -7  -4  -2   65.59    6.00
  -7   4  -2   70.39    6.00
   7   4   2   71.39    6.60
   7   4   2   80.19    6.50
  -7   4  -2   72.89    6.00
  -7   4  -2   50.49    5.10
  -7   4  -2   45.20    5.30
  -7   4  -2   58.09    5.60
   7   4   2   73.99    6.80
  -8  -4  -2   89.49    8.90
   8  -4   2  108.09   10.20
  -8  -4  -2   81.49    7.20
   8  -4   2  101.49    7.00
  -8  -4  -2  106.79    9.40
  -8  -4  -2   87.29    8.60
  -8  -4  -2   94.89    9.10
   8  -4   2   98.19    8.40
   8  -4   2  119.09   10.60
  -8  -4  -2   91.69    7.40
  -8   4  -2  106.89    8.80
   8   4   2  106.59    8.70
  -8   4  -2   97.89    7.40
   8   4   2  113.89    8.80
   8   4   2   95.89    8.00
   8   4   2  105.59    8.70
  -8   4  -2   85.19    7.30
  -8   4  -2  115.19    9.40
  -8   4  -2  100.09    9.30
   9  -4   2   86.09    8.90
  -9  -4  -2   97.09    8.50
  -9  -4  -2   79.79    7.90
   9  -4   2   90.99    7.90
  -9  -4  -2   94.59    8.30
  -9  -4  -2   94.09    8.00
   9  -4   2  103.49    9.90
  -9  -4  -2   78.79    8.10
  -9   4  -2  110.59   11.30
  -9   4  -2   91.89    8.40
  -9   4  -2   84.49    8.60
  -9   4  -2   84.09    8.50
 -10  -4  -2  314.27   16.50
  10  -4   2  295.17   17.70
  10  -4   2  300.57   11.80
 -10  -4  -2  293.47   16.40
 -10  -4  -2  300.17   12.60
 -10  -4  -2  303.57   15.90
  10  -4   2  293.17   19.10
 -10   4  -2  307.47   15.90
  10   4   2  292.27   14.70
  10   4   2  274.87   15.10
 -10   4  -2  312.97   15.40
 -10   4  -2  309.07   13.50
  11  -4   2   36.70   11.80
  11  -4   2   41.00    7.20
 -11  -4  -2   32.20    7.60
 -11  -4  -2   37.70    9.80
 -11  -4  -2   46.20   10.10
 -11  -4  -2   41.00   10.80
  11   4   2   45.90    9.50
 -11   4  -2   31.00    9.90
 -11   4  -2   36.40    8.40
 -11   4  -2   33.40    8.90
 -12  -5   2   25.00   10.30
 -12  -5   2   40.80   11.70
 -12  -5   2   14.90    9.50
 -12  -5   2   46.00   11.10
 -12   5   2   23.50   10.10
 -12   5   2   -3.30    9.30
 -12   5   2   15.70    9.50
 -11  -5   2  161.98   14.00
 -11  -5   2  142.49   12.10
 -11  -5   2  162.78   12.40
 -11  -5   2  170.68   15.30
 -11  -5   2  137.49   11.60
 -11   5   2  162.38   15.00
 -11   5   2  147.99   13.70
 -11   5   2  161.88   14.30
 -10  -5   2  358.16   14.50
 -10  -5   2  348.27   15.10
  10  -5  -2  332.57    9.60
 -10  -5   2  348.17   15.50
 -10  -5   2  323.07   12.80
 -10  -5   2  354.36   15.40
  10  -5  -2  345.47   10.60
 -10   5   2  331.47   13.90
 -10   5   2  322.57   15.00
  10   5  -2  335.87   10.60
 -10   5   2  363.86   15.10
 -10   5   2  291.77   14.80
 -10   5   2  342.87   14.90
   9  -5  -2   37.50    4.40
  -9  -5   2   36.20    6.20
  -9  -5   2   22.60    5.90
   9  -5  -2   35.10    6.60
  -9  -5   2   33.30    5.40
  -9  -5   2   30.70    6.00
   9  -5  -2   36.60    6.70
  -9  -5   2   27.80    5.50
  -9   5   2   35.50    5.70
   9   5  -2   32.00    5.70
  -9   5   2   35.70    5.90
  -9   5   2   26.90    6.40
  -9   5   2   38.10    5.80
  -9   5   2   39.60    6.10
   9   5  -2   37.70    4.00
  -8  -5   2    7.20    4.50
  -8  -5   2    5.40    5.10
  -8  -5   2   -3.10    3.90
  -8  -5   2    4.10    4.40
   8  -5  -2    5.80    4.60
   8  -5  -2    9.80    5.10
   8  -5  -2   10.50    3.60
   8  -5  -2    8.90    4.90
  -8  -5   2   11.40    4.40
   8   5  -2    8.20    4.50
  -8   5   2    9.00    4.10
  -8   5   2    2.30    5.70
  -8   5   2    4.90    4.30
  -8   5   2   -1.50    4.20
   8   5  -2    1.40    5.10
   8   5  -2   11.80    4.40
  -8   5   2    5.00    5.80
  -8   5   2    7.10    4.40
   8   5  -2    9.20    5.40
   8   5  -2    4.10    2.80
  -7  -5   2  134.89    8.20
   7  -5  -2  139.69    8.10
  -7  -5   2  131.59    8.10
  -7  -5   2  138.89    7.50
   7  -5  -2  134.89    6.60
   7  -5  -2  142.29    8.20
  -7  -5   2  134.59    8.10
  -7  -5   2  130.69    7.90
  -7   5   2  139.69    8.00
   7   5  -2  134.39    4.90
   7   5  -2  141.29    8.30
  -7   5   2  134.39    6.80
  -7   5   2  139.09    8.50
   7   5  -2  130.89    4.60
   7   5  -2  147.39    8.40
  -7   5   2  135.69    8.00
   7   5  -2  141.39    7.80
   7   5  -2  143.89    8.10
  -7   5   2  145.59    7.50
  -6  -5   2  652.43   16.30
   6  -5  -2  646.94   15.00
   6  -5  -2  662.93   15.60
  -6  -5   2  657.03   15.80
  -6  -5   2  690.33   16.40
  -6  -5   2  683.93   16.50
  -6  -5   2  655.93   16.00
   6  -5  -2  657.63   16.10
  -6   5   2  671.73   16.30
   6   5  -2  671.23   16.30
   6   5  -2  653.33   13.00
   6   5  -2  669.93   16.00
   6   5  -2  686.03   16.20
  -6   5   2  665.43   16.80
  -6   5   2  632.74   16.10
  -6   5   2  650.43   15.70
  -6   5   2  682.63   16.70
   6   5  -2  668.53   16.00
  -6   5   2  663.83   14.90
  -6   5   2  653.73   16.20
  -5  -5   2 1097.29   23.40
   5  -5  -2 1122.49   22.40
   5  -5  -2 1087.99   23.10
   5  -5  -2 1086.09   23.40
  -5  -5   2 1088.79   23.20
   5  -5  -2 1107.69   23.20
  -5  -5   2 1067.09   23.20
  -5  -5   2 1113.79   23.00
   5  -5  -2 1109.39   22.50
  -5  -5   2 1069.69   23.00
   5   5  -2 1103.59   23.00
   5   5  -2 1073.09   23.00
   5   5  -2 1089.39   23.00
   5   5  -2 1127.29   23.50
  -5   5   2 1081.19   21.70
  -5   5   2 1082.79   22.80
  -5   5   2 1095.19   23.20
  -5   5   2 1099.49   23.70
   5   5  -2 1081.49   23.10
  -5   5   2 1119.09   23.50
  -5   5   2 1103.69   23.20
  -5   5   2 1108.49   23.40
   5   5  -2 1097.79   22.80
  -5   5   2 1071.79   23.70
  -4  -5   2  264.87    8.60
  -4  -5   2  265.37    8.80
  -4  -5   2  260.17    8.90
   4  -5  -2  275.87    7.60
   4  -5  -2  271.17    8.50
  -4  -5   2  274.17    8.20
   4  -5  -2  275.77    8.80
   4  -5  -2  271.77    8.20
   4  -5  -2  269.07    8.40
  -4  -5   2  290.57    8.70
   4   5  -2  283.77    8.50
   4   5  -2  279.17    8.90
  -4   5   2  277.77    8.60
  -4   5   2  267.97    8.70
  -4   5   2  269.27    8.50
   4   5  -2  267.67    8.20
   4   5  -2  268.17    8.40
  -4   5   2  274.87    8.80
   4   5  -2  272.27    8.60
  -4   5   2  267.77    7.10
  -4   5   2  275.57    9.00
   4   5  -2  271.17    8.40
  -4   5   2  272.77    9.10
   3  -5  -2  544.25   12.80
  -3  -5   2  556.14   13.10
   3  -5  -2  527.25   13.00
   3  -5  -2  545.55   11.50
   3  -5  -2  523.75   12.90
   3  -5  -2  541.55   12.90
  -3  -5   2  536.25   13.00
  -3  -5   2  536.75   13.10
   3   5  -2  547.95   12.70
   3   5  -2  548.45   12.90
   3   5  -2  557.24   12.40
   3   5  -2  531.55   12.90
  -3   5   2  526.65   13.10
   3   5  -2  536.15   10.80
  -3   5   2  519.25   12.70
  -3   5   2  541.55   13.00
   3   5  -2  558.64   13.10
  -3   5   2  545.55   12.90
   3   5  -2  547.85   12.80
  -3   5   2  539.55   13.20
  -3   5   2  530.55   12.90
  -2  -5   2 1309.57   26.00
   2  -5  -2 1345.87   26.30
   2  -5  -2 1306.37   26.00
  -2  -5   2 1318.77   25.90
  -2  -5   2 1332.37   26.80
  -2  -5   2 1310.37   26.30
  -2  -5   2 1292.67   26.20
   2  -5  -2 1303.17   24.50
  -2  -5   2 1307.77   24.30
   2  -5  -2 1346.37   26.40
  -2  -5   2 1299.77   26.30
   2   5  -2 1325.67   26.00
   2   5  -2 1265.97   24.40
  -2   5   2 1307.87   26.30
   2   5  -2 1323.37   26.10
  -2   5   2 1295.47   26.10
  -2   5   2 1254.47   26.10
  -2   5   2 1304.17   26.30
  -2   5   2 1315.77   26.30
   2   5  -2 1338.37   26.10
  -2   5   2 1282.57   26.10
   2   5  -2 1317.77   25.30
  -1  -5   2 1119.89   22.20
   1  -5  -2 1107.49   22.50
  -1  -5   2 1110.39   22.50
   1  -5  -2 1100.99   22.20
  -1  -5   2 1123.49   22.10
   1  -5  -2 1086.89   22.20
   1  -5  -2 1080.59   20.70
  -1  -5   2 1098.09   22.30
   1  -5  -2 1074.19   22.40
  -1  -5   2 1066.89   22.20
   1  -5  -2 1072.89   22.20
   1  -5  -2 1066.59   22.40
   1  -5  -2 1099.29   22.30
  -1  -5   2 1089.59   20.80
   1   5  -2 1123.79   22.30
  -1   5   2 1059.59   22.10
   1   5  -2 1093.19   22.10
   1   5  -2 1103.39   21.10
  -1   5   2 1090.29   22.60
  -1   5   2 1100.69   22.50
  -1   5   2 1059.59   22.20
  -1   5   2 1093.99   22.10
   1   5  -2 1099.19   22.10
   1   5  -2 1084.69   21.10
  -1   5   2 1105.09   22.50
   1   5  -2 1075.59   22.20
  -1   5   2 1060.59   22.10
   1   5  -2 1077.99   22.30
   0  -5  -2  262.57    8.10
   0  -5   2  233.48    7.60
   0  -5   2  245.68    7.70
   0  -5   2  251.87    7.70
   0  -5  -2  249.18    7.40
   0  -5   2  258.37    7.60
   0  -5  -2  246.58    7.80
   0  -5  -2  255.97    7.70
   0  -5   2  249.68    7.90
   0  -5  -2  262.97    7.70
   0  -5   2  257.77    6.80
   0  -5   2  253.57    7.60
   0  -5  -2  254.57    8.00
   0  -5  -2  248.08    7.70
   0   5  -2  262.17    7.70
   0   5  -2  253.17    6.40
   0   5   2  234.88    7.80
   0   5  -2  251.47    7.60
   0   5   2  258.97    7.50
   0   5   2  260.27    7.80
   0   5   2  256.47    8.20
   0   5  -2  251.27    7.80
   0   5   2  252.07    7.50
   0   5   2  247.58    7.50
   0   5   2  249.68    7.90
   0   5  -2  262.77    7.00
   0   5  -2  257.77    7.50
   0   5  -2  257.97    7.70
  -1  -5  -2  382.26   10.40
   1  -5   2  379.76   10.10
   1  -5   2  391.86    9.50
   1  -5   2  388.36   10.00
  -1  -5  -2  393.36   10.00
   1  -5   2  391.86   10.10
  -1  -5  -2  391.46   10.40
   1  -5   2  380.96   10.40
   1   5   2  387.36   10.70
  -1   5  -2  402.26    9.90
  -1   5  -2  393.06   10.00
   1   5   2  394.66   10.50
   1   5   2  401.46    9.90
  -1   5  -2  383.36   10.50
  -1   5  -2  385.06   10.10
   1   5   2  397.76   10.30
   1   5   2  395.36    9.70
  -1   5  -2  376.46   10.00
   1   5   2  391.26   10.50
   1   5   2  394.36   10.10
  -2  -5  -2  587.84   13.10
   2  -5   2  588.44   13.10
   2  -5   2  554.94   13.80
  -2  -5  -2  558.34   13.70
  -2  -5  -2  558.24   13.70
   2  -5   2  573.64   13.40
   2  -5   2  570.24   13.40
  -2  -5  -2  594.44   13.90
   2  -5   2  581.14   13.50
  -2   5  -2  557.24   13.40
  -2   5  -2  550.34   13.80
   2   5   2  569.54   13.50
   2   5   2  563.44   12.90
  -2   5  -2  575.34   13.40
  -2   5  -2  574.54   13.40
   2   5   2  546.55   13.50
  -2   5  -2  573.04   13.30
   2   5   2  577.44   13.90
   2   5   2  568.74   12.80
   2   5   2  574.54   14.10
   2   5   2  587.54   13.90
   2   5   2  556.84   13.50
  -2   5  -2  568.64   13.50
  -3  -5  -2  482.65   12.50
   3  -5   2  480.85   12.10
   3  -5   2  467.15   12.20
  -3  -5  -2  484.05   12.50
   3  -5   2  473.25   12.10
  -3  -5  -2  487.95   11.60
  -3  -5  -2  499.75   12.70
   3  -5   2  477.65   12.20
   3   5   2  424.06   13.70
   3   5   2  473.25   12.30
   3   5   2  483.55   12.30
  -3   5  -2  463.85   10.30
   3   5   2  490.65   11.50
   3   5   2  477.75   12.60
  -3   5  -2  468.25   12.20
  -3   5  -2  485.15   12.30
  -3   5  -2  503.65   12.30
   3   5   2  492.15   12.90
  -3   5  -2  481.25   12.20
   3   5   2  464.25   11.40
  -3   5  -2  476.75   12.30
  -3   5  -2  492.35   12.40
   3   5   2  472.55   12.20
  -3   5  -2  475.75   12.20
   4  -5   2  767.72   17.50
  -4  -5  -2  717.23   18.00
  -4  -5  -2  767.22   16.70
  -4  -5  -2  746.93   17.80
   4  -5   2  781.32   17.90
   4  -5   2  778.02   17.70
  -4  -5  -2  772.02   18.10
   4  -5   2  768.62   17.60
  -4  -5  -2  789.22   17.80
  -4   5  -2  764.12   17.70
  -4   5  -2  784.92   17.90
   4   5   2  758.72   16.70
  -4   5  -2  777.82   17.60
   4   5   2  746.63   16.50
  -4   5  -2  800.22   17.90
  -4   5  -2  746.33   15.60
  -4   5  -2  780.12   17.50
   4   5   2  758.52   17.60
   4   5   2  742.03   17.50
   4   5   2  756.92   18.10
   4   5   2  774.02   17.90
   4   5   2  775.12   17.60
  -4   5  -2  773.62   17.70
  -4   5  -2  770.02   17.70
   4   5   2  756.32   17.90
  -5  -5  -2   77.69    7.10
  -5  -5  -2   82.09    5.70
  -5  -5  -2   80.09    7.40
  -5  -5  -2   66.89    6.80
   5  -5   2   78.69    7.10
  -5  -5  -2   66.99    5.60
   5  -5   2   71.99    6.70
   5  -5   2   72.49    6.50
   5  -5   2   72.59    6.70
  -5   5  -2   75.39    6.60
   5   5   2   73.09    6.60
   5   5   2   82.69    6.80
   5   5   2   63.99    6.20
   5   5   2   71.69    8.60
   5   5   2   67.19    5.80
  -5   5  -2   77.39    6.70
  -5   5  -2  106.79    7.00
  -5   5  -2   72.59    4.70
  -5   5  -2   67.09    6.60
   6  -5   2  241.78   10.10
   6  -5   2  249.48   10.70
   6  -5   2  246.08   10.50
  -6  -5  -2  253.77    9.80
  -6  -5  -2  260.67   11.40
  -6  -5  -2  257.07    8.80
  -6  -5  -2  239.18   10.40
  -6  -5  -2  256.57   10.60
   6  -5   2  250.57   10.20
  -6   5  -2  231.98   10.10
  -6   5  -2  241.38   10.00
  -6   5  -2  250.17    8.00
   6   5   2  223.48   10.80
  -6   5  -2  243.38    9.90
   6   5   2  260.57   10.40
   6   5   2  247.98   10.90
  -6   5  -2  244.48   10.20
  -7  -5  -2  536.65   13.90
  -7  -5  -2  517.45   15.90
  -7  -5  -2  485.55   15.00
  -7  -5  -2  525.95   15.80
   7  -5   2  492.55   16.00
   7  -5   2  527.25   15.70
   7  -5   2  534.25   16.30
  -7   5  -2  510.85   15.70
   7   5   2  510.45   16.40
  -7   5  -2  526.85   13.20
   7   5   2  538.05   15.60
  -7   5  -2  524.55   15.30
  -7   5  -2  535.05   15.50
   7   5   2  494.95   16.10
  -8  -5  -2  132.89   11.20
   8  -5   2  127.29   11.80
   8  -5   2  131.09   12.40
  -8  -5  -2  134.49   11.20
  -8  -5  -2  120.19   10.70
  -8  -5  -2   95.79    9.70
   8  -5   2  133.89   11.70
  -8  -5  -2  141.59    8.60
   8   5   2  132.79   12.80
  -8   5  -2  128.19   11.50
  -8   5  -2  119.39   10.50
   8   5   2  113.49   10.20
  -8   5  -2  121.59   10.20
  -8   5  -2  139.89    8.20
  -8   5  -2  119.79    9.40
   8   5   2  133.49   12.40
   9  -5   2   97.19    8.70
  -9  -5  -2  105.59    9.60
   9  -5   2  112.19   10.30
  -9  -5  -2  104.39    9.30
  -9  -5  -2  104.29    9.60
   9  -5   2  105.49   10.40
  -9   5  -2  121.39   12.30
   9   5   2  100.49   11.20
   9   5   2  105.59    9.20
  -9   5  -2  110.89    9.20
  -9   5  -2   98.09    9.40
 -10  -5  -2   -5.00    8.50
 -10  -5  -2   -2.90    6.30
  10  -5   2   -1.20    5.60
  10  -5   2    2.00    9.20
 -10  -5  -2   -3.30    8.20
 -10   5  -2    4.00    8.30
  10   5   2    6.50    8.10
 -10   5  -2    1.70    7.80
  10   5   2   -5.60    7.90
 -10   5  -2   13.20    6.60
  11  -5   2   -7.50   12.00
 -11  -5  -2   11.40    8.40
 -11  -5  -2   11.50   11.10
  11  -5   2    3.20    7.40
 -11  -5  -2   -6.00   10.70
 -11   5  -2    6.10   10.50
  11   5   2    1.20    9.70
 -11   5  -2    3.50   10.40
 -11   5  -2   10.10    8.30
 -11  -6   2   17.80    9.10
 -11  -6   2   14.90    9.30
 -11  -6   2    5.50    8.80
 -11  -6   2   19.80   10.30
 -11   6   2   14.80    9.00
  11   6  -2   16.60    9.40
 -11   6   2   15.60    9.20
 -11   6   2   18.20    9.00
 -10  -6   2    2.90    7.60
 -10  -6   2   28.70    7.90
  10  -6  -2   14.10    4.60
 -10  -6   2   28.90    7.70
 -10  -6   2   16.80    7.70
 -10  -6   2   15.60    7.10
 -10   6   2   17.80    7.80
 -10   6   2   11.60    7.00
  10   6  -2   19.80    7.80
  10   6  -2   22.40    4.30
 -10   6   2   15.60    6.70
  10   6  -2   29.30    8.10
 -10   6   2   17.10    7.70
 -10   6   2   14.10    8.80
   9  -6  -2   43.60    7.50
  -9  -6   2   42.70    6.80
  -9  -6   2   36.00    7.20
   9  -6  -2   46.20    5.60
  -9  -6   2   46.20    7.20
  -9  -6   2   43.30    7.00
  -9  -6   2   35.90    7.00
   9   6  -2   35.40    3.60
   9   6  -2   35.40    6.80
  -9   6   2   41.80    8.90
  -9   6   2   43.40    7.20
  -9   6   2   30.30    6.50
   9   6  -2   40.10    4.10
  -9   6   2   36.20    7.30
  -9   6   2   39.90    6.90
   9   6  -2   39.10    6.80
  -9   6   2   45.70    8.00
  -9   6   2   43.40    6.50
  -8  -6   2  223.28   10.80
   8  -6  -2  224.08    9.30
  -8  -6   2  220.88   11.60
  -8  -6   2  226.98   11.30
  -8  -6   2  207.58   10.80
   8  -6  -2  202.38   12.20
  -8  -6   2  236.58   11.30
   8  -6  -2  228.78   11.20
   8   6  -2  214.18   11.20
   8   6  -2  217.08    6.30
  -8   6   2  239.68   12.50
  -8   6   2  222.98   11.90
   8   6  -2  227.58   11.20
  -8   6   2  224.28   13.00
   8   6  -2  193.78   12.10
  -8   6   2  201.68   10.10
   8   6  -2  190.08   12.30
   8   6  -2  222.18    6.70
  -8   6   2  197.58   11.90
  -8   6   2  207.38   11.00
   7  -6  -2    3.80    3.60
  -7  -6   2    7.40    4.80
  -7  -6   2    6.90    4.40
  -7  -6   2    3.50    4.40
  -7  -6   2    3.40    4.40
  -7  -6   2    3.70    4.60
   7  -6  -2    1.30    4.40
   7  -6  -2    4.60    4.70
  -7   6   2   10.30    5.40
  -7   6   2    5.00    3.90
   7   6  -2    4.10    4.10
   7   6  -2    3.30    2.30
   7   6  -2    3.30    2.20
   7   6  -2    6.10    4.30
   7   6  -2   -0.50    5.00
  -7   6   2   10.70    4.30
  -7   6   2   -1.40    3.80
  -7   6   2   12.90    5.30
  -7   6   2    3.70    5.00
  -7   6   2   10.40    4.80
  -6  -6   2    2.20    3.80
  -6  -6   2   -1.30    4.00
   6  -6  -2   -2.60    3.70
   6  -6  -2   -1.80    3.80
   6  -6  -2   -3.40    3.30
  -6  -6   2    0.60    3.90
  -6  -6   2   -1.30    3.60
  -6  -6   2    3.70    3.70
   6   6  -2   -4.10    3.60
  -6   6   2    4.10    3.60
   6   6  -2   -0.10    1.90
   6   6  -2   -3.40    3.50
  -6   6   2    1.50    4.00
  -6   6   2   -3.50    4.00
   6   6  -2    3.10    4.10
  -6   6   2    5.00    3.70
  -6   6   2   -4.30    3.10
  -6   6   2   -2.90    3.40
   6   6  -2   -1.50    3.80
  -6   6   2   -3.00    4.00
  -5  -6   2  174.78    8.30
   5  -6  -2  154.78    7.10
  -5  -6   2  153.58    8.10
  -5  -6   2  174.48    8.20
   5  -6  -2  180.18    8.30
   5  -6  -2  154.38    7.50
  -5  -6   2  168.18    8.30
  -5   6   2  170.38    7.50
  -5   6   2  171.18    8.20
   5   6  -2  162.98    7.80
   5   6  -2  167.68    8.20
   5   6  -2  179.28    8.50
  -5   6   2  174.58    8.70
  -5   6   2  161.68    8.00
   5   6  -2  166.38    4.90
   5   6  -2  174.28    7.90
  -5   6   2  175.78    8.60
  -5   6   2  156.28    6.40
  -5   6   2  168.98    8.30
   5   6  -2  170.18    7.90
   4  -6  -2  654.93   15.50
  -4  -6   2  631.34   16.00
   4  -6  -2  615.74   15.70
   4  -6  -2  614.74   15.50
  -4  -6   2  655.03   15.90
  -4  -6   2  643.44   15.80
  -4  -6   2  644.44   15.90
   4  -6  -2  635.44   15.60
   4  -6  -2  646.34   14.20
   4   6  -2  653.23   15.50
  -4   6   2  629.14   15.60
  -4   6   2  649.04   15.70
   4   6  -2  633.34   15.80
   4   6  -2  630.64   12.80
  -4   6   2  651.53   16.20
   4   6  -2  665.53   15.90
   4   6  -2  625.14   15.00
  -4   6   2  647.94   15.90
   4   6  -2  634.24   15.50
  -4   6   2  635.44   16.00
  -4   6   2  616.94   15.70
   4   6  -2  647.34   15.60
   3  -6  -2  838.92   16.90
  -3  -6   2  821.92   18.80
   3  -6  -2  836.52   18.60
   3  -6  -2  823.12   18.60
   3  -6  -2  839.22   18.80
  -3  -6   2  843.12   18.90
   3  -6  -2  843.52   18.60
  -3  -6   2  831.02   18.80
  -3  -6   2  845.22   19.30
  -3   6   2  839.92   19.00
   3   6  -2  821.72   18.80
   3   6  -2  826.72   16.40
   3   6  -2  828.32   18.60
  -3   6   2  813.22   18.60
  -3   6   2  831.12   18.90
   3   6  -2  851.71   17.90
  -3   6   2  727.23   23.30
   3   6  -2  836.02   18.40
  -3   6   2  828.22   18.70
   3   6  -2  845.42   18.80
  -3   6   2  814.82   18.70
   3   6  -2  840.62   18.70
   2  -6  -2  104.29    5.90
  -2  -6   2   95.39    4.10
   2  -6  -2   96.59    5.80
  -2  -6   2   92.29    6.00
  -2  -6   2   86.69    6.10
  -2  -6   2   93.29    6.50
  -2  -6   2   97.99    6.10
  -2  -6   2   95.99    6.40
   2  -6  -2  104.49    6.30
   2  -6  -2   94.39    5.80
   2  -6  -2  104.19    4.40
  -2  -6   2   98.49    5.90
  -2   6   2  109.09    6.50
   2   6  -2  102.79    5.80
   2   6  -2   97.79    5.10
  -2   6   2  102.09    6.10
  -2   6   2  103.19    6.30
  -2   6   2   92.79    5.90
   2   6  -2   94.09    6.00
   2   6  -2  100.19    6.10
  -2   6   2  100.19    6.10
   2   6  -2   92.69    5.90
  -2   6   2   99.39    6.00
   2   6  -2   97.59    4.50
   2   6  -2   97.59    6.20
   1  -6  -2  506.65   13.00
   1  -6  -2  513.05   12.50
   1  -6  -2  512.55   12.70
  -1  -6   2  499.85   12.60
   1  -6  -2  498.95   10.90
  -1  -6   2  490.15   12.70
  -1  -6   2  494.25   12.80
  -1  -6   2  479.25   13.10
   1  -6  -2  488.55   12.90
   1  -6  -2  519.65   12.80
  -1  -6   2  486.75   12.90
   1  -6  -2  508.35   13.00
  -1  -6   2  503.95   12.80
  -1  -6   2  489.05   12.40
   1  -6  -2  483.85   12.70
  -1  -6   2  486.05   11.00
   1   6  -2  499.25   11.40
   1   6  -2  484.25   12.60
  -1   6   2  504.55   12.90
   1   6  -2  496.75   12.70
  -1   6   2  510.75   13.10
   1   6  -2  488.05   12.50
  -1   6   2  494.25   12.60
   1   6  -2  492.75   12.70
   1   6  -2  500.75   12.40
  -1   6   2  488.95   12.40
  -1   6   2  493.05   12.60
   1   6  -2  512.65   11.50
  -1   6   2  474.65   12.60
   0  -6   2  574.74   13.70
   0  -6   2  554.34   13.60
   0  -6  -2  573.94   14.20
   0  -6  -2  552.74   13.90
   0  -6  -2  555.64   13.90
   0  -6   2  556.64   13.80
   0  -6  -2  537.05   13.90
   0  -6   2  556.14   14.10
   0  -6  -2  568.74   14.30
   0  -6  -2  555.04   13.80
   0  -6   2  576.74   13.80
   0  -6   2  561.84   12.60
   0  -6  -2  554.94   13.30
   0  -6   2  582.04   14.40
   0  -6   2  544.75   13.90
   0   6   2  554.44   15.40
   0   6   2  559.14   14.30
   0   6  -2  572.44   13.90
   0   6  -2  561.64   12.30
   0   6  -2  580.04   13.70
   0   6  -2  555.24   13.80
   0   6   2  564.64   13.50
   0   6   2  567.74   14.10
   0   6   2  541.55   13.50
   0   6  -2  566.94   14.00
   0   6   2  556.94   13.80
   0   6   2  561.74   13.90
   0   6  -2  577.24   13.80
   0   6  -2  596.84   13.10
   1  -6   2  214.68    7.80
  -1  -6  -2  214.58    8.00
  -1  -6  -2  210.58    8.20
  -1  -6  -2  222.78    8.50
   1  -6   2  209.98    7.00
   1  -6   2  211.98    7.80
   1  -6   2  203.18    7.60
  -1  -6  -2  212.98    8.40
   1  -6   2  224.18    8.40
  -1   6  -2  212.78    7.90
   1   6   2  194.68    8.40
   1   6   2  206.48    7.70
  -1   6  -2  217.58    8.00
   1   6   2  219.88    8.50
   1   6   2  201.58    8.10
   1   6   2  215.58    7.90
  -1   6  -2  210.78    7.90
   1   6   2  207.38    7.90
  -1   6  -2  214.28    7.60
  -1   6  -2  210.58    8.20
   1   6   2  212.38    7.40
  -1   6  -2  217.38    8.00
   2  -6   2  316.07    9.20
   2  -6   2  310.87    9.60
   2  -6   2  299.07   10.20
   2  -6   2  298.57    9.50
  -2  -6  -2  304.77    9.50
   2  -6   2  275.07   10.90
  -2  -6  -2  304.07   10.10
  -2  -6  -2  311.87   10.10
  -2  -6  -2  323.87   10.30
  -2   6  -2  303.77    9.80
  -2   6  -2  320.87    9.70
  -2   6  -2  302.87    9.90
   2   6   2  305.97    9.10
   2   6   2  304.17    9.00
  -2   6  -2  314.67    9.90
   2   6   2  311.27   10.30
  -2   6  -2  301.27    9.70
  -2   6  -2  306.67    9.50
   2   6   2  310.47    9.80
   2   6   2  305.97   10.10
   2   6   2  294.67   10.40
   2   6   2  310.97    9.80
   2   6   2  307.57    9.70
  -3  -6  -2  188.88    8.40
   3  -6   2  191.98    8.00
   3  -6   2  190.68    8.00
   3  -6   2  186.88    8.00
  -3  -6  -2  186.08    8.40
   3  -6   2  183.48    7.60
  -3  -6  -2  167.68    8.10
  -3  -6  -2  176.88    7.60
   3   6   2  187.98    8.20
  -3   6  -2  195.28    8.20
   3   6   2  187.48    8.30
   3   6   2  177.68    7.30
   3   6   2  180.98    7.20
   3   6   2  180.88    8.40
  -3   6  -2  194.08    8.10
  -3   6  -2  183.28    8.10
   3   6   2  180.28    8.40
   3   6   2  184.68    9.00
  -3   6  -2  193.88    8.30
  -3   6  -2  180.48    8.10
   3   6   2  184.38    8.00
  -3   6  -2  187.98    8.20
  -3   6  -2  191.58    5.90
  -4  -6  -2  711.13   16.70
   4  -6   2  755.82   17.80
  -4  -6  -2  724.83   18.00
   4  -6   2  735.93   17.70
   4  -6   2  725.93   17.50
  -4  -6  -2  699.63   17.70
   4  -6   2  690.43   17.20
  -4  -6  -2  715.53   17.90
  -4   6  -2  712.53   17.70
  -4   6  -2  721.03   17.60
  -4   6  -2  722.43   17.70
   4   6   2  708.53   18.10
   4   6   2  737.13   17.70
   4   6   2  735.33   17.70
   4   6   2  703.43   16.50
   4   6   2  696.03   17.50
  -4   6  -2  729.43   15.20
   4   6   2  730.33   18.10
  -4   6  -2  717.13   17.20
  -4   6  -2  733.33   17.60
  -4   6  -2  699.03   17.60
   4   6   2  731.03   18.10
  -4   6  -2  707.13   17.60
   4   6   2  723.73   16.30
  -5  -6  -2  431.06   13.80
  -5  -6  -2  435.46   12.20
   5  -6   2  421.76   13.20
   5  -6   2  439.46   13.60
   5  -6   2  444.36   13.60
  -5  -6  -2  419.26   13.10
  -5  -6  -2  440.16   13.90
  -5  -6  -2  434.16   13.80
   5  -6   2  460.55   13.70
  -5   6  -2  429.26   13.60
  -5   6  -2  438.06   13.20
   5   6   2  424.06   12.30
   5   6   2  445.46   14.20
  -5   6  -2  437.66   10.90
   5   6   2  439.06   13.30
   5   6   2  445.36   13.90
  -5   6  -2  430.86   13.30
  -5   6  -2  440.66   13.70
  -5   6  -2  439.46   13.70
   5   6   2  448.26   11.80
  -5   6  -2  445.06   13.40
   5   6   2  443.56   13.40
   5   6   2  456.85   14.20
   6  -6   2   26.40    5.80
  -6  -6  -2   36.10    5.80
  -6  -6  -2   25.40    5.50
   6  -6   2   22.60    5.60
  -6  -6  -2   23.90    6.20
  -6  -6  -2   22.10    4.40
  -6  -6  -2   26.80    5.50
   6  -6   2   25.30    6.10
   6  -6   2   36.20    6.00
   6   6   2   26.00    5.40
  -6   6  -2   26.10    3.90
   6   6   2   21.50    6.10
  -6   6  -2   19.90    5.80
  -6   6  -2   29.40    6.20
   6   6   2   29.70    6.10
   6   6   2   29.80    5.60
  -6   6  -2   24.20    5.20
  -6   6  -2   33.80    5.70
   6   6   2   18.20    5.10
  -6   6  -2   27.40    5.40
   6   6   2   29.20    4.30
   7  -6   2  118.79   11.50
   7  -6   2  133.09   10.80
  -7  -6  -2  125.09   10.80
  -7  -6  -2  123.79   10.60
  -7  -6  -2  133.99    8.80
  -7  -6  -2  131.79   10.60
  -7  -6  -2  126.89   11.20
   7  -6   2  127.79   11.80
  -7   6  -2  125.99   11.80
   7   6   2   96.19    8.90
   7   6   2  124.59   10.30
   7   6   2  143.59   10.60
  -7   6  -2  134.79    7.60
   7   6   2  168.58   10.70
  -7   6  -2  124.39   11.70
  -7   6  -2  128.79   10.40
   7   6   2  140.69   12.80
   8  -6   2   17.10    7.10
   8  -6   2    8.80    7.60
  -8  -6  -2   15.10    6.90
  -8  -6  -2    3.80    6.60
  -8  -6  -2   10.70    5.30
  -8   6  -2    9.70    6.40
   8   6   2    5.50    8.40
  -8   6  -2   13.20    4.80
  -8   6  -2   19.10    6.60
   8   6   2   20.90    6.80
   8   6   2   16.10    6.90
   8   6   2   17.20    6.40
  -9  -6  -2   99.29   10.60
   9  -6   2   99.69   12.00
  -9  -6  -2   91.59   10.30
  -9  -6  -2   78.59    9.70
   9  -6   2  105.49   11.10
  -9   6  -2   92.39    7.70
   9   6   2   76.79    9.40
  -9   6  -2   91.99    9.80
   9   6   2   93.39    9.20
  -9   6  -2   98.79    9.90
   9   6   2  120.39   18.20
 -10  -6  -2   77.69   12.10
  10  -6   2   61.29   12.20
 -10  -6  -2   75.89    9.00
 -10  -6  -2   79.89   11.80
  10  -6   2   73.59    8.40
  10   6   2   63.59   10.70
  10   6   2   78.29   11.00
 -10   6  -2   81.49   11.50
 -10   6  -2   73.19   11.20
 -10   6  -2   54.29    8.50
 -11  -7   2   59.29   13.30
 -11  -7   2   53.89   11.40
  11   7  -2   58.99   11.30
 -11   7   2   49.99   11.00
 -11   7   2   69.39   12.70
  10  -7  -2   25.50    9.70
 -10  -7   2   31.60    9.60
 -10  -7   2   28.00    9.10
 -10  -7   2   29.20    9.70
  10   7  -2    7.20    8.50
 -10   7   2   25.80    9.70
 -10   7   2   25.70    8.60
 -10   7   2   27.30    8.90
 -10   7   2   27.40   10.40
  -9  -7   2   26.00    7.90
   9  -7  -2   25.80    7.80
   9  -7  -2   26.90    6.60
  -9  -7   2   26.20    7.80
  -9  -7   2   22.40    7.90
  -9   7   2   37.20    7.90
  -9   7   2   34.50    8.20
  -9   7   2   24.30    6.60
   9   7  -2   25.10    8.30
  -9   7   2   26.30    8.70
   9   7  -2   24.40    7.80
  -9   7   2   29.00    8.00
  -9   7   2    3.00    9.60
   8  -7  -2   40.10    6.10
  -8  -7   2   32.70    6.50
  -8  -7   2   29.70    7.00
  -8  -7   2   32.50    7.50
  -8  -7   2   23.70    7.10
   8  -7  -2   35.10    6.90
   8   7  -2   30.60    6.90
  -8   7   2   41.00    8.10
  -8   7   2   36.40    6.70
  -8   7   2   29.20    7.60
  -8   7   2   35.40    8.60
  -8   7   2   26.50    6.60
  -8   7   2   35.50    6.30
   8   7  -2   28.20    6.70
  -8   7   2   42.40    7.10
   7  -7  -2  125.49    8.60
   7  -7  -2  117.59    9.40
  -7  -7   2  115.99   10.20
  -7  -7   2  120.59   10.00
  -7  -7   2  123.29   10.60
   7  -7  -2  101.79    8.50
  -7  -7   2  127.09   10.70
   7   7  -2  100.69   10.00
  -7   7   2  113.19    8.80
   7   7  -2  125.89   10.10
   7   7  -2  111.79   11.10
  -7   7   2  122.49    8.60
  -7   7   2  119.99   12.10
  -7   7   2  125.49   11.70
  -7   7   2  106.49   10.60
  -7   7   2  117.49    9.90
   7   7  -2  100.69    9.10
   6  -7  -2  186.38   11.20
   6  -7  -2  218.38   10.80
  -6  -7   2  210.88   10.70
  -6  -7   2  229.88   10.90
   6  -7  -2  234.08    9.80
  -6  -7   2  203.28   11.00
   6  -7  -2  226.78    9.60
   6  -7  -2  212.68   11.20
   6   7  -2  208.38    6.00
  -6   7   2  222.48   10.50
  -6   7   2  197.98   11.70
  -6   7   2  219.18   10.80
  -6   7   2  211.28    9.70
  -6   7   2  230.18    8.90
   6   7  -2  204.18   11.70
  -6   7   2  247.58   11.70
   6   7  -2  212.08   10.30
   6   7  -2  208.78   12.10
   6   7  -2  228.18   10.70
  -6   7   2  213.28   11.10
  -5  -7   2  126.39    8.80
  -5  -7   2  136.79    8.80
   5  -7  -2  137.19    7.40
   5  -7  -2  134.89    7.90
   5  -7  -2  122.19    8.80
   5  -7  -2  128.39    8.70
  -5  -7   2  124.69    9.20
  -5  -7   2  142.79    9.00
   5   7  -2  135.29    8.40
  -5   7   2  137.69    9.30
   5   7  -2  132.49    9.40
  -5   7   2  128.29    8.50
  -5   7   2  135.79    8.50
  -5   7   2  138.69    9.10
   5   7  -2  122.99    4.80
   5   7  -2  112.49    9.10
   5   7  -2  125.39    8.30
  -5   7   2  134.59    9.50
   5   7  -2  136.89    8.60
  -4  -7   2   72.39    6.20
   4  -7  -2   63.99    5.90
  -4  -7   2   65.09    6.10
  -4  -7   2   68.19    6.10
   4  -7  -2   70.89    6.90
   4  -7  -2   70.09    5.70
   4  -7  -2   84.09    6.80
  -4  -7   2   73.39    6.20
  -4   7   2   59.49    5.30
   4   7  -2   59.19    5.60
  -4   7   2   62.19    6.40
   4   7  -2   67.29    4.30
   4   7  -2   75.59    7.00
   4   7  -2   71.29    7.10
  -4   7   2   70.09    7.20
   4   7  -2   73.99    6.50
  -4   7   2   57.89    5.40
  -4   7   2   85.79    7.60
   4   7  -2   80.69    8.20
  -4   7   2   72.29    7.60
  -3  -7   2  254.97   10.30
  -3  -7   2  240.48    9.90
  -3  -7   2  258.87    9.90
   3  -7  -2  251.67    9.50
   3  -7  -2  243.08    9.60
   3  -7  -2  256.17    9.70
   3  -7  -2  250.77    7.80
  -3  -7   2  263.17   10.10
   3  -7  -2  257.37    9.80
   3   7  -2  257.07   10.10
   3   7  -2  254.77    8.80
  -3   7   2  251.77   10.20
   3   7  -2  245.38    7.20
   3   7  -2  248.68    9.60
  -3   7   2  246.08    9.60
  -3   7   2  257.47    9.70
  -3   7   2  250.27    9.80
  -3   7   2  245.18   10.00
  -3   7   2  252.87   10.20
   3   7  -2  246.18    9.90
   3   7  -2  252.27    9.60
  -2  -7   2   63.69    5.30
   2  -7  -2   57.89    5.40
  -2  -7   2   49.10    4.10
   2  -7  -2   56.89    5.30
  -2  -7   2   44.10    5.50
  -2  -7   2   64.79    5.50
  -2  -7   2   54.59    5.40
   2  -7  -2   59.49    5.50
   2  -7  -2   62.29    5.50
  -2  -7   2   44.70    4.50
  -2  -7   2   56.09    5.40
   2  -7  -2   48.10    4.40
  -2   7   2   62.69    5.80
  -2   7   2   48.90    4.90
   2   7  -2   57.59    4.80
  -2   7   2   60.89    5.60
   2   7  -2   60.49    5.30
  -2   7   2   61.59    5.50
  -2   7   2   54.09    5.10
  -2   7   2   51.19    5.00
   2   7  -2   56.49    5.20
   2   7  -2   63.29    5.40
  -1  -7   2  358.06   11.10
   1  -7  -2  354.46   11.20
  -1  -7   2  359.16   11.30
   1  -7  -2  340.27   10.60
  -1  -7   2  347.67   11.40
  -1  -7   2  350.46    9.20
   1  -7  -2  363.06   11.20
  -1  -7   2  348.97   11.20
   1  -7  -2  347.97    9.10
  -1  -7   2  356.06   11.30
   1  -7  -2  364.36   11.40
   1  -7  -2  345.87   11.50
   1  -7  -2  361.36   11.40
   1  -7  -2  366.76   11.50
  -1  -7   2  357.46   11.00
  -1   7   2  373.46   11.70
   1   7  -2  364.96   11.20
   1   7  -2  355.26    9.70
   1   7  -2  358.06   11.30
  -1   7   2  370.96   11.20
  -1   7   2  370.76   11.70
  -1   7   2  362.16   10.90
   1   7  -2  332.87   10.80
  -1   7   2  341.57   11.20
  -1   7   2  354.16   11.20
   1   7  -2  357.36    9.70
   0  -7   2   56.69    4.90
   0  -7   2   60.09    6.20
   0  -7  -2   65.59    6.50
   0  -7  -2   63.29    5.60
   0  -7  -2   49.20    5.10
   0  -7   2   64.79    7.20
   0  -7  -2   62.19    4.80
   0  -7   2   63.89    5.40
   0  -7  -2   67.29    6.50
   0  -7   2   54.69    5.20
   0  -7   2   58.89    5.30
   0  -7  -2   56.79    5.20
   0  -7   2   64.89    5.30
   0  -7   2   68.69    6.70
   0  -7  -2   49.50    4.90
   0   7  -2   60.49    5.60
   0   7  -2   58.49    6.50
   0   7   2   56.49    5.10
   0   7   2   55.29    5.00
   0   7  -2   61.19    5.20
   0   7  -2   65.29    4.90
   0   7  -2   63.79    5.60
   0   7   2   60.69    5.60
   0   7   2   63.69    6.00
   0   7  -2   58.39    5.50
   0   7   2   61.39    5.40
   0   7  -2   55.79    5.40
  -1  -7  -2  782.42   18.30
   1  -7   2  767.32   18.90
   1  -7   2  770.52   18.30
   1  -7   2  766.72   18.00
   1  -7   2  784.12   18.90
   1  -7   2  780.62   17.20
  -1  -7  -2  794.12   18.90
  -1  -7  -2  755.02   18.80
   1  -7   2  758.02   18.20
  -1  -7  -2  804.52   18.80
  -1   7  -2  778.82   18.60
  -1   7  -2  702.93   18.20
  -1   7  -2  765.32   17.80
  -1   7  -2  779.62   18.60
   1   7   2  781.02   18.90
  -1   7  -2  777.02   18.40
   1   7   2  762.32   19.00
   1   7   2  751.42   17.80
   1   7   2  781.42   18.80
   1   7   2  759.32   18.30
  -1   7  -2  766.72   18.30
   1   7   2  771.32   18.40
   1   7   2  782.22   18.20
   1   7   2  762.82   17.60
   2  -7   2  397.26   11.50
  -2  -7  -2  433.66   13.00
  -2  -7  -2  426.56   13.00
   2  -7   2  409.56   12.10
   2  -7   2  400.66   12.40
  -2  -7  -2  402.76   12.10
   2  -7   2  420.16   12.60
   2  -7   2  416.46   12.90
  -2   7  -2  407.96   12.80
  -2   7  -2  420.76   12.30
   2   7   2  408.96   13.00
   2   7   2  417.96   11.90
   2   7   2  427.06   12.50
   2   7   2  424.16   13.20
   2   7   2  418.66   12.40
  -2   7  -2  405.66   12.40
   2   7   2  337.07   16.00
   2   7   2  413.46   11.50
  -2   7  -2  394.16   12.50
   2   7   2  406.56   12.40
  -2   7  -2  414.46   12.50
  -2   7  -2  426.46   12.80
   3  -7   2   18.60    4.10
  -3  -7  -2   20.10    4.30
   3  -7   2   14.00    4.30
   3  -7   2   18.10    4.70
   3  -7   2   14.80    4.30
  -3  -7  -2   16.90    4.60
  -3  -7  -2   17.70    4.70
   3   7   2   21.90    5.00
  -3   7  -2   11.60    4.20
   3   7   2   14.90    5.20
  -3   7  -2   21.00    4.80
   3   7   2   18.90    4.50
  -3   7  -2   16.00    4.80
  -3   7  -2   10.00    4.00
  -3   7  -2   21.00    3.10
   3   7   2   18.80    4.10
   3   7   2   14.50    4.20
   3   7   2   17.90    4.30
   3   7   2   13.60    3.70
  -3   7  -2   17.50    4.30
   3   7   2   19.30    5.00
  -3   7  -2   17.20    4.80
   4  -7   2   58.29    5.90
  -4  -7  -2   34.30    5.40
   4  -7   2   30.20    5.20
  -4  -7  -2   50.29    5.40
  -4  -7  -2   33.20    5.00
  -4  -7  -2   40.50    5.70
   4  -7   2   48.30    5.70
   4  -7   2   48.70    6.10
  -4   7  -2   36.90    5.40
  -4   7  -2   36.70    5.50
   4   7   2   45.90    5.80
   4   7   2   43.90    5.20
   4   7   2   35.80    5.60
   4   7   2   42.90    5.40
   4   7   2   44.20    4.90
  -4   7  -2   37.00    5.00
  -4   7  -2   50.59    4.90
  -4   7  -2   37.20    6.00
   4   7   2   41.20    5.80
   4   7   2   41.20    6.30
  -4   7  -2   39.70    5.70
  -5  -7  -2    9.60    5.20
  -5  -7  -2    8.00    5.50
  -5  -7  -2    6.60    5.30
  -5  -7  -2    7.00    4.40
   5  -7   2    3.30    5.40
  -5  -7  -2   11.10    5.60
   5  -7   2    3.20    5.60
   5  -7   2    4.90    4.90
   5  -7   2    2.50    5.90
  -5   7  -2    4.60    4.90
   5   7   2    1.30    4.70
  -5   7  -2   10.40    5.40
   5   7   2    2.70    5.20
   5   7   2    3.30    5.80
   5   7   2    1.60    5.80
  -5   7  -2    5.60    5.60
  -5   7  -2    0.80    6.40
   5   7   2    4.80    5.90
  -5   7  -2    6.50    3.40
   5   7   2    7.90    4.80
  -5   7  -2    7.50    5.70
   5   7   2    6.20    5.70
   5   7   2    7.10    4.00
  -5   7  -2   11.00    5.50
  -5   7  -2    3.80    4.60
   6  -7   2  115.19    9.40
   6  -7   2  131.49   12.30
  -6  -7  -2  133.09    9.70
   6  -7   2  111.29    9.70
  -6  -7  -2  115.29   11.00
   6  -7   2  136.19   12.80
  -6  -7  -2  114.79   11.10
  -6  -7  -2  119.89   11.60
   6   7   2  129.09   12.90
  -6   7  -2  126.79   12.30
   6   7   2  120.89   10.60
  -6   7  -2   96.89    8.50
   6   7   2  123.89   11.40
  -6   7  -2  110.19    9.00
  -6   7  -2  126.89    7.20
   6   7   2  121.09    9.80
  -6   7  -2  127.99   10.40
   6   7   2  122.49    8.30
   6   7   2  140.89   10.90
  -7  -7  -2  196.18   13.70
   7  -7   2  200.08   13.10
   7  -7   2  247.88   15.60
  -7  -7  -2  193.68   13.60
  -7  -7  -2  206.18   11.50
  -7  -7  -2  231.88   17.30
   7   7   2  218.38   10.40
   7   7   2  192.38   16.20
  -7   7  -2  194.38   12.40
   7   7   2  220.98   13.20
   7   7   2  205.68   13.00
  -7   7  -2  217.38   12.90
  -7   7  -2  198.08    9.30
  -7   7  -2  207.28   15.80
   7   7   2  223.38   13.80
   8  -7   2   20.70   10.40
  -8  -7  -2   18.90    6.60
  -8  -7  -2   19.60    7.80
   8  -7   2    9.20    8.20
  -8  -7  -2   10.00    7.80
  -8   7  -2   13.70    6.80
  -8   7  -2    6.30    5.50
   8   7   2   23.80   13.10
   8   7   2   15.30    6.80
  -8   7  -2   17.80    7.30
   8   7   2   13.10    8.40
   8   7   2   20.10    5.90
  -9  -7  -2   69.89   11.10
   9  -7   2   47.50   11.50
  -9  -7  -2   59.79    8.80
  -9  -7  -2   65.59   11.00
  -9   7  -2   51.19   10.70
  -9   7  -2   65.99    8.20
   9   7   2   52.29   10.20
   9   7   2   62.39    8.00
  -9   7  -2   49.10   10.10
   9   7   2   43.20   11.00
   9   7   2   78.79   10.80
  10  -7   2   15.40    8.60
  10  -7   2   -9.90   12.60
 -10  -7  -2    0.80    9.40
 -10  -7  -2   14.90   12.10
 -10  -7  -2   32.40   11.80
  10   7   2   17.10   11.60
 -10   7  -2   20.90   11.40
  10   7   2   34.60   12.70
 -10   7  -2   21.50    9.40
  10   7   2   11.00   11.80
 -10   7  -2   14.80   11.30
  10   7   2   13.30    9.50
  10  -8  -2   19.90   11.40
 -10  -8   2   17.30   11.90
 -10  -8   2   53.69   11.40
  10   8  -2   27.40   11.20
 -10   8   2   33.80    9.70
 -10   8   2   43.80   11.70
 -10   8   2   36.60   11.20
  -9  -8   2   84.29   11.40
   9  -8  -2   62.39   10.10
  -9  -8   2  101.59   11.60
  -9  -8   2   92.29   10.70
  -9   8   2   68.09   11.20
  -9   8   2   76.09   10.30
  -9   8   2   84.49   11.10
   9   8  -2   76.59    9.90
  -9   8   2   91.29    9.60
  -8  -8   2  223.18   15.70
  -8  -8   2  220.18   15.20
  -8  -8   2  230.48   15.20
   8  -8  -2  251.07   13.70
  -8   8   2  235.68   16.40
  -8   8   2  220.18   18.10
   8   8  -2  234.08   14.60
  -8   8   2  224.88   15.20
   8   8  -2  197.58   15.40
  -8   8   2  226.38   13.30
  -8   8   2  239.58   15.50
  -8   8   2  214.48   13.40
  -7  -8   2   57.19    8.00
   7  -8  -2   79.59    7.60
  -7  -8   2   70.79    8.10
  -7  -8   2   70.59    8.00
   7  -8  -2   54.59    7.60
   7   8  -2   67.39    8.00
  -7   8   2   68.49    9.40
   7   8  -2   80.09    8.50
  -7   8   2   57.99    9.10
  -7   8   2   67.59    9.30
  -7   8   2   69.39    8.50
  -7   8   2   65.09    7.80
  -7   8   2   74.29    7.60
   6  -8  -2  230.08   13.60
  -6  -8   2  253.87   12.90
   6  -8  -2  215.48   11.70
  -6  -8   2  221.08   13.90
  -6  -8   2  267.07   12.90
  -6  -8   2  249.38   13.00
   6  -8  -2  249.88   10.90
  -6   8   2  248.28   15.00
  -6   8   2  239.58   12.60
  -6   8   2  264.87   14.30
  -6   8   2  258.37   13.20
   6   8  -2  241.58   12.10
   6   8  -2  258.27   12.70
  -6   8   2  249.88   12.60
   6   8  -2  237.68   12.90
   6   8  -2  230.18    6.80
   5  -8  -2   72.49    8.70
  -5  -8   2   73.79    8.30
  -5  -8   2   81.29    7.20
   5  -8  -2   83.89    7.70
  -5  -8   2   72.49    7.20
   5  -8  -2   61.79    6.90
   5  -8  -2   98.09    9.30
   5  -8  -2   62.19    7.20
  -5  -8   2   92.09    8.60
   5   8  -2   83.59    5.10
   5   8  -2   87.39    8.60
  -5   8   2   73.99    7.00
  -5   8   2   91.69    7.60
  -5   8   2  107.19   10.50
   5   8  -2   84.69    7.40
  -5   8   2   83.99    7.50
   5   8  -2   90.99    9.30
   5   8  -2   67.39    8.00
  -5   8   2   75.09    8.40
  -4  -8   2   14.10    6.70
   4  -8  -2   22.40    6.30
  -4  -8   2   15.20    5.10
   4  -8  -2   13.30    5.50
   4  -8  -2    8.30    5.50
  -4  -8   2   14.50    4.90
   4  -8  -2    9.10    5.50
  -4  -8   2   11.30    5.10
   4  -8  -2   17.90    4.10
   4   8  -2   12.30    5.10
   4   8  -2    6.40    5.80
   4   8  -2   11.70    3.20
  -4   8   2   13.00    6.10
   4   8  -2   13.30    5.00
   4   8  -2    1.80    6.10
  -4   8   2   16.70    5.00
  -4   8   2    7.60    5.10
   4   8  -2   13.20    4.80
  -4   8   2    8.90    5.00
  -4   8   2    6.50    6.20
  -4   8   2   19.60    5.90
  -3  -8   2  366.76   14.10
   3  -8  -2  386.56   13.10
   3  -8  -2  387.76   13.40
  -3  -8   2  340.37   17.50
   3  -8  -2  376.46   13.10
   3  -8  -2  376.16   10.60
  -3  -8   2  389.76   13.30
   3  -8  -2  378.66   13.20
  -3   8   2  382.46   14.10
   3   8  -2  386.06   10.30
   3   8  -2  389.16   11.90
   3   8  -2  410.06   13.20
  -3   8   2  402.96   13.40
   3   8  -2  388.96   12.90
   3   8  -2  368.76   13.70
  -3   8   2  377.06   13.20
  -3   8   2  392.36   14.10
  -3   8   2  374.66   13.70
  -3   8   2  404.86   13.40
   3   8  -2  364.86   13.50
  -2  -8   2  145.29    9.40
   2  -8  -2  144.69    9.50
   2  -8  -2  163.88    7.00
   2  -8  -2  144.39    8.90
  -2  -8   2  162.38    9.20
  -2  -8   2  151.28    9.40
  -2  -8   2  167.88    9.10
  -2  -8   2  146.89    9.40
   2  -8  -2  158.68    9.60
   2  -8  -2  125.69    9.10
  -2  -8   2  148.59    9.80
  -2   8   2  145.69   10.30
  -2   8   2  127.99    9.60
  -2   8   2  155.98    9.10
   2   8  -2  144.69    7.60
  -2   8   2  152.38    9.20
   2   8  -2  162.78    9.10
  -2   8   2  152.58    9.80
  -2   8   2  157.58    9.10
   2   8  -2  162.18    7.10
   2   8  -2  156.38    9.10
   2   8  -2  151.28    9.80
   1  -8  -2  193.48    9.20
   1  -8  -2  198.18    9.70
  -1  -8   2  212.78   10.00
   1  -8  -2  225.28   10.40
  -1  -8   2  169.98    9.10
   1  -8  -2  199.58   10.00
  -1  -8   2  191.98    9.80
   1  -8  -2  196.48   10.30
  -1  -8   2  203.78   10.20
  -1  -8   2  194.68    9.80
   1  -8  -2  197.38    7.60
  -1  -8   2  204.88    9.50
   1  -8  -2  204.28   10.30
  -1  -8   2  201.18   10.20
  -1   8   2  211.48    9.90
   1   8  -2  208.58    8.30
  -1   8   2  191.28    9.70
  -1   8   2  210.08    9.40
   1   8  -2  210.88    9.70
   1   8  -2  196.98    8.10
  -1   8   2  196.48   10.10
   1   8  -2  192.18   10.30
  -1   8   2  197.78   10.80
  -1   8   2  200.08   10.40
   1   8  -2  197.78    9.80
   0  -8   2  449.56   12.10
   0  -8  -2  478.65   14.50
   0  -8  -2  460.05   14.40
   0  -8  -2  464.15   14.30
   0  -8  -2  449.86   14.20
   0  -8   2  455.65   14.50
   0  -8   2  465.95   14.30
   0  -8   2  446.86   14.10
   0  -8   2  446.76   14.00
   0  -8  -2  463.95   11.90
   0  -8   2  452.55   13.40
   0  -8  -2  466.95   14.40
   0   8   2  458.15   13.90
   0   8   2  460.15   13.20
   0   8  -2  443.26   13.90
   0   8  -2  454.25   12.80
   0   8  -2  446.06   14.10
   0   8   2  464.75   14.90
   0   8   2  441.66   13.90
   0   8   2  442.66   13.70
   0   8   2  480.15   14.90
   0   8  -2  466.15   14.00
   1  -8   2    3.60    4.20
   1  -8   2    2.10    3.70
  -1  -8  -2    4.90    4.80
   1  -8   2    0.50    4.40
   1  -8   2    3.10    4.10
  -1  -8  -2    6.50    4.80
  -1  -8  -2   15.80    5.00
   1  -8   2    4.90    4.80
   1   8   2   -1.30    4.10
   1   8   2   -2.70    4.80
   1   8   2    9.80    4.20
  -1   8  -2    2.70    4.40
  -1   8  -2    3.50    4.70
  -1   8  -2    1.10    4.50
  -1   8  -2   11.90    4.40
   1   8   2    2.50    4.50
   1   8   2    7.30    4.50
  -1   8  -2   -5.10    4.40
  -1   8  -2    7.30    3.40
   1   8   2    7.70    4.40
   1   8   2   -6.30    4.90
   2  -8   2  268.97   11.90
   2  -8   2  273.77   20.00
  -2  -8  -2  281.17   12.20
  -2  -8  -2  276.37   12.00
   2  -8   2  274.07   10.40
  -2  -8  -2  276.97   11.10
   2  -8   2  276.37   10.80
   2  -8   2  283.67   11.70
  -2   8  -2  266.77   12.30
  -2   8  -2  274.07   11.60
   2   8   2  285.97   11.30
   2   8   2  264.27   11.10
   2   8   2  270.87   12.60
   2   8   2  276.07   10.00
  -2   8  -2  297.27   12.80
  -2   8  -2  280.57   12.00
   2   8   2  267.17   11.30
  -2   8  -2  280.97   10.90
  -2   8  -2  295.17   11.50
   2   8   2  280.57   12.60
  -3  -8  -2   35.50    6.30
   3  -8   2   45.70    5.90
  -3  -8  -2   45.40    6.40
   3  -8   2   45.90    6.50
   3  -8   2   36.40    6.30
   3  -8   2   43.10    7.40
  -3  -8  -2   37.90    5.50
   3  -8   2   40.00    5.70
   3   8   2   40.90    6.00
  -3   8  -2   37.60    6.80
   3   8   2   37.80    5.20
  -3   8  -2   45.10    6.20
  -3   8  -2   45.50    6.60
   3   8   2   44.40    6.30
   3   8   2   41.30    6.20
   3   8   2   48.30    7.20
  -3   8  -2   47.10    6.10
  -3   8  -2   48.70    4.30
   3   8   2   43.10    7.00
  -3   8  -2   41.80    6.10
  -3   8  -2   40.90    6.20
   3   8   2   43.20    7.00
   4  -8   2   55.49    7.50
   4  -8   2   49.50    7.30
   4  -8   2   54.39    7.20
  -4  -8  -2   49.30    7.10
  -4  -8  -2   42.80    8.00
  -4  -8  -2   47.80    6.10
   4  -8   2   57.69    6.50
   4   8   2   41.20    6.60
  -4   8  -2   58.59    7.70
  -4   8  -2   53.19    6.60
   4   8   2   56.29    5.90
  -4   8  -2   41.80    7.20
   4   8   2   46.80    8.10
   4   8   2   48.20    6.60
   4   8   2   53.29    7.20
  -4   8  -2   68.59    7.20
   4   8   2   42.70    6.70
  -4   8  -2   46.30    7.00
   4   8   2   37.80    6.20
   4   8   2   50.79    6.80
  -4   8  -2   67.09    6.00
   5  -8   2  156.98   13.30
  -5  -8  -2  182.48   11.10
  -5  -8  -2  177.18   12.40
   5  -8   2  179.58   11.60
   5  -8   2  174.68   13.60
  -5  -8  -2  204.78   12.90
  -5   8  -2  176.78   11.90
  -5   8  -2  164.28   11.60
   5   8   2  176.98   13.90
   5   8   2  169.68    9.50
   5   8   2  192.38   12.60
   5   8   2  172.98   11.30
  -5   8  -2  179.68   14.30
  -5   8  -2  165.58   11.90
   5   8   2  173.18   12.10
   5   8   2  184.28   12.10
  -5   8  -2  182.48    8.10
  -6  -8  -2   21.40    7.30
  -6  -8  -2   30.20    9.10
   6  -8   2   28.10    8.70
   6  -8   2   14.40    7.10
  -6  -8  -2   21.40    7.60
  -6  -8  -2   21.20    7.50
   6   8   2   30.70    7.30
   6   8   2   21.00    5.70
  -6   8  -2    6.20   14.50
   6   8   2   26.40    9.10
   6   8   2   31.10    7.60
  -6   8  -2   22.00    6.90
  -6   8  -2   14.80    6.90
   6   8   2   24.30    7.20
  -6   8  -2   21.30    4.70
  -7  -8  -2   46.10    9.30
  -7  -8  -2   42.70    9.00
  -7  -8  -2   69.39    8.40
   7  -8   2   56.29    9.50
   7  -8   2   50.09   11.20
  -7   8  -2   47.90    9.00
   7   8   2   51.19   10.00
  -7   8  -2   74.69    9.50
   7   8   2   75.99    7.30
   7   8   2   50.49    8.30
   7   8   2   45.70    9.70
  -7   8  -2   53.99    6.30
  -8  -8  -2  105.99    9.90
  -8  -8  -2  104.09   12.10
   8  -8   2   99.29   12.10
  -8  -8  -2   95.39   12.10
   8   8   2   98.79   11.30
   8   8   2   91.69   11.40
  -8   8  -2   84.29   10.70
  -8   8  -2   90.39   11.20
  -8   8  -2   84.69    7.80
   8   8   2  108.09   13.60
   8   8   2  100.59   11.80
   9  -8   2   22.00   12.80
  -9  -8  -2   47.30   12.70
  -9  -8  -2   28.60    9.90
  -9  -8  -2    7.80   11.50
   9   8   2   21.70    9.50
  -9   8  -2   11.40   11.40
   9   8   2    8.00   12.50
  -9   8  -2   25.20   11.70
   9   8   2   26.20   12.40
   9   8   2   19.10   12.00
  -9  -9   2   38.60   11.90
  -9  -9   2   28.00   11.40
   9  -9  -2   50.29   14.40
  -9   9   2   37.80   12.10
   9   9  -2   50.69   12.20
  -9   9   2   56.89   10.20
  -8  -9   2    5.70    9.40
  -8  -9   2   -0.60    9.70
  -8  -9   2    4.60    9.50
   8  -9  -2    9.60    9.70
  -8   9   2    1.20    9.00
   8   9  -2    6.90    9.50
  -8   9   2    2.00    9.10
  -8   9   2    3.90    7.90
  -8   9   2    5.10   10.70
   7  -9  -2   33.60    9.50
  -7  -9   2   51.09    9.60
  -7  -9   2   15.30    8.60
  -7  -9   2   28.80    9.10
   7  -9  -2   49.60    8.20
  -7   9   2   13.20    8.60
  -7   9   2   43.20    9.70
  -7   9   2   37.00    8.00
   7   9  -2   33.90    8.90
  -7   9   2   34.90    8.60
   7   9  -2   15.70    8.70
  -7   9   2   24.90   11.10
  -6  -9   2   49.20    8.70
   6  -9  -2   42.60    6.90
  -6  -9   2   35.10    8.30
  -6  -9   2   28.90    7.70
   6  -9  -2   40.60    8.80
   6   9  -2   29.80    7.50
  -6   9   2   44.20    7.40
  -6   9   2   39.00    9.80
  -6   9   2   37.10    8.10
  -6   9   2   49.50    9.30
   6   9  -2   35.50    7.60
  -6   9   2   46.00    8.60
  -5  -9   2  141.69   12.70
  -5  -9   2  153.78   13.00
   5  -9  -2  116.39    9.80
  -5  -9   2  170.38   12.70
   5  -9  -2  126.49    9.50
  -5   9   2  131.29   12.10
  -5   9   2  138.29   12.50
   5   9  -2  116.09    9.50
  -5   9   2  145.19   12.50
  -5   9   2  164.58   17.30
   5   9  -2  137.59   12.10
  -5   9   2  132.29   11.10
   5   9  -2  134.09    6.80
   5   9  -2  125.29   12.10
   4  -9  -2   38.70    7.40
  -4  -9   2   41.40    6.80
   4  -9  -2   47.60    7.90
   4  -9  -2   46.20    5.60
  -4  -9   2   43.50    6.60
  -4  -9   2   42.10    7.20
  -4   9   2   33.50    7.50
   4   9  -2   37.80    6.80
   4   9  -2   49.30    4.90
  -4   9   2   54.09    7.50
   4   9  -2   42.90    6.80
  -4   9   2   56.99    7.80
  -4   9   2   47.50    7.90
  -4   9   2   40.20    8.50
  -3  -9   2    6.30    5.90
   3  -9  -2    9.30    6.80
   3  -9  -2   13.70    6.80
   3  -9  -2    1.60    6.30
  -3  -9   2   12.20    5.90
   3  -9  -2   10.50    4.30
  -3  -9   2   12.10    5.80
   3   9  -2   15.90    5.70
   3   9  -2    1.90    4.10
   3   9  -2    6.70    7.00
  -3   9   2   -1.40    6.40
  -3   9   2   15.80    8.20
   3   9  -2    8.90    5.60
  -3   9   2    7.90    5.90
  -3   9   2    1.80    5.70
  -3   9   2   18.10    6.00
   3   9  -2    6.90    5.60
   2  -9  -2   24.40    4.40
  -2  -9   2   28.30    6.10
   2  -9  -2   23.30    6.70
   2  -9  -2   26.70    7.50
  -2  -9   2   24.60    8.10
  -2  -9   2   20.10    6.10
   2  -9  -2   10.60    6.30
   2   9  -2   17.60    6.00
  -2   9   2   19.40    6.20
  -2   9   2   10.70    5.70
  -2   9   2   18.20    7.50
   2   9  -2   20.30    4.70
   2   9  -2   20.30    6.60
  -2   9   2   25.10    6.10
  -2   9   2   16.90    5.80
   2   9  -2   14.30    5.10
  -2   9   2   20.10    7.10
   2   9  -2   21.90    6.00
  -1  -9   2  201.38   11.30
   1  -9  -2  224.18   11.90
  -1  -9   2  225.38   12.90
   1  -9  -2  197.98   11.50
  -1  -9   2  209.98   12.00
  -1  -9   2  206.18   12.10
   1  -9  -2  204.68   12.20
  -1  -9   2  224.28   11.20
  -1  -9   2  204.08    8.90
   1  -9  -2  217.18    8.80
   1  -9  -2  204.48   12.50
   1  -9  -2  228.08   12.30
   1  -9  -2  216.38   12.90
  -1  -9   2  212.48   12.70
   1  -9  -2  211.28   12.90
   1   9  -2  215.48   11.90
   1   9  -2  228.28   11.70
  -1   9   2  219.68   13.00
  -1   9   2  243.78   13.20
  -1   9   2  221.68   11.80
   1   9  -2  213.28    9.50
  -1   9   2  218.48   11.50
  -1   9   2  215.58   11.00
   1   9  -2  209.18   13.40
  -1   9   2  225.18   13.90
   1   9  -2  226.78    9.80
   0  -9   2  221.48   10.80
   0  -9  -2  210.88   12.00
   0  -9  -2  191.08   12.50
   0  -9  -2  230.08   12.20
   0  -9  -2  198.08   12.90
   0  -9   2  223.78   12.20
   0  -9   2  209.98   12.00
   0  -9   2  216.58    9.60
   0  -9  -2  207.08   12.00
   0  -9   2  219.38   12.80
   0  -9  -2  221.18    9.00
   0   9  -2  223.48    9.30
   0   9   2  234.28   11.90
   0   9   2  217.18   12.10
   0   9   2  203.28   12.60
   0   9   2  211.38   10.70
   0   9  -2  217.48   13.20
   0   9   2  221.28   11.50
   0   9  -2  218.98   11.50
   0   9   2  220.38   13.90
   0   9   2  209.08   13.50
   0   9  -2  218.28   10.20
   0   9  -2  235.88   11.90
   1  -9   2  111.39    9.20
  -1  -9  -2   96.99    8.00
  -1  -9  -2   97.29    8.20
   1  -9   2  104.99    9.00
   1  -9   2  100.49    9.30
   1  -9   2  103.39    9.00
  -1  -9  -2  104.09    8.60
   1  -9   2   76.59    7.60
  -1   9  -2  106.89   10.50
  -1   9  -2   99.99    7.70
   1   9   2  116.19   10.40
   1   9   2   79.39    8.70
   1   9   2  113.69   10.40
   1   9   2   80.89    7.80
  -1   9  -2   92.19    9.20
  -1   9  -2  104.09   10.60
  -1   9  -2   91.79    8.70
   1   9   2   94.69    8.70
   1   9   2   95.79    8.50
   1   9   2  113.49    9.90
  -2  -9  -2  114.19   11.20
  -2  -9  -2   78.99    7.70
   2  -9   2  106.69   10.90
   2  -9   2   95.89    7.90
   2  -9   2   71.59    7.60
   2  -9   2   95.09    9.20
   2  -9   2   85.49    8.00
  -2  -9  -2   88.19    8.10
   2   9   2   85.29    7.80
   2   9   2   98.79    8.70
  -2   9  -2   88.79    7.20
   2   9   2  112.79   10.90
   2   9   2   84.39    8.10
  -2   9  -2   91.99    8.20
  -2   9  -2   91.39    8.00
   2   9   2  103.69    9.60
   2   9   2  100.59    9.00
   2   9   2   80.29    9.30
  -2   9  -2   96.79    9.70
  -2   9  -2   89.49    9.00
  -3  -9  -2  151.88   12.50
  -3  -9  -2  169.18   12.60
   3  -9   2  132.79   10.40
   3  -9   2  131.39   11.50
  -3  -9  -2  159.08   11.40
   3  -9   2  137.99   12.90
   3  -9   2  131.49   11.30
  -3   9  -2  139.49    7.60
   3   9   2  154.08   15.00
  -3   9  -2  143.89   11.80
  -3   9  -2  122.39   11.10
   3   9   2  159.78   11.80
   3   9   2  131.39    9.50
  -3   9  -2  162.18   12.10
   3   9   2  141.99   12.60
  -3   9  -2  137.79   13.70
   3   9   2  149.09   11.70
  -4  -9  -2   11.10    6.40
  -4  -9  -2   20.70    7.50
  -4  -9  -2    8.30    6.90
   4  -9   2    1.20    6.40
   4  -9   2    4.70    7.40
  -4   9  -2    9.70    6.80
   4   9   2    7.90    6.50
  -4   9  -2   10.40    6.90
  -4   9  -2    8.40    4.10
  -4   9  -2   -2.70    6.40
   4   9   2   10.30    9.40
   4   9   2    9.60    5.40
   4   9   2   10.50    6.70
   4   9   2   10.50    7.50
  -5  -9  -2   71.99    8.50
  -5  -9  -2   84.69    9.90
   5  -9   2   67.59    8.90
  -5  -9  -2   68.29    9.50
  -5  -9  -2   51.99   10.20
   5  -9   2   87.79   10.50
   5   9   2   65.09    8.80
   5   9   2   59.59   11.30
  -5   9  -2   67.09    6.20
   5   9   2   76.29   11.80
   5   9   2   58.79    8.40
  -5   9  -2   76.89    9.70
  -5   9  -2   88.49    9.90
  -5   9  -2   68.69    8.30
   5   9   2   84.49    7.60
  -6  -9  -2    8.10    8.50
  -6  -9  -2    6.30    7.30
   6  -9   2    0.20    8.60
  -6  -9  -2   11.00    9.00
   6  -9   2   -8.60   10.70
  -6   9  -2  -11.70    8.70
   6   9   2   -2.10    9.20
   6   9   2    1.30    6.30
   6   9   2    8.20    8.30
  -6   9  -2    5.90    5.40
  -6   9  -2    3.90    8.50
   6   9   2    5.30    8.40
   7  -9   2   50.49   10.70
  -7  -9  -2   41.60   10.90
  -7  -9  -2   56.89   11.20
  -7  -9  -2   52.99    9.40
   7   9   2   50.39    8.30
  -7   9  -2   54.79   10.30
   7   9   2   32.90   10.10
  -7   9  -2   51.79    7.60
   7   9   2   64.89   10.80
  -7   9  -2   54.49   10.60
   7   9   2   52.19   10.10
  -8  -9  -2   74.19   13.00
  -8  -9  -2   95.09   11.80
   8  -9   2   59.89   13.40
  -8  -9  -2   91.19   14.30
   8   9   2   91.49   13.90
  -8   9  -2   67.59   13.80
  -8   9  -2   91.89   13.70
   8   9   2   68.69   13.00
   8   9   2   96.59   13.70
  -7 -10   2   21.20   12.10
  -7 -10   2   -2.10    9.80
  -7 -10   2   17.10   10.40
  -7  10   2   26.90    9.50
  -7  10   2    6.00   10.10
   7  10  -2   15.30   10.50
  -7  10   2   24.40   12.00
  -7  10   2   23.40   10.30
  -6 -10   2   27.00    9.50
  -6 -10   2   19.40   10.40
  -6 -10   2   18.00    9.20
   6 -10  -2   30.30    8.20
  -6  10   2   21.80    9.90
  -6  10   2   39.20   10.00
  -6  10   2   12.30   10.50
  -6  10   2   22.50    8.40
   6  10  -2   19.50    9.30
  -5 -10   2   15.40    8.60
  -5 -10   2   12.70    7.70
  -5 -10   2    9.00    8.50
   5 -10  -2   -0.90    6.50
   5  10  -2   -1.40    8.30
  -5  10   2   16.60    8.30
  -5  10   2   -7.60    7.70
  -5  10   2    5.30   11.80
   5  10  -2    3.50    8.40
  -5  10   2   13.60    9.30
  -4 -10   2   14.20    8.30
  -4 -10   2   15.00    7.90
  -4 -10   2   24.00    8.30
   4 -10  -2   34.30    6.50
   4  10  -2   47.10    5.90
  -4  10   2   39.30    8.40
   4  10  -2   40.80    8.90
  -4  10   2   35.90    8.60
  -4  10   2   41.50   10.50
  -4  10   2   25.30    8.00
   4  10  -2   33.40    9.50
   4  10  -2   29.40    8.10
  -3 -10   2   37.60    7.20
   3 -10  -2   47.30    6.20
  -3 -10   2   61.69    9.10
  -3 -10   2   44.00    8.20
  -3 -10   2   59.59    8.50
  -3  10   2   50.59    8.60
   3  10  -2   46.70    8.50
  -3  10   2   54.19   10.60
   3  10  -2   62.09    6.30
   3  10  -2   56.19    8.70
   3  10  -2   56.79    8.90
  -3  10   2   50.39    8.80
  -3  10   2   49.99    8.50
   2 -10  -2  162.28    9.50
  -2 -10   2  166.08   13.00
  -2 -10   2  142.99   13.70
  -2 -10   2  176.08   13.90
  -2 -10   2  174.48   13.20
  -2  10   2  167.58   13.50
   2  10  -2  142.79   13.30
   2  10  -2  160.28   10.10
  -2  10   2  169.98   13.60
  -2  10   2  147.89   12.70
  -2  10   2  145.59   12.40
   2  10  -2  183.98   13.50
   1 -10  -2   71.29    6.20
  -1 -10   2   63.89    9.20
  -1 -10   2   60.79   10.00
  -1 -10   2   54.09    6.60
  -1 -10   2   54.99    8.40
  -1 -10   2   50.99    7.70
  -1 -10   2   47.10    8.50
   1  10  -2   59.69    7.20
  -1  10   2   50.99    8.00
  -1  10   2   61.29    8.40
  -1  10   2   60.89   10.20
   1  10  -2   63.09    7.10
  -1  10   2   68.49    8.50
   1  10  -2   58.49    8.20
   1  10  -2   58.99    8.60
   0 -10  -2   -1.30    6.90
   0 -10   2   10.90    8.00
   0 -10   2   -0.50    6.00
   0 -10  -2    8.40    5.10
   0 -10  -2   -1.20    6.60
   0 -10  -2    4.90    7.30
   0 -10   2   12.00    6.30
   0 -10   2    0.70    8.60
   0 -10   2   -4.60    7.40
   0  10  -2    6.80    6.10
   0  10  -2   20.20    7.50
   0  10   2    6.40    9.20
   0  10  -2    7.80    5.70
   0  10   2   16.30    6.90
   0  10  -2   12.00    7.00
   0  10   2    7.00    7.30
   0  10   2    5.90    6.90
   1 -10   2   -0.90    6.20
  -1 -10  -2    9.60    6.60
  -1 -10  -2    2.30    7.30
   1 -10   2   13.60    7.10
   1 -10   2    5.00    8.00
  -1 -10  -2    9.30    5.30
  -1 -10  -2   12.80    7.60
   1 -10   2   14.70    7.80
   1  10   2    9.60    7.20
  -1  10  -2   -8.60    7.00
   1  10   2    1.50    9.40
  -1  10  -2   15.70    5.70
  -1  10  -2   -2.50    6.30
  -1  10  -2    9.40    7.50
   1  10   2   14.60    6.60
   1  10   2   13.10    7.60
   2 -10   2   22.70    8.90
  -2 -10  -2   20.90    7.80
  -2 -10  -2   23.80    6.00
   2 -10   2   15.40    8.40
   2 -10   2   14.50    6.80
  -2 -10  -2   23.40    7.30
   2 -10   2   17.60    7.50
  -2 -10  -2   14.70    8.00
  -2  10  -2   19.10    6.00
  -2  10  -2   29.70    7.90
   2  10   2   20.40    7.50
   2  10   2   19.10    7.70
  -2  10  -2    7.40    7.60
   2  10   2   17.60    6.70
   2  10   2   15.60   10.70
  -2  10  -2   19.70    7.80
   3 -10   2  109.69    9.90
  -3 -10  -2  109.49   10.80
   3 -10   2   98.99   11.40
  -3 -10  -2  112.19   10.80
  -3 -10  -2   99.19   10.20
   3  10   2   90.69    9.70
   3  10   2   88.99   10.10
   3  10   2   89.69    8.50
  -3  10  -2   99.59   10.30
  -3  10  -2  112.99   10.60
  -3  10  -2  105.99   11.00
   3  10   2   64.09   13.50
  -3  10  -2  118.19    9.10
  -3  10  -2  106.59   10.10
  -4 -10  -2   45.50    9.70
   4 -10   2   48.50   12.10
  -4 -10  -2   47.30   10.30
  -4 -10  -2   59.59    9.60
   4 -10   2   57.39    9.30
   4  10   2   55.69    9.50
  -4  10  -2   64.29   10.30
   4  10   2   34.70    7.40
  -4  10  -2   44.50    9.50
  -4  10  -2   58.99    6.50
   4  10   2   50.69    9.70
  -4  10  -2   55.79    9.60
  -5 -10  -2   21.30   10.60
   5 -10   2   37.70    9.70
  -5 -10  -2   16.50    9.00
  -5 -10  -2   33.10   10.40
  -5  10  -2   40.50   10.30
   5  10   2   18.40    7.20
  -5  10  -2   35.30    9.70
  -5  10  -2   29.50    6.70
   5  10   2   35.30    9.50
   5  10   2   35.00    9.50
  -6 -10  -2   48.30   10.60
   6 -10   2   51.49   11.70
  -6 -10  -2   28.10   11.70
  -6 -10  -2   63.59   12.50
  -6  10  -2   61.79   12.60
   6  10   2   40.60   11.30
   6  10   2   43.30    9.10
  -6  10  -2   51.79   12.50
   6  10   2   48.00   11.50
  -5 -11   2    2.30   10.70
  -5 -11   2    5.10   11.70
  -5 -11   2   41.70   12.50
  -5  11   2   19.50   11.50
   5  11  -2   10.60   10.70
  -5  11   2   -3.70    9.20
  -5  11   2    6.40   10.80
  -5  11   2   -9.10   10.70
  -4 -11   2   99.99   12.70
  -4 -11   2   80.59   11.60
  -4 -11   2   84.69   11.70
  -4 -11   2   92.19   12.30
  -4  11   2  103.39   13.40
  -4  11   2  109.29   12.20
   4  11  -2   99.39   12.30
  -4  11   2   98.19   12.70
  -3 -11   2   13.20    9.30
  -3 -11   2   24.20   10.00
  -3 -11   2   20.10   10.40
  -3 -11   2   30.30   10.00
   3 -11  -2   17.70    7.50
   3  11  -2    2.20    9.20
  -3  11   2    6.30   10.30
  -3  11   2   13.50   10.20
   3  11  -2    5.50   10.30
  -3  11   2   21.40   10.00
  -2 -11   2   38.70   10.20
  -2 -11   2    9.10    8.80
   2 -11  -2   20.10    7.10
  -2 -11   2   26.20   10.20
  -2 -11   2   23.30    9.40
   2  11  -2   10.60    7.60
  -2  11   2   23.00    9.40
  -2  11   2   21.60    9.60
  -2  11   2   10.00    9.10
   2  11  -2   13.70    9.90
   2  11  -2   17.50    9.30
   1 -11  -2    7.00    6.70
  -1 -11   2   11.80    9.60
  -1 -11   2   22.00    8.80
   1  11  -2   32.10    9.40
  -1  11   2   13.90    9.50
   1  11  -2   19.90    7.70
  -1  11   2   20.30    8.90
   1  11  -2   30.90    9.60
  -1  11   2   26.60    9.40
   0 -11   2   -3.40    7.90
   0 -11   2   -2.40    9.10
   0 -11  -2    2.60    6.50
   0 -11  -2   -2.60    9.30
   0 -11  -2   -5.20   11.70
   0 -11  -2   -5.30    8.90
   0  11   2    2.80    8.10
   0  11  -2   -9.00    9.10
   0  11   2    0.50    8.70
   0  11  -2    4.50    9.30
   0  11   2   -2.80    8.90
   0  11  -2   -3.70    7.40
   1 -11   2  144.19   13.30
  -1 -11  -2  173.08   17.40
  -1 -11  -2  169.18   12.50
   1 -11   2  154.78   14.70
  -1 -11  -2  125.29   11.30
  -1 -11  -2  175.78   17.50
  -1  11  -2  141.19   12.50
   1  11   2  168.18   17.40
  -1  11  -2  163.68   14.80
   1  11   2  142.69   14.10
  -1  11  -2  145.59   12.80
   1  11   2  171.38   17.20
  -2 -11  -2    4.30    9.00
  -2 -11  -2   13.20    9.50
  -2 -11  -2   10.30   10.30
  -2 -11  -2   16.00   10.10
   2 -11   2   -5.90    8.70
  -2  11  -2   -2.30    9.10
   2  11   2    0.20    9.80
   2  11   2    1.20    9.60
   2  11   2    8.60    8.10
  -2  11  -2   12.30    9.60
  -2  11  -2    8.10   10.40
  -3 -11  -2   16.90    8.20
   3 -11   2   -0.80    9.20
  -3 -11  -2   17.00   11.00
  -3 -11  -2   11.40    9.90
  -3 -11  -2    8.20   10.70
   3  11   2   34.20   11.00
   3  11   2   27.90    9.00
   3  11   2   11.50    9.80
  -3  11  -2   12.10   10.50
  -3  11  -2   18.20   10.80
  -3  11  -2   33.50   10.70
  -4 -11  -2   29.00   11.80
  -4 -11  -2   22.50   11.50
  -4 -11  -2    1.70   11.50
   4 -11   2   11.70   10.90
  -4  11  -2   18.00   11.20
  -4  11  -2    6.90   18.70
  -4  11  -2   32.40   12.00
   4  11   2   39.50    9.60
   4  11   2    6.00   11.40
   4  11   2   15.40   10.90
 -13   0   3    5.70    9.10
 -13   0   3    1.30    7.90
 -13   0   3   23.60    9.70
  12   0  -3  115.39    9.90
 -12   0   3  107.49    9.50
 -12   0   3  133.39   12.40
 -12   0   3  129.89   10.20
 -11   0   3   83.59    7.70
 -11   0   3   95.99    9.60
  11   0  -3   96.09    9.40
 -11   0   3   83.69    7.60
  10   0  -3   50.89    5.90
 -10   0   3   59.69    7.20
  10   0  -3   58.29    7.00
 -10   0   3   51.89    6.50
 -10   0   3   48.50    5.80
  10   0  -3   47.80    5.60
 -10   0   3   53.29    5.70
  10   0  -3   43.10    5.60
  -9   0   3  246.38    9.40
   9   0  -3  261.67    9.00
   9   0  -3  242.58    9.40
  -9   0   3  248.98   10.90
  -9   0   3  256.37    9.50
  -9   0   3  257.87    9.90
  -8   0   3  710.33   16.80
   8   0  -3  724.23   16.10
   8   0  -3  697.53   16.90
  -8   0   3  701.93   16.60
   8   0  -3  730.23   16.40
  -8   0   3  700.33   16.40
   8   0  -3  727.93   16.30
  -8   0   3  736.73   17.50
  -7   0   3 1308.97   26.60
  -7   0   3 1322.87   26.30
  -7   0   3 1346.97   26.30
  -7   0   3 1298.97   27.20
   7   0  -3 1321.67   26.10
   7   0  -3 1310.97   26.00
   7   0  -3 1361.16   26.80
   7   0  -3 1311.77   26.00
  -7   0   3 1285.37   25.80
  -6   0   3 2358.86   43.60
  -6   0   3 2324.97   43.30
  -6   0   3 2363.26   44.10
   6   0  -3 2454.85   43.50
  -6   0   3 2442.66   44.50
   6   0  -3 2380.06   47.60
   6   0  -3 1970.10   46.00
   6   0  -3 2403.26   43.50
  -6   0   3 2392.66   43.70
  -5   0   3 1287.67   24.30
   5   0  -3 1291.97   24.20
   5   0  -3 1292.57   25.00
  -5   0   3 1265.87   24.30
   5   0  -3 1305.87   24.40
  -5   0   3 1273.77   24.90
   5   0  -3 1263.27   24.20
  -5   0   3 1245.78   24.40
   4   0  -3  207.88    5.80
   4   0  -3  208.98    5.10
  -4   0   3  219.88    5.30
   4   0  -3  214.28    5.40
  -4   0   3  210.98    5.20
  -4   0   3  202.18    5.70
  -4   0   3  205.38    5.20
   4   0  -3  205.18    5.00
  -3   0   3 2084.19   37.20
   3   0  -3 2117.99   38.00
   3   0  -3 2081.79   37.10
  -3   0   3 2045.90   37.90
   3   0  -3 2108.19   37.60
  -3   0   3 2029.00   37.50
  -3   0   3 2081.99   37.20
   3   0  -3 2060.39   37.10
   2   0  -3 1929.41   34.40
  -2   0   3 1935.11   35.20
  -2   0   3 1960.40   35.40
  -2   0   3 1940.51   34.50
  -2   0   3 1979.90   34.90
  -1   0   3 2371.86   42.40
  -1   0   3 2353.16   42.50
   0   0   3  153.18    4.00
   0   0   3  155.98    3.40
   0   0   3  161.78    3.50
   0   0  -3  155.28    3.50
   0   0  -3  155.18    4.00
   0   0   3  159.28    4.10
   0   0   3  156.38    3.60
  -1   0  -3  180.38    4.80
   1   0   3  179.98    4.40
   1   0   3  182.38    4.50
   1   0   3  175.78    4.80
   1   0   3  181.68    4.50
  -1   0  -3  183.18    4.40
   1   0   3  182.58    4.90
   2   0   3 9980.10  184.58
  -2   0  -3 9999.00  178.28
  -3   0  -3 4395.26   79.69
   3   0   3 4479.65   79.59
  -3   0  -3 4395.56   80.39
   3   0   3 4244.38   79.89
   3   0   3 4415.56   80.59
   3   0   3 4546.35   80.19
  -3   0  -3 4509.15   80.09
  -3   0  -3 4497.25   80.09
   3   0   3 4565.04   80.19
  -4   0  -3   62.99    4.10
   4   0   3   57.59    3.70
   4   0   3   61.89    4.80
  -4   0  -3   56.79    4.30
   4   0   3   55.09    3.90
  -4   0  -3   62.79    3.80
  -4   0  -3   61.89    4.30
   4   0   3   59.89    3.50
   4   0   3   65.39    4.20
   5   0   3  889.81   18.10
  -5   0  -3  869.91   18.80
   5   0   3  875.51   18.90
  -5   0  -3  884.31   18.30
   5   0   3  873.01   18.30
   5   0   3  889.01   19.60
   5   0   3  882.91   18.80
  -5   0  -3  884.31   19.20
  -5   0  -3  851.01   18.70
  -6   0  -3  495.25   12.70
  -6   0  -3  481.75   13.20
  -6   0  -3  452.95   12.50
   6   0   3  489.15   13.70
   6   0   3  486.55   12.80
   6   0   3  497.05   12.00
   6   0   3  486.35   11.90
   6   0   3  496.35   12.80
  -6   0  -3  491.65   12.10
  -7   0  -3  792.32   18.10
  -7   0  -3  810.92   19.00
   7   0   3  788.72   19.80
   7   0   3  788.02   18.90
   7   0   3  785.72   18.90
   7   0   3  788.62   17.80
   7   0   3  805.52   18.90
   7   0   3  800.72   17.90
  -7   0  -3  802.02   19.00
  -8   0  -3   39.10    5.40
  -8   0  -3   40.00    5.00
   8   0   3   46.90    7.10
   8   0   3   36.10    5.10
   8   0   3   45.20    4.90
   8   0   3   44.90    6.00
  -8   0  -3   44.60    5.90
   8   0   3   47.00    6.00
   9   0   3   24.50    6.80
   9   0   3   22.00    5.00
   9   0   3   23.60    6.60
   9   0   3   16.00    6.40
  -9   0  -3   18.70    5.10
   9   0   3   14.80    5.50
  -9   0  -3   21.50    6.00
 -10   0  -3  489.25   17.50
  10   0   3  474.25   19.60
 -10   0  -3  508.35   16.60
  10   0   3  480.35   17.10
 -10   0  -3  519.05   18.20
  11   0   3  169.18   12.50
 -11   0  -3  145.09   12.00
 -11   0  -3  164.58   15.10
 -11   0  -3  169.58   15.30
 -12   0  -3   63.99   11.80
 -12   0  -3   73.09   13.00
  12   0   3   41.00    9.40
 -12   0  -3   62.69    9.80
 -12   0  -3   50.59   11.40
 -13  -1   3  123.09   11.90
 -13  -1   3  115.29   11.70
 -13  -1   3  125.99   11.30
 -13  -1   3  138.89   11.80
 -13   1   3  121.29   11.70
 -13   1   3  128.59   12.10
 -13   1   3  112.79   11.00
 -12  -1   3   80.49    9.30
 -12  -1   3   75.29    8.20
 -12  -1   3   83.69    9.20
 -12  -1   3   87.59    9.50
 -12   1   3   72.79    9.20
 -12   1   3   62.69    8.00
 -12   1   3   86.99    9.20
 -11  -1   3   33.70    6.00
 -11  -1   3   40.30    6.60
 -11  -1   3   27.00    6.20
 -11   1   3   39.90    6.40
 -11   1   3   33.70    6.40
 -11   1   3   29.50    8.90
 -11   1   3   21.90    6.10
  11   1  -3   32.40    5.90
  10  -1  -3  164.68   10.70
 -10  -1   3  166.58    8.90
  10  -1  -3  151.18    9.60
 -10  -1   3  171.38    9.70
 -10  -1   3  151.98   12.10
  10  -1  -3  148.99    9.70
 -10  -1   3  164.68    9.20
  10  -1  -3  157.18    9.20
  10   1  -3  174.78    8.20
 -10   1   3  134.89   10.50
 -10   1   3  145.29    9.50
  10   1  -3  157.98    9.70
 -10   1   3  171.58    9.30
  10   1  -3  151.98    9.70
 -10   1   3  168.18    9.60
  -9  -1   3   38.70    4.70
  -9  -1   3   40.40    6.20
   9  -1  -3   44.60    4.90
  -9  -1   3   45.20    5.10
  -9  -1   3   34.50    4.40
   9  -1  -3   38.80    4.80
  -9   1   3   40.00    5.30
  -9   1   3   34.90    4.60
  -9   1   3   30.70    4.30
  -9   1   3   33.80    4.60
   9   1  -3   37.40    4.80
   8  -1  -3 1213.58   25.30
  -8  -1   3 1240.28   25.90
   8  -1  -3 1259.77   25.50
  -8  -1   3 1242.88   25.60
  -8  -1   3 1223.78   26.80
   8  -1  -3 1232.98   25.30
  -8  -1   3 1250.77   25.80
   8  -1  -3 1242.48   26.00
  -8   1   3 1223.18   25.60
   8   1  -3 1249.57   24.70
  -8   1   3 1214.48   25.80
  -8   1   3 1230.08   26.10
   8   1  -3 1244.68   26.00
  -8   1   3 1229.88   25.60
   8   1  -3 1226.48   25.30
   8   1  -3 1226.48   25.30
  -8   1   3 1238.48   25.40
  -7  -1   3  113.29    6.80
  -7  -1   3  119.89    5.70
   7  -1  -3  113.69    5.40
  -7  -1   3  117.09    6.00
  -7  -1   3  114.99    3.30
   7  -1  -3  124.19    5.80
   7  -1  -3  111.09    5.40
   7  -1  -3  118.49    6.10
  -7  -1   3  104.39    5.60
   7   1  -3  129.59    5.50
  -7   1   3  121.79    5.70
  -7   1   3  112.79    5.60
   7   1  -3  117.49    6.20
   7   1  -3  117.29    5.40
   7   1  -3  116.79    4.90
  -7   1   3  114.09    5.60
  -7   1   3  107.39    5.70
  -7   1   3  110.49    7.10
  -6  -1   3   85.39    4.30
  -6  -1   3   79.69    4.30
   6  -1  -3   76.19    4.40
  -6  -1   3   76.89    4.70
   6  -1  -3   70.79    5.70
   6  -1  -3   66.49    4.70
  -6  -1   3   81.89    2.60
   6  -1  -3   71.39    4.10
  -6   1   3   79.29    4.70
   6   1  -3   76.99    3.70
  -6   1   3   83.19    4.50
  -6   1   3   71.69    4.60
   6   1  -3   82.59    4.10
   6   1  -3   67.09    4.70
  -6   1   3   73.29    4.20
  -6   1   3   75.99    4.20
  -5  -1   3 2966.70   53.29
   5  -1  -3 3015.60   53.89
  -5  -1   3 2963.40   52.69
  -5  -1   3 2897.11   54.29
  -5  -1   3 2963.90   53.99
  -5  -1   3 2890.21   53.89
   5  -1  -3 3027.50   53.79
   5  -1  -3 3023.10   54.29
  -5   1   3 2908.61   53.89
  -5   1   3 2913.11   54.09
   5   1  -3 3057.99   53.79
  -5   1   3 2993.40   54.39
  -5   1   3 2858.01   54.39
   5   1  -3 2969.60   53.29
   5   1  -3 2954.00   53.79
   5   1  -3 3125.29   54.49
  -5   1   3 2869.21   53.89
  -4  -1   3 1791.82   34.20
  -4  -1   3 1768.12   33.80
  -4  -1   3 1813.42   33.80
   4  -1  -3 1925.61   34.40
   4  -1  -3 1859.11   33.70
   4  -1  -3 1894.81   33.80
  -4  -1   3 1872.01   33.30
  -4  -1   3 1786.32   33.70
   4   1  -3 1863.01   33.70
  -4   1   3 1887.91   34.10
  -4   1   3 1834.52   34.30
   4   1  -3 1851.51   33.30
  -4   1   3 1825.62   33.80
   4   1  -3 1837.72   33.60
  -4   1   3 1813.02   33.80
   4   1  -3 1877.61   34.30
   3  -1  -3  352.66    6.70
   3  -1  -3  353.06    7.90
  -3  -1   3  353.36    7.30
  -3  -1   3  351.26    7.70
   3  -1  -3  349.57    7.20
  -3  -1   3  355.66    7.00
   3  -1  -3  347.37    7.30
  -3  -1   3  346.17    7.20
  -3   1   3  356.36    8.00
   3   1  -3  345.57    7.10
   3   1  -3  353.86    7.80
   3   1  -3  359.56    7.00
   3   1  -3  358.26    7.10
  -3   1   3  346.97    7.30
  -3   1   3  346.57    7.30
  -3   1   3  359.56    6.80
  -3   1   3  358.26    8.00
  -2  -1   3  120.09    3.30
   2  -1  -3  121.99    2.90
   2  -1  -3  123.89    3.10
  -2  -1   3  120.29    2.90
   2  -1  -3  121.89    3.80
   2  -1  -3  117.59    2.90
  -2  -1   3  120.69    2.90
  -2  -1   3  110.09    3.70
  -2  -1   3  119.99    2.90
   2   1  -3  115.69    2.70
  -2   1   3  119.49    3.00
   2   1  -3  119.19    3.40
   2   1  -3  111.99    2.80
  -2   1   3  127.49    3.80
   2   1  -3  118.09    2.60
   2   1  -3  119.79    2.70
  -2   1   3  120.09    3.00
  -2   1   3  116.89    3.00
  -2   1   3  117.99    3.00
  -2   1   3  112.39    3.40
  -1  -1   3 1061.19   19.80
  -1  -1   3 1047.60   19.50
  -1  -1   3 1041.70   19.00
  -1  -1   3 1016.70   18.80
   1  -1  -3 1057.29   19.40
  -1  -1   3 1065.79   18.80
   1  -1  -3 1044.60   18.90
  -1  -1   3 1042.00   18.80
   1   1  -3 1044.10   18.70
   1   1  -3 1041.30   18.70
  -1   1   3 1036.80   18.80
  -1   1   3 1034.20   19.00
  -1   1   3 1027.60   19.00
  -1   1   3 1032.90   19.80
  -1   1   3 1038.50   19.40
   1   1  -3 1056.49   19.50
   1   1  -3 1051.29   18.70
   1   1  -3 1066.49   18.60
  -1   1   3 1053.19   19.10
  -1   1   3 1014.20   19.00
   0  -1   3 4461.25   81.69
   0   1   3 4711.43   81.19
   0   1   3 4577.84   81.19
   1  -1   3   13.10    1.40
  -1  -1  -3   10.30    1.50
  -1  -1  -3   10.00    1.40
   1  -1   3    9.40    1.70
   1  -1   3    9.50    1.30
   1  -1   3    7.90    1.30
   1  -1   3   11.10    1.00
   1   1   3   12.50    1.60
  -1   1  -3    8.50    1.60
   1   1   3   10.40    1.40
  -1   1  -3   11.60    1.20
   1   1   3   11.50    1.60
   1   1   3   10.70    1.40
  -1   1  -3    7.70    1.20
  -2  -1  -3  444.66    9.90
   2  -1   3  453.65    9.00
  -2  -1  -3  468.85   10.10
   2  -1   3  460.65    9.80
  -2  -1  -3  461.85   10.00
  -2  -1  -3  455.15    8.40
   2  -1   3  461.25   10.30
  -2  -1  -3  451.85    9.90
   2  -1   3  451.05    9.90
  -2   1  -3  453.55    9.80
   2   1   3  466.25    9.90
   2   1   3  478.95   10.00
   2   1   3  450.35   10.00
  -2   1  -3  451.25    9.20
  -2   1  -3  460.85    9.20
  -2   1  -3  460.65    9.80
   2   1   3  455.25   10.20
   2   1   3  474.55   10.00
  -2   1  -3  460.85   10.30
  -3  -1  -3 1004.60   20.20
   3  -1   3  991.70   20.10
  -3  -1  -3 1002.70   20.40
   3  -1   3 1026.50   20.70
  -3  -1  -3 1022.70   20.20
  -3  -1  -3 1029.00   18.70
   3  -1   3 1052.69   20.30
   3  -1   3 1036.00   20.20
   3  -1   3 1006.50   19.30
  -3  -1  -3  984.10   21.30
   3   1   3 1040.50   20.40
   3   1   3 1029.40   20.30
  -3   1  -3 1028.40   19.40
  -3   1  -3 1049.70   20.60
  -3   1  -3 1040.50   20.20
   3   1   3 1006.00   20.20
  -3   1  -3 1020.20   20.20
   3   1   3 1024.30   20.10
   3   1   3 1011.40   20.60
  -3   1  -3 1037.50   19.40
   4  -1   3   56.19    3.30
   4  -1   3   55.59    4.00
  -4  -1  -3   59.99    4.70
   4  -1   3   54.79    3.70
   4  -1   3   64.69    4.70
   4  -1   3   57.09    4.00
  -4  -1  -3   55.19    4.10
  -4  -1  -3   61.79    3.90
  -4  -1  -3   56.19    4.00
  -4  -1  -3   53.59    2.70
  -4  -1  -3   58.79    4.00
  -4   1  -3   61.49    3.40
  -4   1  -3   61.79    4.20
  -4   1  -3   56.79    4.40
   4   1   3   57.29    4.10
   4   1   3   62.59    3.90
   4   1   3   55.19    3.80
  -4   1  -3   59.69    4.10
   4   1   3   57.69    4.60
   4   1   3   59.59    4.30
  -4   1  -3   60.29    3.50
   5  -1   3 1156.18   23.90
   5  -1   3 1176.68   23.70
   5  -1   3 1157.38   22.60
  -5  -1  -3 1134.79   23.70
   5  -1   3 1129.49   24.40
   5  -1   3 1130.59   23.10
   5  -1   3 1136.39   23.70
  -5  -1  -3 1176.18   24.20
  -5  -1  -3 1149.29   23.80
  -5  -1  -3 1162.58   23.50
   5   1   3 1164.58   23.90
  -5   1  -3 1162.38   23.70
   5   1   3 1177.28   23.30
   5   1   3 1148.19   24.40
   5   1   3 1162.68   23.70
  -5   1  -3 1157.38   23.70
  -5   1  -3 1144.49   22.80
   5   1   3 1131.49   23.20
  -5   1  -3 1183.08   24.10
  -6  -1  -3   91.49    6.10
   6  -1   3   92.29    6.90
   6  -1   3   86.59    6.30
   6  -1   3   92.49    6.10
   6  -1   3   96.99    5.40
   6  -1   3   90.69    6.40
  -6  -1  -3   89.89    6.00
  -6  -1  -3   91.99    6.70
   6  -1   3   91.09    5.20
   6   1   3   93.39    5.80
   6   1   3  102.79    6.20
  -6   1  -3   93.99    6.00
  -6   1  -3   88.09    6.40
  -6   1  -3   86.49    6.10
   6   1   3   94.99    6.40
   6   1   3  106.39    5.80
  -6   1  -3   94.09    5.50
   6   1   3   96.09    7.00
  -7  -1  -3  154.28    7.90
  -7  -1  -3  156.08    7.80
   7  -1   3  153.58    8.20
   7  -1   3  152.78    8.40
   7  -1   3  168.28    8.50
   7  -1   3  152.48    6.90
   7  -1   3  147.99    8.90
  -7  -1  -3  158.78    9.00
  -7  -1  -3  157.18    8.30
   7  -1   3  156.18    7.00
   7   1   3  154.48    7.30
   7   1   3  150.98    8.50
  -7   1  -3  153.78    8.10
  -7   1  -3  159.48    7.30
   7   1   3  158.78    8.50
  -7   1  -3  156.58    8.30
   7   1   3  149.29    7.40
  -8  -1  -3  295.97   10.80
   8  -1   3  285.17   10.10
   8  -1   3  284.97   11.90
   8  -1   3  289.87    9.70
  -8  -1  -3  263.07   13.10
  -8  -1  -3  280.17   11.10
  -8  -1  -3  280.67   11.30
   8  -1   3  266.07   11.50
  -8  -1  -3  289.97    9.10
  -8   1  -3  288.97   11.50
   8   1   3  281.27   10.10
   8   1   3  280.47   10.90
  -8   1  -3  278.47   10.10
  -8   1  -3  274.77   11.50
   8   1   3  285.57   12.00
   8   1   3  271.37   11.70
  -9  -1  -3   92.39    9.40
  -9  -1  -3   95.29    7.50
   9  -1   3  107.59    9.20
  -9  -1  -3   99.79    8.20
  -9  -1  -3   94.09    9.40
   9  -1   3   96.69    9.30
   9  -1   3   96.09    7.90
   9  -1   3   95.39    9.40
   9  -1   3   91.89    8.40
   9  -1   3   85.29    9.40
   9   1   3  100.29    8.90
   9   1   3  106.39   10.60
   9   1   3  105.09   10.40
  -9   1  -3  119.59   10.20
  -9   1  -3   94.59    8.60
   9   1   3   91.79    8.40
   9   1   3   81.39    8.40
 -10  -1  -3  180.58   12.90
  10  -1   3  152.38   12.90
 -10  -1  -3  161.68   12.80
 -10  -1  -3  174.48    9.80
  10  -1   3  138.19   11.50
  10  -1   3  165.78   10.30
 -10  -1  -3  171.08   13.30
 -10   1  -3  178.38   11.80
 -10   1  -3  181.48   13.80
 -10   1  -3  170.78   13.30
  10   1   3  166.38   12.00
  10   1   3  170.88   15.90
 -11  -1  -3    0.40    8.20
 -11  -1  -3   -1.90    6.10
 -11  -1  -3   17.00    9.00
 -11  -1  -3   -1.40    7.90
  11  -1   3    7.60    6.40
 -11   1  -3   -2.40    8.50
 -11   1  -3  -11.10    8.60
 -11   1  -3    0.40    7.60
 -11   1  -3   -0.30    8.40
  11   1   3   11.50    7.10
 -12  -1  -3    6.50   11.50
  12  -1   3   14.40    8.90
 -12  -1  -3   14.60   11.30
 -12  -1  -3    4.90   11.60
 -12  -1  -3    3.80    8.90
 -12   1  -3   -6.10   11.70
  12   1   3    7.80    9.10
 -12   1  -3    5.50   11.10
 -12   1  -3   -6.70   10.00
 -13  -2   3  -11.00    8.80
 -13  -2   3   11.70    9.80
 -13  -2   3   -8.30    9.40
 -13  -2   3   11.60    9.10
 -13   2   3   -8.50    9.00
 -13   2   3    2.30    8.60
 -13   2   3   -0.60    9.30
 -12  -2   3   39.60    8.70
 -12  -2   3   42.40    8.30
 -12  -2   3   39.70    8.30
 -12  -2   3   43.20    7.90
 -12   2   3   37.30    7.80
 -12   2   3   49.40    8.50
 -12   2   3   51.09    8.20
  12   2  -3   47.20    7.50
  11  -2  -3   -2.40    6.80
 -11  -2   3   10.50    6.20
 -11  -2   3   12.40    5.60
 -11  -2   3   17.30    6.00
 -11  -2   3   12.20    5.80
 -11   2   3   11.10    5.80
 -11   2   3   18.80    6.10
 -11   2   3   17.00    5.80
  11   2  -3   12.60    5.20
 -11   2   3   10.40    7.50
  10  -2  -3   89.59    8.70
  10  -2  -3   85.69    7.40
 -10  -2   3   88.29    8.30
 -10  -2   3   95.19    7.50
 -10  -2   3   99.59    7.70
 -10  -2   3   79.79    8.60
 -10  -2   3   90.39    8.70
 -10   2   3   84.79    6.90
  10   2  -3   80.99    6.90
 -10   2   3   78.09    7.20
  10   2  -3  101.59    8.90
  10   2  -3   85.29    7.30
 -10   2   3   84.49    8.60
 -10   2   3   90.39    7.10
  10   2  -3   74.99    7.60
  -9  -2   3  588.14   17.40
  -9  -2   3  581.44   15.70
   9  -2  -3  577.34   15.30
  -9  -2   3  567.54   12.00
   9  -2  -3  572.14   15.20
  -9  -2   3  579.84   15.60
  -9  -2   3  558.34   15.10
  -9  -2   3  575.24   15.10
  -9   2   3  568.54   15.00
   9   2  -3  559.84   13.50
   9   2  -3  568.44   15.10
  -9   2   3  581.24   15.50
  -9   2   3  566.44   15.30
  -9   2   3  589.24   15.20
  -9   2   3  555.64   14.90
  -8  -2   3  342.97   10.40
  -8  -2   3  366.36   11.10
   8  -2  -3  336.17   10.60
   8  -2  -3  353.06   10.30
  -8  -2   3  353.26   10.90
  -8  -2   3  358.76   12.30
   8  -2  -3  343.27   10.40
  -8  -2   3  342.77   10.40
  -8  -2   3  340.97    8.10
  -8   2   3  334.97   10.40
  -8   2   3  349.27   10.40
   8   2  -3  346.97   10.30
   8   2  -3  349.17   11.10
  -8   2   3  353.86   10.60
   8   2  -3  344.87    8.90
  -8   2   3  348.97   10.60
  -8   2   3  351.86   10.80
   8   2  -3  351.06   10.40
   7  -2  -3  579.04   13.30
   7  -2  -3  554.84   13.70
  -7  -2   3  566.94   13.80
  -7  -2   3  549.54   13.30
  -7  -2   3  562.84   13.50
  -7  -2   3  550.04   13.90
  -7  -2   3  552.24   11.60
   7  -2  -3  569.34   13.30
  -7   2   3  567.84   13.40
   7   2  -3  557.34   13.10
   7   2  -3  579.24   13.80
  -7   2   3  544.45   13.30
  -7   2   3  562.34   13.80
   7   2  -3  573.54   13.20
   7   2  -3  560.34   12.00
  -7   2   3  568.34   13.70
  -7   2   3  556.04   13.40
   6  -2  -3  302.07    8.20
  -6  -2   3  300.27    7.10
  -6  -2   3  302.47    8.30
   6  -2  -3  310.87    8.80
  -6  -2   3  295.77    8.30
  -6  -2   3  303.37    8.60
  -6  -2   3  313.57    8.90
   6  -2  -3  307.57    8.20
  -6   2   3  299.87    8.30
  -6   2   3  301.17    8.60
   6   2  -3  295.17    8.00
  -6   2   3  312.17    8.30
  -6   2   3  300.17    8.70
   6   2  -3  301.47    8.30
   6   2  -3  312.77    8.90
  -6   2   3  307.97    8.30
   6   2  -3  300.27    7.00
  -5  -2   3  719.53   15.10
  -5  -2   3  743.13   14.50
   5  -2  -3  735.43   15.60
   5  -2  -3  737.33   15.10
   5  -2  -3  743.73   15.00
  -5  -2   3  709.63   15.30
  -5  -2   3  729.93   15.80
  -5  -2   3  720.23   15.10
   5   2  -3  714.83   13.70
   5   2  -3  732.93   14.90
  -5   2   3  709.63   15.00
  -5   2   3  723.43   14.90
  -5   2   3  717.03   15.50
   5   2  -3  751.62   15.50
   5   2  -3  729.73   14.90
  -5   2   3  693.53   15.10
  -4  -2   3 1538.95   29.10
  -4  -2   3 1532.95   28.80
   4  -2  -3 1590.24   29.60
   4  -2  -3 1542.95   28.80
  -4  -2   3 1517.05   28.90
   4  -2  -3 1553.44   28.80
  -4  -2   3 1555.54   28.70
   4  -2  -3 1550.24   27.80
  -4  -2   3 1540.35   29.50
  -4   2   3 1502.45   28.90
  -4   2   3 1525.75   29.40
  -4   2   3 1535.35   28.90
  -4   2   3 1563.64   28.50
   4   2  -3 1579.14   28.70
   4   2  -3 1543.05   29.10
   4   2  -3 1507.95   28.60
  -4   2   3 1538.55   29.50
  -3  -2   3  210.78    6.00
   3  -2  -3  213.88    4.90
   3  -2  -3  211.48    5.30
   3  -2  -3  211.48    6.00
  -3  -2   3  214.68    5.30
   3  -2  -3  213.98    5.30
  -3  -2   3  212.18    5.40
  -3  -2   3  215.98    5.30
  -3   2   3  203.78    5.90
  -3   2   3  207.48    5.30
  -3   2   3  209.48    5.20
   3   2  -3  215.28    5.10
   3   2  -3  217.28    5.20
   3   2  -3  215.38    5.20
  -3   2   3  216.88    4.80
  -3   2   3  217.68    5.40
   3   2  -3  222.68    5.50
   3   2  -3  210.58    5.10
  -3   2   3  214.28    5.50
  -2  -2   3  139.49    4.40
   2  -2  -3  133.09    3.70
   2  -2  -3  134.39    3.80
  -2  -2   3  135.39    3.60
   2  -2  -3  138.69    3.80
  -2  -2   3  141.89    3.80
   2  -2  -3  138.79    4.40
  -2  -2   3  133.09    3.70
  -2  -2   3  139.79    3.60
   2   2  -3  130.39    3.60
  -2   2   3  134.69    3.90
  -2   2   3  134.89    3.80
   2   2  -3  140.79    4.40
   2   2  -3  131.29    3.60
   2   2  -3  135.39    3.60
  -2   2   3  135.79    3.90
  -2   2   3  133.39    3.90
  -2   2   3  132.29    3.80
   2   2  -3  134.09    3.60
   2   2  -3  130.79    3.60
  -1  -2   3 1609.94   30.10
  -1  -2   3 1692.53   30.10
  -1  -2   3 1643.44   29.60
   1  -2  -3 1684.23   30.50
   1  -2  -3 1670.13   30.20
  -1  -2   3 1706.53   30.10
  -1  -2   3 1602.34   30.10
   1  -2  -3 1619.24   30.20
   1  -2  -3 1543.85   30.60
  -1  -2   3 1637.84   30.60
   1  -2  -3 1706.53   30.40
  -1   2   3 1625.14   30.30
  -1   2   3 1670.03   30.40
  -1   2   3 1662.63   30.60
   1   2  -3 1710.33   30.70
   1   2  -3 1683.43   30.10
  -1   2   3 1675.23   30.40
   1   2  -3 1693.83   30.10
  -1   2   3 1637.44   30.30
  -1   2   3 1648.73   30.40
   1   2  -3 1677.93   30.00
   1   2  -3 1674.13   30.10
   1   2  -3 1634.24   29.60
   0  -2   3  421.66    8.80
   0  -2   3  415.06    8.50
   0  -2  -3  403.16    8.90
   0  -2  -3  398.36    8.00
   0  -2   3  406.46    8.40
   0  -2  -3  409.76    8.70
   0   2  -3  414.26    8.50
   0   2  -3  425.76    8.80
   0   2   3  397.26    8.60
   0   2   3  413.06    8.60
   0   2   3  395.06    9.00
   0   2   3  403.86    9.00
   0   2  -3  411.56    8.40
   0   2  -3  422.06    8.50
   0   2   3  405.46    8.70
   0   2   3  408.96    8.20
   0   2   3  416.56    8.80
   0   2  -3  406.26    8.40
   1  -2   3  129.29    4.00
   1  -2   3  131.09    3.90
   1  -2   3  123.89    3.90
  -1  -2  -3  128.09    4.30
  -1  -2  -3  125.39    3.30
  -1  -2  -3  128.29    4.20
  -1  -2  -3  121.99    4.10
  -1  -2  -3  128.89    3.90
   1   2   3  126.39    4.20
  -1   2  -3  125.39    4.40
   1   2   3  128.09    3.20
   1   2   3  124.99    3.90
  -1   2  -3  127.49    4.00
   1   2   3  128.49    4.20
   2  -2   3 1083.79   21.90
   2  -2   3 1108.49   21.20
  -2  -2  -3 1096.09   20.30
   2  -2   3 1150.08   21.50
  -2  -2  -3 1128.89   21.50
  -2  -2  -3 1100.89   21.60
   2  -2   3 1163.58   21.50
   2  -2   3 1092.19   20.10
  -2  -2  -3 1111.09   21.70
  -2  -2  -3 1083.69   21.60
   2  -2   3 1123.69   21.70
  -2   2  -3 1125.69   21.40
   2   2   3 1100.69   21.80
   2   2   3 1076.19   21.60
  -2   2  -3 1103.59   21.90
   2   2   3 1104.29   21.50
   2   2   3 1117.69   21.60
  -2   2  -3 1096.89   21.40
   2   2   3 1104.19   21.70
  -2   2  -3 1102.89   20.20
  -2   2  -3 1114.39   21.10
  -3  -2  -3 1788.82   33.10
  -3  -2  -3 1787.62   34.70
   3  -2   3 1868.41   34.60
  -3  -2  -3 1818.52   34.70
  -3  -2  -3 1869.21   34.60
   3  -2   3 1840.52   35.00
   3  -2   3 1816.12   33.20
   3  -2   3 1864.41   34.60
  -3  -2  -3 1833.52   34.70
   3  -2   3 1867.01   34.90
   3   2   3 1834.12   34.70
   3   2   3 1834.42   34.60
  -3   2  -3 1793.52   34.50
   3   2   3 1782.72   34.60
   3   2   3 1826.22   34.70
  -3   2  -3 1832.22   33.30
  -3   2  -3 1847.22   34.00
  -3   2  -3 1825.12   34.90
  -4  -2  -3  318.97    8.90
   4  -2   3  327.17    7.50
  -4  -2  -3  317.67    9.10
  -4  -2  -3  327.77    8.60
   4  -2   3  324.77    9.50
   4  -2   3  319.47    8.70
  -4  -2  -3  318.47    7.20
  -4  -2  -3  319.97    8.90
   4  -2   3  320.57    8.80
   4   2   3  326.47    9.00
   4   2   3  316.87    8.90
  -4   2  -3  313.17    7.60
  -4   2  -3  315.67    8.70
   4   2   3  325.97    8.80
  -4   2  -3  321.47    8.70
   4   2   3  330.47    8.80
  -4   2  -3  324.57    8.20
  -5  -2  -3  157.08    5.00
   5  -2   3  148.49    5.20
   5  -2   3  159.28    6.80
  -5  -2  -3  152.38    6.60
  -5  -2  -3  156.48    6.70
   5  -2   3  155.78    7.20
   5  -2   3  151.18    6.70
  -5  -2  -3  161.68    6.20
   5  -2   3  141.19    5.80
   5  -2   3  150.48    6.70
  -5  -2  -3  159.28    6.80
  -5  -2  -3  161.68    7.00
   5   2   3  161.08    6.50
   5   2   3  157.98    6.50
  -5   2  -3  159.68    5.50
   5   2   3  146.39    6.80
  -5   2  -3  158.98    6.70
  -5   2  -3  158.38    6.80
  -5   2  -3  147.29    6.90
   5   2   3  143.29    6.70
  -5   2  -3  148.29    6.00
   6  -2   3  215.08    9.10
  -6  -2  -3  224.08    9.10
   6  -2   3  211.18    7.40
   6  -2   3  212.58    8.60
   6  -2   3  217.08    8.40
   6  -2   3  210.18    8.30
  -6  -2  -3  220.98    8.40
  -6  -2  -3  210.48    8.40
  -6  -2  -3  203.18    7.60
   6  -2   3  209.78    7.00
  -6  -2  -3  223.38    6.50
  -6  -2  -3  210.88    8.40
  -6   2  -3  215.38    8.40
  -6   2  -3  208.28    8.30
  -6   2  -3  210.18    8.60
   6   2   3  210.68    8.00
   6   2   3  209.68    8.60
  -6   2  -3  213.38    7.60
   6   2   3  212.28    7.90
  -6   2  -3  205.18    7.10
   6   2   3  211.78    8.60
  -7  -2  -3   33.80    4.90
   7  -2   3   38.40    5.60
   7  -2   3   21.10    4.10
  -7  -2  -3   25.60    4.40
   7  -2   3   33.40    4.00
   7  -2   3   27.20    3.80
  -7  -2  -3   28.10    4.70
  -7  -2  -3   27.10    3.30
  -7  -2  -3   34.90    4.40
  -7  -2  -3   23.40    5.10
   7  -2   3   34.80    5.10
   7   2   3   20.10    4.30
   7   2   3   21.90    7.90
  -7   2  -3   26.10    4.00
   7   2   3   26.10    4.20
  -7   2  -3   35.20    4.20
  -7   2  -3   25.00    4.30
  -7   2  -3   24.80    4.40
   7   2   3   27.00    4.70
  -8  -2  -3   32.70    5.60
  -8  -2  -3   23.20    5.30
  -8  -2  -3   29.90    6.10
   8  -2   3   26.10    5.70
   8  -2   3   33.70    6.20
   8  -2   3   23.70    5.40
  -8  -2  -3   30.40    4.00
   8  -2   3   27.50    4.60
   8  -2   3   28.60    4.30
   8  -2   3   25.90    5.40
  -8  -2  -3   32.50    5.60
   8   2   3   28.50    6.00
  -8   2  -3   21.20    4.80
   8   2   3   28.90    6.00
  -8   2  -3   29.70    5.50
  -8   2  -3   15.60    5.30
   8   2   3   23.40    5.00
   8   2   3   32.40    4.70
  -8   2  -3   33.10    4.90
  -8   2  -3   37.10    4.70
  -9  -2  -3  126.79    7.90
   9  -2   3  149.99    8.80
  -9  -2  -3  132.89   11.30
  -9  -2  -3  141.09   10.50
   9  -2   3  128.29   12.10
   9  -2   3  136.59    9.80
   9  -2   3  154.38   12.40
   9  -2   3  141.49   12.30
  -9  -2  -3  138.39   10.90
  -9   2  -3  142.59   10.80
   9   2   3  130.79   11.80
  -9   2  -3  137.89   11.20
  -9   2  -3  144.49    9.30
   9   2   3  137.59    9.60
   9   2   3  126.49   11.20
   9   2   3  133.09   12.70
  -9   2  -3  131.89   10.10
   9   2   3  152.18   12.90
 -10  -2  -3  102.69    9.30
  10  -2   3   92.49    9.10
  10  -2   3   98.29   11.00
 -10  -2  -3   92.69    9.30
 -10  -2  -3   93.69    9.20
  10  -2   3  111.19   11.40
 -10  -2  -3   94.59    7.00
  10   2   3   89.09   11.00
 -10   2  -3  100.49    9.80
 -10   2  -3   97.39    8.40
 -10   2  -3   95.79    9.90
  10   2   3  110.39   10.90
 -11  -2  -3   32.80    9.80
 -11  -2  -3   31.90    9.00
  11  -2   3   26.90    7.20
 -11  -2  -3   44.70    7.10
 -11  -2  -3   16.10    9.50
 -11   2  -3   23.70    8.70
 -11   2  -3   28.80   10.80
 -11   2  -3   38.70   10.00
 -11   2  -3   26.20    8.10
  11   2   3   37.60    8.00
 -13  -3   3   47.60   11.00
 -13  -3   3   33.70   11.20
 -13  -3   3   58.19   11.30
 -13  -3   3   38.10   10.50
 -13   3   3   31.10   10.90
 -13   3   3   32.70   10.00
 -13   3   3   44.60   10.70
 -12  -3   3   75.49    9.50
 -12  -3   3   73.29    9.80
 -12  -3   3   78.59   10.00
 -12  -3   3   81.99   10.00
 -12   3   3   68.19    9.40
 -12   3   3   73.69    9.30
 -12   3   3   66.79    9.50
 -11  -3   3  238.18   13.40
 -11  -3   3  244.38   13.10
 -11  -3   3  232.68   12.90
 -11  -3   3  241.08   13.20
 -11   3   3  249.28   13.10
  11   3  -3  218.98    9.80
 -11   3   3  209.88   12.40
 -11   3   3  241.88   12.90
 -11   3   3  212.98   14.50
 -10  -3   3  118.89   10.00
 -10  -3   3  122.49    9.40
 -10  -3   3  123.79    6.40
 -10  -3   3  121.79   10.10
 -10  -3   3  132.39    9.70
  10  -3  -3  126.69   10.80
 -10   3   3  128.49    9.40
 -10   3   3  113.09    9.40
 -10   3   3  113.49   10.50
  10   3  -3  114.79    7.00
 -10   3   3  124.99    9.70
 -10   3   3  116.69    9.20
  -9  -3   3   12.20    4.60
   9  -3  -3    9.00    4.90
  -9  -3   3   18.40    7.10
  -9  -3   3   11.40    3.20
  -9  -3   3   13.30    6.40
   9  -3  -3   -9.10    4.90
  -9  -3   3    9.60    5.00
  -9  -3   3    7.40    4.40
  -9   3   3   12.20    4.80
   9   3  -3   15.00    5.10
   9   3  -3   15.80    4.80
  -9   3   3   13.60    4.80
  -9   3   3   17.20    4.70
  -9   3   3   12.30    4.50
   9   3  -3   11.50    3.30
   9   3  -3   11.40    5.60
  -8  -3   3  545.05   14.50
  -8  -3   3  554.44   12.20
   8  -3  -3  569.14   14.20
  -8  -3   3  563.54   14.30
  -8  -3   3  555.24   14.40
  -8  -3   3  563.44   14.80
   8  -3  -3  548.95   14.70
   8   3  -3  472.25   13.80
  -8   3   3  554.24   14.70
  -8   3   3  543.95   14.10
  -8   3   3  566.84   14.50
   8   3  -3  549.35   12.00
  -8   3   3  559.34   14.00
   8   3  -3  549.65   14.20
   8   3  -3  526.65   14.50
  -8   3   3  561.64   14.40
   7  -3  -3  620.74   15.20
  -7  -3   3  614.44   13.40
  -7  -3   3  608.74   14.90
  -7  -3   3  608.84   15.10
   7  -3  -3  640.34   14.80
   7  -3  -3  610.64   12.10
  -7  -3   3  613.44   14.80
  -7  -3   3  637.04   15.00
   7  -3  -3  624.84   14.70
  -7   3   3  625.64   15.00
  -7   3   3  617.34   14.30
  -7   3   3  621.84   14.70
   7   3  -3  618.94   14.50
  -7   3   3  614.04   15.30
   7   3  -3  638.94   15.10
  -7   3   3  612.04   14.80
   7   3  -3  616.94   12.60
   7   3  -3  631.94   14.60
   6  -3  -3  475.25   11.30
   6  -3  -3  459.25   11.90
  -6  -3   3  448.66   11.50
  -6  -3   3  474.45   12.00
   6  -3  -3  456.65    9.50
  -6  -3   3  436.16   11.30
   6  -3  -3  463.35   11.30
  -6  -3   3  462.15   10.60
  -6  -3   3  457.15   11.30
   6   3  -3  455.35   11.20
  -6   3   3  445.76   10.70
   6   3  -3  473.05   11.60
   6   3  -3  450.95    9.10
  -6   3   3  446.66   11.60
   6   3  -3  456.85   11.20
  -6   3   3  449.26   11.30
  -6   3   3  452.05   11.40
  -6   3   3  469.05   12.00
  -5  -3   3  920.51   18.80
  -5  -3   3  923.71   18.80
   5  -3  -3  769.32   19.90
  -5  -3   3  910.31   18.70
   5  -3  -3  932.61   19.40
   5  -3  -3  929.11   17.50
  -5  -3   3  891.71   19.20
  -5  -3   3  903.21   18.40
  -5   3   3  939.81   19.20
   5   3  -3  920.61   18.60
   5   3  -3  906.81   18.40
  -5   3   3  920.31   18.70
  -5   3   3  913.31   18.80
  -5   3   3  924.71   19.40
   5   3  -3  850.91   19.30
   5   3  -3  951.00   18.90
  -5   3   3  949.21   18.00
   4  -3  -3  132.79    5.30
  -4  -3   3  121.19    5.20
   4  -3  -3  127.29    4.10
   4  -3  -3  123.39    4.60
  -4  -3   3  130.59    4.70
  -4  -3   3  127.89    4.80
   4  -3  -3  119.89    4.60
  -4  -3   3  124.49    4.70
  -4  -3   3  126.69    4.90
  -4   3   3  119.09    3.80
   4   3  -3  127.79    4.60
   4   3  -3  125.49    4.60
   4   3  -3  121.79    4.60
   4   3  -3  125.29    4.50
  -4   3   3  123.19    4.90
  -4   3   3  121.89    4.60
  -4   3   3  118.49    4.70
  -4   3   3  118.89    5.20
  -3  -3   3 1126.39   22.20
  -3  -3   3 1150.28   22.70
   3  -3  -3 1144.49   22.10
  -3  -3   3 1138.09   21.90
   3  -3  -3 1170.88   22.80
  -3  -3   3 1128.79   22.10
   3  -3  -3 1180.38   22.20
  -3  -3   3 1184.48   22.60
   3  -3  -3 1160.28   21.90
  -3   3   3 1163.78   22.00
  -3   3   3 1165.88   20.90
   3   3  -3 1173.88   22.80
  -3   3   3 1113.99   22.20
  -3   3   3 1103.99   22.70
  -3   3   3 1138.69   22.20
   3   3  -3 1154.28   21.90
  -3   3   3 1141.89   22.20
   3   3  -3 1151.88   22.00
   3   3  -3 1143.89   22.00
   3   3  -3 1094.89   22.90
  -3   3   3 1159.98   22.30
  -2  -3   3 2768.52   49.60
  -2  -3   3 2918.81   50.89
  -2  -3   3 2788.42   50.39
   2  -3  -3 2818.12   51.59
  -2  -3   3 2816.32   50.79
   2  -3  -3 2799.32   50.99
  -2  -3   3 2796.32   51.49
   2  -3  -3 2788.32   50.99
   2  -3  -3 2825.62   50.99
  -2  -3   3 2751.82   50.99
  -2  -3   3 2769.62   50.99
  -2   3   3 2795.22   51.29
   2   3  -3 2854.01   50.89
  -2   3   3 2765.52   50.99
   2   3  -3 2787.02   50.79
  -2   3   3 2735.43   51.59
   2   3  -3 2833.82   50.39
  -2   3   3 2820.62   51.09
   2   3  -3 2806.12   50.89
  -2   3   3 2797.12   51.09
   2   3  -3 2875.91   51.49
  -2   3   3 2939.31   51.29
  -2   3   3 2718.23   50.99
  -1  -3   3 2274.07   42.70
   1  -3  -3 2371.66   43.30
  -1  -3   3 2271.17   43.00
  -1  -3   3 2392.36   42.70
  -1  -3   3 2367.66   42.60
  -1  -3   3 2383.06   43.50
  -1  -3   3 2294.37   42.70
   1  -3  -3 2408.16   43.00
  -1  -3   3 2366.66   42.00
   1  -3  -3 2358.26   42.80
   1  -3  -3 2300.47   42.80
   1  -3  -3 2362.16   42.90
   1  -3  -3 2349.36   42.90
   1   3  -3 2343.87   42.60
   1   3  -3 2395.86   43.20
  -1   3   3 2361.26   42.70
  -1   3   3 2373.26   43.10
  -1   3   3 2318.67   42.80
   1   3  -3 2323.97   41.70
   1   3  -3 2212.78   42.70
  -1   3   3 2350.16   43.00
  -1   3   3 2273.77   42.80
   1   3  -3 2351.76   42.70
  -1   3   3 2279.07   43.20
  -1   3   3 2399.86   43.00
   0  -3   3 2233.88   40.50
   0  -3  -3 2190.48   39.60
   0  -3   3 2146.89   40.80
   0  -3   3 2172.28   41.10
   0  -3   3 2225.48   40.50
   0  -3  -3 2290.77   41.00
   0  -3  -3 2191.78   40.80
   0  -3   3 2226.38   40.30
   0  -3  -3 2202.78   40.80
   0   3   3 2226.68   40.20
   0   3   3 2265.17   40.90
   0   3  -3 2205.28   40.50
   0   3  -3 2191.58   40.40
   0   3   3 2164.68   40.70
   0   3   3 2229.88   41.10
   0   3   3 2150.08   40.60
   0   3  -3 2216.18   40.80
   0   3   3 2146.29   41.00
   0   3   3 2259.27   40.90
   0   3  -3 2229.58   40.60
  -1  -3  -3 1134.39   22.50
  -1  -3  -3 1117.09   21.60
   1  -3   3 1141.89   22.80
   1  -3   3 1192.58   22.30
  -1  -3  -3 1143.59   21.80
   1  -3   3 1153.08   22.40
   1  -3   3 1154.98   22.20
  -1  -3  -3 1163.48   22.60
   1  -3   3 1154.38   22.20
  -1  -3  -3 1135.79   22.50
   1   3   3 1108.69   22.30
  -1   3  -3 1176.08   22.20
   1   3   3 1127.09   22.70
  -1   3  -3 1169.38   22.20
  -1   3  -3 1162.48   22.80
   1   3   3 1112.39   22.30
   1   3   3 1185.18   22.60
  -1   3  -3 1165.68   22.20
  -1   3  -3 1139.19   22.20
   1   3   3 1153.18   21.50
  -1   3  -3 1163.98   22.30
   1   3   3 1166.08   22.50
   2  -3   3 1710.23   32.30
   2  -3   3 1758.82   32.40
   2  -3   3 1734.03   32.50
  -2  -3  -3 1646.64   32.80
   2  -3   3 1698.63   32.30
  -2  -3  -3 1674.93   32.60
  -2  -3  -3 1711.73   32.30
  -2  -3  -3 1720.53   31.40
  -2  -3  -3 1749.62   32.70
   2  -3   3 1652.53   32.70
   2   3   3 1733.53   32.70
  -2   3  -3 1739.03   32.30
  -2   3  -3 1709.03   32.30
   2   3   3 1700.23   32.70
  -2   3  -3 1754.42   32.90
   2   3   3 1706.13   31.30
   2   3   3 1723.43   32.60
  -2   3  -3 1707.53   30.60
   2   3   3 1679.03   32.80
  -2   3  -3 1702.63   32.30
  -3  -3  -3 1918.91   37.00
   3  -3   3 1944.21   36.90
  -3  -3  -3 1921.71   35.50
  -3  -3  -3 1922.41   36.90
   3  -3   3 1956.60   36.70
  -3  -3  -3 1947.11   36.90
  -3  -3  -3 1913.61   37.00
   3  -3   3 1986.80   36.80
   3  -3   3 1914.91   37.20
   3   3   3 1941.51   37.10
  -3   3  -3 1934.61   36.80
   3   3   3 1892.61   37.00
  -3   3  -3 1962.40   36.50
  -3   3  -3 1929.11   35.10
  -3   3  -3 1963.70   36.80
  -3   3  -3 1962.40   37.20
   3   3   3 1964.70   37.00
   3   3   3 1903.91   36.90
  -4  -3  -3   82.69    5.00
  -4  -3  -3   85.99    3.90
   4  -3   3   78.39    5.60
  -4  -3  -3   77.59    5.20
  -4  -3  -3   80.89    5.80
   4  -3   3   82.49    5.00
  -4  -3  -3   76.19    5.20
   4  -3   3   84.09    5.20
   4   3   3   90.29    5.20
  -4   3  -3   83.49    5.00
  -4   3  -3   81.69    4.90
   4   3   3   83.89    5.60
  -4   3  -3   82.39    4.90
   4   3   3   85.39    5.20
  -4   3  -3   85.09    3.70
  -4   3  -3   84.39    5.40
   4   3   3   80.09    5.50
   5  -3   3  918.71   18.40
  -5  -3  -3  932.31   18.50
   5  -3   3  853.11   21.30
  -5  -3  -3  931.21   19.90
  -5  -3  -3  919.91   20.40
   5  -3   3  912.41   20.30
   5  -3   3  952.20   20.30
  -5  -3  -3  946.61   20.60
  -5  -3  -3  956.90   20.90
   5  -3   3  918.71   20.90
  -5   3  -3  948.01   20.30
  -5   3  -3  963.80   20.30
   5   3   3  919.81   20.50
  -5   3  -3  935.01   20.50
  -5   3  -3  912.51   19.60
   5   3   3  915.11   20.20
   5   3   3  932.91   20.50
   5   3   3  944.21   20.30
  -5   3  -3  936.61   18.60
   6  -3   3  988.40   22.10
  -6  -3  -3  985.10   22.20
   6  -3   3  994.10   21.90
  -6  -3  -3  957.50   19.90
   6  -3   3  976.30   20.20
  -6  -3  -3  997.90   22.40
   6  -3   3  976.40   22.80
  -6  -3  -3  990.60   21.50
  -6  -3  -3  986.20   22.70
   6   3   3 1006.20   22.40
   6   3   3  990.10   21.90
  -6   3  -3 1007.10   22.10
   6   3   3  992.00   21.80
  -6   3  -3  997.60   22.10
   6   3   3  978.30   22.20
  -6   3  -3  996.40   22.40
  -6   3  -3 1010.10   20.40
  -6   3  -3  989.00   21.40
   7  -3   3  445.26   14.40
  -7  -3  -3  442.96   13.70
   7  -3   3  440.36   12.10
   7  -3   3  452.95   14.60
   7  -3   3  446.16   11.60
  -7  -3  -3  447.36   11.40
  -7  -3  -3  451.95   12.70
  -7  -3  -3  454.05   13.90
  -7  -3  -3  417.06   14.20
   7  -3   3  448.06   13.80
  -7  -3  -3  465.05   13.70
   7   3   3  470.35   14.30
  -7   3  -3  469.25   11.90
  -7   3  -3  447.36   12.80
   7   3   3  441.36   13.90
  -7   3  -3  439.36   13.90
   7   3   3  443.06   13.40
  -7   3  -3  468.85   13.80
   7   3   3  454.65   13.10
  -7   3  -3  456.35   13.80
  -8  -3  -3  298.27   12.40
  -8  -3  -3  279.07   11.00
   8  -3   3  274.77   12.60
   8  -3   3  297.67   10.30
  -8  -3  -3  267.77   13.60
   8  -3   3  296.77   13.20
   8  -3   3  307.07   12.90
  -8  -3  -3  295.77    9.50
   8  -3   3  288.17   10.30
  -8  -3  -3  308.27   12.30
  -8  -3  -3  298.37   12.50
   8  -3   3  266.77   13.80
   8   3   3  299.37   13.70
  -8   3  -3  295.17   12.30
  -8   3  -3  317.47   13.40
  -8   3  -3  308.27   10.30
   8   3   3  292.77   12.70
   8   3   3  304.67   11.40
   8   3   3  290.07   13.10
  -8   3  -3  311.67   12.10
  -8   3  -3  294.27   11.50
  -9  -3  -3   24.70    4.80
  -9  -3  -3   24.30    6.70
  -9  -3  -3   20.60    6.40
   9  -3   3   15.20    5.00
   9  -3   3   33.40    7.80
  -9  -3  -3   12.10    6.40
   9  -3   3   23.00    5.80
   9  -3   3   29.30    8.00
  -9  -3  -3   22.10    6.30
   9  -3   3   17.70    7.80
   9   3   3   21.30    7.20
  -9   3  -3   30.00    6.30
  -9   3  -3   24.90    5.40
   9   3   3   19.10    6.30
  -9   3  -3   29.10    6.80
  -9   3  -3    3.00    6.20
  10  -3   3   90.19   10.70
  10  -3   3   89.09    9.20
  10  -3   3  125.59   12.30
 -10  -3  -3  109.39   10.40
 -10  -3  -3   98.79    9.60
 -10  -3  -3   80.29    9.50
 -10  -3  -3   82.79    9.20
  10  -3   3   82.79    7.40
 -10   3  -3   93.29    9.40
  10   3   3   91.49    9.40
 -10   3  -3   99.89    9.90
 -10   3  -3  107.09    8.50
 -10   3  -3   89.99    9.50
  10   3   3   89.89   11.90
 -11  -3  -3  134.29   12.00
 -11  -3  -3  133.79   12.70
 -11  -3  -3  133.99   11.00
 -11  -3  -3  128.79   12.60
  11  -3   3  134.69   12.60
  11  -3   3  149.99   14.40
  11   3   3  182.38   15.40
 -11   3  -3  123.69   10.40
 -11   3  -3  145.89   12.50
 -11   3  -3  127.19   12.30
 -12  -4   3   -2.10    8.60
 -12  -4   3   10.00    8.60
 -12  -4   3   17.70    9.00
 -12  -4   3   13.00    8.60
 -12   4   3   16.80    8.20
 -12   4   3    9.50    8.00
 -12   4   3    3.80    8.40
 -11  -4   3   69.99    6.10
 -11  -4   3   78.99    8.80
 -11  -4   3   86.79    8.90
 -11  -4   3   84.89    8.80
 -11  -4   3   57.99    8.00
 -11   4   3   75.79    8.40
 -11   4   3   70.79    8.20
 -11   4   3   64.99    8.10
  11   4  -3   76.69    7.20
 -11   4   3   56.69    9.60
 -10  -4   3   36.40    6.70
 -10  -4   3   29.00    6.20
 -10  -4   3   26.40    5.90
 -10  -4   3   36.20    4.70
 -10  -4   3   40.70    6.60
 -10   4   3   30.30    6.20
 -10   4   3   31.40    6.20
 -10   4   3   38.90    6.70
 -10   4   3   26.70    6.10
  10   4  -3   29.40    4.00
 -10   4   3   22.80    6.00
   9  -4  -3  284.57    7.10
  -9  -4   3  269.67   14.30
   9  -4  -3  293.37   12.50
   9  -4  -3  282.37   11.50
  -9  -4   3  287.57   11.40
   9  -4  -3  281.27    6.60
   9  -4  -3  293.67   17.50
  -9  -4   3  289.27   11.80
  -9  -4   3  306.27   11.60
  -9  -4   3  266.27    9.10
  -9  -4   3  277.27   11.40
   9   4  -3  277.17   12.30
   9   4  -3  253.27   11.80
  -9   4   3  278.17   14.70
  -9   4   3  283.27   15.00
  -9   4   3  293.57   11.10
   9   4  -3  277.17    7.90
  -9   4   3  280.87   12.60
  -9   4   3  289.07   11.00
   9   4  -3  274.47   11.60
  -8  -4   3  581.54   15.60
  -8  -4   3  568.64   15.40
  -8  -4   3  608.34   15.90
  -8  -4   3  573.94   15.50
   8  -4  -3  585.94   12.40
   8  -4  -3  579.04   15.20
   8   4  -3  565.64   15.30
  -8   4   3  594.74   15.30
  -8   4   3  603.94   15.60
  -8   4   3  595.34   14.50
  -8   4   3  592.94   16.00
   8   4  -3  574.54   12.10
  -8   4   3  587.44   15.40
  -7  -4   3  531.15   13.80
  -7  -4   3  518.95   12.60
  -7  -4   3  536.85   14.10
   7  -4  -3  522.15   14.10
   7  -4  -3  529.75   13.50
  -7  -4   3  531.85   13.80
  -7  -4   3  516.05   13.60
   7  -4  -3  513.55   11.50
   7  -4  -3  531.05   14.60
  -7   4   3  525.65   13.70
   7   4  -3  538.05   13.80
   7   4  -3  463.15   14.50
   7   4  -3  518.15   13.50
  -7   4   3  548.55   13.80
   7   4  -3  517.65   10.30
  -7   4   3  532.05   13.60
   7   4  -3  519.95   13.50
  -7   4   3  532.05   14.30
  -7   4   3  537.35   12.70
   6  -4  -3  314.87    9.40
  -6  -4   3  325.77    9.70
   6  -4  -3  319.57    9.30
   6  -4  -3  326.37    9.30
   6  -4  -3  321.77   10.00
  -6  -4   3  318.07    9.90
  -6  -4   3  314.67    9.10
  -6  -4   3  329.17    9.60
  -6  -4   3  317.87    9.60
   6  -4  -3  310.77    8.10
  -6   4   3  317.67    8.40
  -6   4   3  308.07    9.50
   6   4  -3  326.37    9.40
   6   4  -3  331.77    9.70
   6   4  -3  326.47    9.50
  -6   4   3  335.57   10.30
  -6   4   3  318.27    9.60
   6   4  -3  329.87    9.40
  -6   4   3  332.17    9.60
   6   4  -3  320.67    9.30
   5  -4  -3  249.38    8.30
   5  -4  -3  244.38    6.90
   5  -4  -3  244.58    7.30
  -5  -4   3  245.08    7.80
   5  -4  -3  245.28    7.60
   5  -4  -3  243.78    7.70
  -5  -4   3  251.97    7.90
  -5  -4   3  250.77    7.80
  -5  -4   3  254.87    7.90
  -5  -4   3  257.67    8.30
  -5   4   3  239.78    8.30
  -5   4   3  244.88    8.00
   5   4  -3  263.37    7.70
  -5   4   3  242.18    8.00
   5   4  -3  248.38    7.60
   5   4  -3  247.28    7.70
  -5   4   3  243.68    7.80
   5   4  -3  262.27    7.70
  -5   4   3  257.37    8.00
   5   4  -3  247.48    7.80
  -5   4   3  245.78    7.90
  -5   4   3  254.17    6.60
   4  -4  -3  897.71   19.00
   4  -4  -3  919.81   19.50
   4  -4  -3  836.12   19.70
  -4  -4   3  914.11   19.30
  -4  -4   3  894.51   18.60
  -4  -4   3  912.41   18.90
   4  -4  -3  920.11   17.80
  -4  -4   3  905.01   19.00
   4  -4  -3  917.61   18.40
  -4  -4   3  913.51   19.10
  -4   4   3  913.71   19.50
  -4   4   3  904.51   17.40
   4   4  -3  916.51   18.80
   4   4  -3  921.11   18.70
  -4   4   3  906.91   18.90
  -4   4   3  902.21   18.90
   4   4  -3  920.01   18.60
   4   4  -3  939.11   19.50
  -4   4   3  930.41   19.10
   4   4  -3  931.31   18.80
  -4   4   3  945.01   19.20
   3  -4  -3  505.75   11.50
   3  -4  -3  521.05   11.60
  -3  -4   3  516.55   11.20
  -3  -4   3  523.85   12.20
   3  -4  -3  527.15   12.30
   3  -4  -3  478.65   10.20
  -3  -4   3  497.15   11.70
  -3  -4   3  507.85   11.70
  -3  -4   3  504.65   12.10
   3  -4  -3  512.95   11.60
   3   4  -3  522.35   11.60
   3   4  -3  517.25   11.60
  -3   4   3  516.35   12.10
   3   4  -3  508.65   11.50
  -3   4   3  498.95   11.60
  -3   4   3  519.65   11.90
  -3   4   3  517.55   11.80
   3   4  -3  515.15   12.10
   3   4  -3  508.25   11.10
  -3   4   3  509.35   11.60
   3   4  -3  506.05   11.40
  -3   4   3  511.85   12.20
  -2  -4   3  294.17    6.90
   2  -4  -3  292.47    7.60
   2  -4  -3  297.47    7.90
  -2  -4   3  286.77    8.10
   2  -4  -3  297.97    5.90
  -2  -4   3  288.27    7.80
   2  -4  -3  291.37    7.90
  -2  -4   3  294.47    6.10
  -2  -4   3  306.37    7.90
  -2  -4   3  297.27    7.60
  -2  -4   3  294.47    7.50
   2  -4  -3  303.57    7.80
   2  -4  -3  287.87    8.10
   2   4  -3  289.27    7.50
  -2   4   3  297.97    8.00
  -2   4   3  287.07    7.90
  -2   4   3  281.67    8.10
  -2   4   3  284.07    7.70
   2   4  -3  303.27    7.70
   2   4  -3  298.07    7.60
  -2   4   3  297.77    8.00
  -2   4   3  296.87    7.80
   2   4  -3  290.87    6.90
   2   4  -3  293.37    8.10
   2   4  -3  294.17    7.70
  -2   4   3  289.37    8.00
  -1  -4   3  646.44   14.20
  -1  -4   3  694.13   14.10
  -1  -4   3  667.33   14.80
  -1  -4   3  668.53   13.10
   1  -4  -3  660.23   14.40
  -1  -4   3  669.93   14.50
   1  -4  -3  651.73   12.40
  -1  -4   3  661.53   14.10
   1  -4  -3  672.03   14.20
   1  -4  -3  671.43   14.50
   1  -4  -3  684.53   14.20
   1  -4  -3  660.13   14.40
   1  -4  -3  656.43   14.20
  -1  -4   3  666.73   14.00
   1   4  -3  670.33   14.00
  -1   4   3  667.03   14.40
   1   4  -3  665.33   14.00
   1   4  -3  681.23   14.10
  -1   4   3  655.53   14.40
  -1   4   3  676.53   14.30
  -1   4   3  674.63   14.30
  -1   4   3  675.13   14.60
  -1   4   3  648.34   14.50
  -1   4   3  660.03   14.10
   1   4  -3  669.83   14.10
   1   4  -3  687.63   14.50
   1   4  -3  653.63   12.90
   0  -4  -3  789.02   16.70
   0  -4   3  808.22   16.40
   0  -4  -3  742.53   17.10
   0  -4   3  804.72   16.40
   0  -4   3  791.62   16.90
   0  -4   3  792.52   16.80
   0  -4  -3  783.92   16.80
   0  -4  -3  788.32   16.30
   0  -4   3  794.72   15.80
   0   4   3  791.92   17.00
   0   4   3  781.62   16.50
   0   4   3  802.62   16.10
   0   4   3  793.22   16.50
   0   4  -3  809.72   16.50
   0   4   3  789.72   16.70
   0   4  -3  783.42   16.20
   0   4  -3  821.52   16.50
   0   4   3  812.72   16.80
   0   4  -3  812.82   16.80
   0   4   3  807.62   16.90
   0   4  -3  807.52   14.80
   0   4  -3  795.62   16.30
  -1  -4  -3 1664.13   32.70
  -1  -4  -3 1706.03   32.80
   1  -4   3 1683.33   32.10
   1  -4   3 1687.43   32.70
  -1  -4  -3 1749.92   33.00
  -1  -4  -3 1688.53   32.00
   1  -4   3 1738.63   33.00
   1  -4   3 1730.83   32.50
   1  -4   3 1733.83   32.40
  -1  -4  -3 1675.23   31.80
  -1   4  -3 1710.43   32.40
   1   4   3 1685.53   33.00
   1   4   3 1677.63   32.60
  -1   4  -3 1640.64   30.40
   1   4   3 1708.33   32.70
   1   4   3 1710.23   31.80
   1   4   3 1660.63   32.50
  -1   4  -3 1706.03   32.50
   1   4   3 1719.93   32.80
  -1   4  -3 1683.23   30.50
  -1   4  -3 1712.83   32.40
   1   4   3 1767.42   33.00
  -1   4  -3 1741.53   32.60
  -1   4  -3 1705.93   32.50
  -2  -4  -3  836.02   16.70
   2  -4   3  807.92   17.80
  -2  -4  -3  810.12   17.20
  -2  -4  -3  828.32   17.80
   2  -4   3  833.52   17.70
   2  -4   3  834.92   17.40
   2  -4   3  823.12   17.40
  -2  -4  -3  829.52   17.80
   2  -4   3  821.82   17.40
  -2   4  -3  813.72   15.30
   2   4   3  812.92   17.30
  -2   4  -3  842.62   17.60
  -2   4  -3  854.91   17.50
   2   4   3  814.52   17.50
   2   4   3  840.22   21.10
   2   4   3  795.72   17.90
  -2   4  -3  865.41   17.50
   2   4   3  841.02   17.90
   2   4   3  830.02   17.60
   2   4   3  832.42   16.50
  -2   4  -3  838.52   17.50
  -2   4  -3  840.92   17.90
   2   4   3  815.62   17.70
  -2   4  -3  791.92   18.40
   3  -4   3  463.45   12.00
  -3  -4  -3  462.05   11.70
  -3  -4  -3  466.75   11.90
   3  -4   3  464.75   11.50
  -3  -4  -3  469.65   12.00
  -3  -4  -3  467.45   11.70
  -3  -4  -3  467.25   10.60
   3  -4   3  469.65   11.60
  -3   4  -3  468.85   11.60
   3   4   3  460.95   12.10
   3   4   3  457.55   10.40
  -3   4  -3  462.15   11.80
   3   4   3  483.45   12.00
   3   4   3  455.15   11.60
   3   4   3  472.55   11.90
  -3   4  -3  486.15   11.70
  -3   4  -3  470.55    9.50
  -3   4  -3  478.35   11.70
   3   4   3  455.25   11.90
   4  -4   3 1313.47   27.30
  -4  -4  -3 1300.57   26.80
   4  -4   3 1338.77   26.90
  -4  -4  -3 1311.37   27.20
   4  -4   3 1327.47   27.10
   4  -4   3 1350.16   27.00
  -4  -4  -3 1334.07   27.20
  -4  -4  -3 1334.07   25.50
  -4  -4  -3 1327.67   27.30
  -4   4  -3 1223.68   30.80
   4   4   3 1319.77   27.00
  -4   4  -3 1346.57   27.00
   4   4   3 1318.07   27.30
  -4   4  -3 1307.97   26.90
  -4   4  -3 1336.47   27.10
  -4   4  -3 1278.97   24.70
   4   4   3 1337.97   27.40
   5  -4   3    5.40    3.30
  -5  -4  -3    3.90    3.80
   5  -4   3    8.50    3.90
   5  -4   3    6.70    3.30
   5  -4   3    4.70    3.00
  -5  -4  -3    6.10    3.50
  -5  -4  -3    1.40    3.10
  -5  -4  -3   10.70    3.70
  -5  -4  -3    8.40    2.50
   5   4   3    2.90    3.50
  -5   4  -3    5.20    3.10
  -5   4  -3    2.10    3.10
   5   4   3    1.80    3.20
  -5   4  -3    6.30    3.60
  -5   4  -3    8.70    3.40
  -5   4  -3    7.80    2.40
   5   4   3    7.10    3.60
   5   4   3    3.50    3.40
  -6  -4  -3    2.40    3.80
   6  -4   3   -3.40    3.40
  -6  -4  -3    1.50    2.90
  -6  -4  -3    2.60    3.70
  -6  -4  -3    7.70    4.60
   6  -4   3    8.30    4.20
   6  -4   3    4.60    4.20
   6  -4   3    0.70    3.40
  -6  -4  -3    5.00    3.80
   6   4   3    1.30    3.70
  -6   4  -3   -0.60    3.10
   6   4   3   -1.30    3.90
  -6   4  -3    4.60    4.10
  -6   4  -3    9.00    3.80
  -6   4  -3   -0.30    3.40
  -6   4  -3    6.20    2.80
   6   4   3    4.50    3.90
  -7  -4  -3  209.28   10.70
  -7  -4  -3  184.18    9.60
  -7  -4  -3  209.38    8.00
  -7  -4  -3  200.48   10.40
   7  -4   3  214.58   11.00
   7  -4   3  209.08   10.60
   7  -4   3  195.78   11.20
   7   4   3  208.48   11.00
   7   4   3  218.18   10.20
  -7   4  -3  213.18    8.10
   7   4   3  209.68   11.00
  -7   4  -3  222.68   10.10
  -7   4  -3  208.48    9.60
   7   4   3  208.98   11.10
  -7   4  -3  214.38   10.20
  -7   4  -3  207.88   11.20
   8  -4   3   91.59    8.80
  -8  -4  -3   62.09    8.40
   8  -4   3   85.29    7.60
   8  -4   3   77.19    8.30
  -8  -4  -3   72.59    8.80
   8  -4   3   88.49    8.00
  -8  -4  -3   67.09    6.70
  -8  -4  -3   75.19    7.30
  -8  -4  -3  101.29   10.00
  -8   4  -3  102.79   10.00
  -8   4  -3   70.89    7.30
   8   4   3   90.49    8.90
  -8   4  -3   83.29    7.40
   8   4   3   65.49    8.20
  -8   4  -3   76.89    7.10
   9  -4   3  198.98   15.00
  -9  -4  -3  219.38   10.00
   9  -4   3  243.88   15.70
  -9  -4  -3  203.88   13.80
   9  -4   3  185.18   16.50
  -9  -4  -3  226.38   14.10
  -9   4  -3  207.08   14.00
  -9   4  -3  219.38   13.20
   9   4   3  219.38   12.80
  -9   4  -3  234.58   10.80
   9   4   3  198.58   16.70
  -9   4  -3  229.78   13.20
 -10  -4  -3   85.59   14.50
 -10  -4  -3   72.09    7.40
 -10  -4  -3   66.09    9.80
  10  -4   3   86.99    7.90
  10  -4   3   79.69   11.70
  10  -4   3   69.89   11.80
  10   4   3   75.99    9.60
 -10   4  -3   83.09    8.10
 -10   4  -3   66.79    9.60
 -10   4  -3   69.59    8.80
 -11  -4  -3   51.39   11.70
  11  -4   3   11.20    7.90
 -11  -4  -3   22.00    8.20
  11  -4   3   20.10   12.60
 -11  -4  -3   25.60   11.20
 -11   4  -3   27.80   10.70
 -11   4  -3   33.80   11.20
  11   4   3   34.00   10.40
 -11   4  -3   24.40    8.60
 -12  -5   3   81.79   11.40
 -12  -5   3   77.99   12.00
 -12  -5   3   59.69   11.10
 -12  -5   3   62.49   10.40
 -12   5   3   77.09   10.80
 -12   5   3   84.99   11.20
 -12   5   3   64.09   10.40
 -11  -5   3  138.19   11.00
 -11  -5   3  142.29   14.60
 -11  -5   3  118.09   10.30
 -11  -5   3  113.89   10.50
 -11   5   3  147.59   13.50
 -11   5   3  121.99   10.50
 -11   5   3  114.29   10.40
 -11   5   3  122.39   10.10
  10  -5  -3    7.60    2.70
  10  -5  -3    6.90    3.50
 -10  -5   3    7.40    6.70
 -10  -5   3    6.70    5.30
 -10  -5   3   11.10    6.20
 -10  -5   3   12.00    6.70
 -10  -5   3   10.60    6.40
 -10   5   3    5.90    6.60
 -10   5   3    7.50    5.90
 -10   5   3   -4.40    5.70
  10   5  -3   -0.20    6.00
  10   5  -3    4.30    3.50
 -10   5   3   17.80    6.80
  10   5  -3    4.50    6.00
 -10   5   3    2.20    6.00
   9  -5  -3   38.50    4.00
  -9  -5   3   29.50    5.20
  -9  -5   3   33.70    5.90
  -9  -5   3   43.00    6.40
  -9  -5   3   38.00    6.40
  -9  -5   3   40.10    6.00
  -9   5   3   25.30    4.90
   9   5  -3   32.50    5.80
   9   5  -3   18.40    7.40
   9   5  -3   39.20    6.20
  -9   5   3   36.80    6.90
  -9   5   3   31.10    5.60
  -9   5   3   31.50    5.70
  -9   5   3   37.70    5.80
   8  -5  -3   15.20    3.30
   8  -5  -3   10.40    5.80
  -8  -5   3   15.60    4.40
  -8  -5   3   21.10    5.00
  -8  -5   3   19.20    4.90
   8  -5  -3   18.10    5.30
   8   5  -3   13.70    4.60
  -8   5   3   21.60    4.80
   8   5  -3   17.60    5.40
  -8   5   3   18.90    4.20
  -8   5   3   27.00    8.20
   8   5  -3    7.60    4.90
  -8   5   3    9.00    4.20
   8   5  -3   18.70    4.60
  -8   5   3   17.80    4.40
  -7  -5   3  309.77   10.70
  -7  -5   3  311.37   10.90
   7  -5  -3  323.27   10.50
  -7  -5   3  298.87   10.70
  -7  -5   3  297.87    9.90
  -7  -5   3  310.47   10.80
   7  -5  -3  289.47    8.70
   7  -5  -3  302.37   10.60
  -7   5   3  296.97   10.90
  -7   5   3  291.87   10.50
   7   5  -3  296.57   10.50
  -7   5   3  299.37   11.10
  -7   5   3  284.37   10.50
   7   5  -3  302.27   10.40
  -7   5   3  311.67   10.50
  -7   5   3  295.97    9.00
   7   5  -3  298.87   10.40
   7   5  -3  318.07   10.80
  -7   5   3  304.27   11.20
   6  -5  -3  663.93   16.70
  -6  -5   3  672.13   16.30
  -6  -5   3  649.14   15.80
   6  -5  -3  676.83   16.10
   6  -5  -3  660.53   14.80
  -6  -5   3  665.03   16.40
   6  -5  -3  678.03   15.30
  -6  -5   3  666.93   15.90
  -6  -5   3  652.03   16.20
  -6   5   3  663.33   14.40
   6   5  -3  681.73   16.00
  -6   5   3  661.23   16.10
   6   5  -3  659.53   16.10
  -6   5   3  646.64   16.00
  -6   5   3  676.83   16.80
   6   5  -3  660.53   15.80
  -6   5   3  674.33   16.20
   6   5  -3  670.93   16.10
  -6   5   3  686.83   17.00
  -6   5   3  661.23   16.30
  -5  -5   3  341.47   10.30
  -5  -5   3  338.27   10.10
   5  -5  -3  360.66   10.70
  -5  -5   3  351.26   10.40
   5  -5  -3  338.57    9.00
   5  -5  -3  346.57   10.00
   5  -5  -3  339.57    9.30
  -5  -5   3  341.47   10.20
  -5  -5   3  337.57    9.80
   5  -5  -3  339.87   10.10
  -5   5   3  329.07   10.00
  -5   5   3  339.97   10.80
  -5   5   3  346.57   10.20
  -5   5   3  340.47    8.40
   5   5  -3  351.76   10.10
   5   5  -3  343.87   10.00
   5   5  -3  340.57    9.90
  -5   5   3  346.27   10.10
   5   5  -3  341.17   10.80
  -5   5   3  338.57   10.90
  -5   5   3  348.17   10.50
   5   5  -3  351.96    9.70
   5   5  -3  338.87    9.90
  -5   5   3  351.76   10.40
  -4  -5   3  445.86   11.90
  -4  -5   3  439.26   11.60
   4  -5  -3  450.25   11.50
   4  -5  -3  449.56   11.50
  -4  -5   3  468.55   11.70
   4  -5  -3  450.85   11.20
  -4  -5   3  437.46   11.90
   4  -5  -3  442.16   11.90
   4  -5  -3  465.55   10.10
  -4  -5   3  465.05   11.20
   4   5  -3  455.35   11.50
   4   5  -3  456.85   11.40
  -4   5   3  449.36   12.10
  -4   5   3  438.06    9.70
   4   5  -3  466.35   11.50
  -4   5   3  455.85   11.80
  -4   5   3  454.45   12.20
   4   5  -3  458.75   11.40
  -4   5   3  441.16   11.60
  -4   5   3  446.36   11.60
  -4   5   3  452.35   11.80
   4   5  -3  451.95   11.00
   3  -5  -3  339.37    7.60
   3  -5  -3  334.17    9.40
  -3  -5   3  334.07   10.10
   3  -5  -3  329.57    9.60
   3  -5  -3  331.17    9.20
  -3  -5   3  348.87    9.50
  -3  -5   3  346.37    9.60
  -3  -5   3  339.27    9.80
   3  -5  -3  335.87    9.30
  -3   5   3  346.37    9.70
   3   5  -3  335.77    9.80
   3   5  -3  338.27    8.60
   3   5  -3  354.16    9.40
  -3   5   3  341.07    9.80
  -3   5   3  330.07    9.30
  -3   5   3  343.17    9.40
  -3   5   3  334.77    9.70
   3   5  -3  333.07    9.20
   3   5  -3  355.26    9.30
  -3   5   3  344.17    9.60
   3   5  -3  346.57    9.30
  -2  -5   3  247.18    5.80
   2  -5  -3  246.98    7.90
  -2  -5   3  251.77    7.60
   2  -5  -3  256.87    7.80
  -2  -5   3  235.28    7.40
   2  -5  -3  248.88    7.90
   2  -5  -3  261.87    7.60
   2  -5  -3  253.47    8.00
  -2  -5   3  249.58    8.10
  -2  -5   3  246.18    7.70
   2  -5  -3  242.18    7.80
  -2  -5   3  218.38    9.00
  -2  -5   3  244.98    7.80
  -2   5   3  251.77    8.00
  -2   5   3  240.38    7.60
   2   5  -3  241.38    7.60
   2   5  -3  250.67    7.60
   2   5  -3  249.58    7.50
  -2   5   3  258.37    8.00
  -2   5   3  248.08    8.00
  -2   5   3  257.77    8.00
  -2   5   3  253.97    8.00
   2   5  -3  244.38    6.60
   2   5  -3  257.57    8.20
  -2   5   3  253.97    7.70
   2   5  -3  250.17    5.90
   2   5  -3  244.58    7.40
  -1  -5   3  706.63   15.60
   1  -5  -3  556.54   17.90
  -1  -5   3  677.33   13.60
   1  -5  -3  703.33   15.30
   1  -5  -3  689.33   15.10
   1  -5  -3  678.53   15.40
   1  -5  -3  667.63   15.00
  -1  -5   3  666.03   15.00
  -1  -5   3  666.33   15.00
  -1  -5   3  688.83   14.90
  -1  -5   3  681.73   14.80
  -1  -5   3  690.73   15.40
   1  -5  -3  673.03   13.00
  -1   5   3  660.93   15.00
   1   5  -3  669.23   14.80
   1   5  -3  678.53   15.00
  -1   5   3  667.83   15.50
   1   5  -3  674.43   15.50
  -1   5   3  664.13   15.00
   1   5  -3  690.33   14.90
   1   5  -3  684.63   13.50
  -1   5   3  693.13   14.90
  -1   5   3  678.33   15.30
  -1   5   3  665.33   15.20
   1   5  -3  665.03   13.70
  -1   5   3  674.73   15.30
   1   5  -3  668.33   15.20
   0  -5  -3  210.68    7.30
   0  -5  -3  206.98    7.00
   0  -5  -3  195.08    6.90
   0  -5  -3  200.28    7.20
   0  -5   3  204.08    7.40
   0  -5   3  201.28    6.80
   0  -5   3  213.28    6.10
   0  -5   3  194.38    6.70
   0  -5   3  202.18    7.20
   0   5   3  204.48    7.20
   0   5  -3  201.38    6.80
   0   5  -3  189.48    6.80
   0   5  -3  208.58    7.00
   0   5   3  204.68    7.30
   0   5   3  203.08    6.60
   0   5  -3  207.78    6.20
   0   5   3  195.58    6.90
   0   5  -3  202.88    6.90
   0   5  -3  204.58    5.20
   0   5   3  194.78    6.80
   0   5   3  202.28    6.90
   1  -5   3  244.48    7.90
   1  -5   3  254.87    8.30
  -1  -5  -3  257.97    8.40
   1  -5   3  258.77    7.40
  -1  -5  -3  253.57    8.30
  -1  -5  -3  257.97    8.20
   1  -5   3  250.17    7.80
  -1  -5  -3  261.27    7.80
   1  -5   3  263.67    8.50
   1   5   3  258.17    7.30
   1   5   3  256.37    8.00
  -1   5  -3  248.78    7.70
   1   5   3  260.67    8.60
   1   5   3  250.77    8.00
  -1   5  -3  266.67    7.90
  -1   5  -3  261.07    7.90
  -1   5  -3  240.38    7.80
   1   5   3  254.87    7.80
   1   5   3  260.77    8.40
   1   5   3  255.57    8.50
  -1   5  -3  248.38    8.70
  -1   5  -3  244.58    5.90
  -2  -5  -3  146.19    6.70
   2  -5   3  146.19    6.10
  -2  -5  -3  146.09    6.80
   2  -5   3  145.49    6.40
   2  -5   3  140.19    6.20
  -2  -5  -3  144.89    6.80
   2  -5   3  139.89    6.90
  -2  -5  -3  137.79    5.90
  -2  -5  -3  139.09    6.00
   2  -5   3  139.09    6.60
   2   5   3  138.19    6.30
  -2   5  -3  140.89    6.30
   2   5   3  141.39    6.80
   2   5   3  136.59    6.60
  -2   5  -3  136.79    6.30
   2   5   3  139.69    7.00
  -2   5  -3  140.39    3.90
   2   5   3  135.09    6.30
  -2   5  -3  129.79    6.40
   2   5   3  141.99    6.80
   2   5   3  134.99    5.90
  -2   5  -3  146.39    6.20
  -2   5  -3  134.29    6.30
  -2   5  -3  134.99    6.50
   2   5   3  134.29    5.40
   3  -5   3    7.30    2.90
  -3  -5  -3    7.00    2.80
  -3  -5  -3    7.80    3.30
  -3  -5  -3    4.90    2.90
   3  -5   3    7.00    3.20
  -3  -5  -3    2.80    2.90
  -3  -5  -3   10.40    3.30
   3  -5   3    8.50    3.00
   3  -5   3    8.10    3.10
  -3   5  -3    0.10    2.90
  -3   5  -3    8.20    3.00
   3   5   3    8.50    2.50
  -3   5  -3   11.30    3.10
  -3   5  -3    4.40    2.90
   3   5   3    4.40    3.70
   3   5   3    3.40    2.80
   3   5   3    5.50    2.70
  -3   5  -3    7.50    2.90
  -3   5  -3    6.00    3.00
  -3   5  -3    7.10    1.70
   3   5   3    8.80    3.00
   3   5   3    9.90    3.10
   3   5   3    5.40    3.10
   3   5   3    3.90    3.30
   4  -5   3   37.20    4.60
   4  -5   3   33.30    4.30
  -4  -5  -3   33.50    4.50
  -4  -5  -3   28.40    4.20
   4  -5   3   35.20    4.30
  -4  -5  -3   30.30    4.10
  -4  -5  -3   33.00    3.60
  -4  -5  -3   23.30    4.00
   4  -5   3   32.50    4.50
   4   5   3   35.00    4.70
   4   5   3   26.20    3.70
   4   5   3   27.20    4.20
  -4   5  -3   43.60    4.80
   4   5   3   34.90    4.40
  -4   5  -3   35.40    4.40
  -4   5  -3   35.20    3.40
   4   5   3   29.00    4.20
  -4   5  -3   38.80    4.50
  -4   5  -3   37.10    4.20
  -4   5  -3   27.50    4.00
   4   5   3   33.90    4.40
   4   5   3   35.10    3.60
  -5  -5  -3   43.90    5.30
  -5  -5  -3   37.50    5.20
   5  -5   3   39.30    5.20
  -5  -5  -3   30.20    4.80
   5  -5   3   29.60    4.40
   5  -5   3   38.90    5.00
   5  -5   3   36.60    4.80
  -5  -5  -3   35.40    3.90
  -5  -5  -3   40.30    5.10
   5   5   3   32.50    4.10
   5   5   3   38.60    5.40
  -5   5  -3   39.50    4.90
  -5   5  -3   43.20    5.40
  -5   5  -3   38.30    4.90
  -5   5  -3   33.50    3.10
  -5   5  -3   37.00    4.60
   5   5   3   34.00    4.80
   5   5   3   44.40    5.60
  -6  -5  -3  287.67   11.70
   6  -5   3  295.57   11.90
  -6  -5  -3  286.77    9.30
   6  -5   3  295.17   11.90
   6  -5   3  272.17   11.30
  -6  -5  -3  281.67   12.20
  -6  -5  -3  267.57   11.20
   6  -5   3  251.87   13.00
  -6  -5  -3  284.37   11.70
   6   5   3  293.37   12.00
  -6   5  -3  275.87   11.60
  -6   5  -3  272.67   10.80
  -6   5  -3  278.27   11.10
   6   5   3  301.77   11.60
  -6   5  -3  276.77    8.40
   6   5   3  297.37   12.50
  -6   5  -3  282.67   11.20
  -7  -5  -3  103.09    9.90
   7  -5   3  102.39    8.40
  -7  -5  -3  106.49    9.90
   7  -5   3  107.19   10.60
   7  -5   3  115.49    8.90
   7  -5   3  102.49   10.10
  -7  -5  -3  111.59    7.30
  -7  -5  -3  115.69   10.10
  -7   5  -3   91.89    8.40
   7   5   3  111.79   11.30
  -7   5  -3  112.59    6.90
   7   5   3   94.59    8.30
   7   5   3  100.89    8.60
   7   5   3   88.59    9.40
  -7   5  -3  114.99    9.60
  -7   5  -3  100.69    9.30
  -8  -5  -3    2.30    5.80
  -8  -5  -3   -4.80    6.00
   8  -5   3   -2.70    7.40
   8  -5   3    1.40    5.40
  -8  -5  -3    6.30    4.40
   8  -5   3    8.10    6.90
   8  -5   3    2.40    7.10
  -8   5  -3   -1.10    5.20
   8   5   3   -8.50    7.00
  -8   5  -3   -3.40    4.50
   8   5   3   -5.30    5.90
  -8   5  -3   -4.80    5.80
  -8   5  -3   12.70    7.00
   9  -5   3   10.60    5.80
  -9  -5  -3    5.80    7.60
   9  -5   3   17.90    8.70
  -9  -5  -3   -0.40    5.10
  -9  -5  -3    8.60    7.50
   9  -5   3   15.50    9.60
  -9   5  -3   10.60    7.20
   9   5   3    5.30   10.40
  -9   5  -3    3.00    5.20
   9   5   3    6.10    7.70
  -9   5  -3   -3.60    7.10
 -10  -5  -3   15.50    9.90
  10  -5   3   23.20   10.90
 -10  -5  -3   11.70    6.70
  10  -5   3    7.70    6.70
 -10  -5  -3   13.70    9.20
  10   5   3   26.00    9.60
 -10   5  -3    6.40    6.90
 -10   5  -3   26.20   10.00
 -10   5  -3   19.80    9.10
 -11  -6   3   39.10    9.80
 -11  -6   3   13.90    9.30
 -11  -6   3   13.10    9.40
 -11  -6   3   31.60    9.30
 -11   6   3   44.70    9.60
  11   6  -3   45.30    9.40
 -11   6   3   35.90    9.50
 -11   6   3   24.70    9.00
 -11   6   3   55.19   10.70
 -10  -6   3   48.70    7.90
 -10  -6   3   32.40    8.10
 -10  -6   3   47.90    8.40
  10  -6  -3   31.80    4.40
 -10  -6   3   29.50    8.00
 -10  -6   3   38.00    7.90
 -10   6   3   34.80    8.40
 -10   6   3   34.30    7.30
 -10   6   3   33.50   11.00
  10   6  -3   35.40    8.00
 -10   6   3   41.30    7.90
 -10   6   3   30.40    9.90
 -10   6   3   39.80    7.80
  10   6  -3   33.60    7.70
 -10   6   3   35.10    9.00
  -9  -6   3  289.17   13.50
  -9  -6   3  259.97   13.60
  -9  -6   3  301.87   13.60
  -9  -6   3  272.47   13.90
   9  -6  -3  284.07    9.90
  -9  -6   3  266.67   12.60
  -9   6   3  292.57   16.50
   9   6  -3  290.87   13.10
  -9   6   3  284.17   12.80
  -9   6   3  288.67   13.70
  -9   6   3  267.77   13.00
  -9   6   3  271.87   12.10
  -9   6   3  299.97   15.20
  -9   6   3  300.47   14.60
   9   6  -3  273.67   13.30
  -8  -6   3   30.70    5.90
  -8  -6   3   14.20    5.30
   8  -6  -3   14.60    4.20
  -8  -6   3   10.80    5.20
   8  -6  -3   16.10    6.00
   8  -6  -3   11.80    5.30
  -8  -6   3   16.30    5.20
  -8  -6   3   13.00    5.50
   8   6  -3   35.40    6.70
  -8   6   3   15.00    6.00
  -8   6   3   16.40    5.10
   8   6  -3   13.90    5.10
  -8   6   3   15.90    4.80
  -8   6   3   14.70    6.30
   8   6  -3    8.70    5.10
  -8   6   3   16.10    6.00
  -8   6   3    7.70    4.60
  -8   6   3    8.30    5.00
   7  -6  -3   80.99    6.60
  -7  -6   3   72.89    6.40
  -7  -6   3   74.79    8.90
  -7  -6   3   74.39    6.50
  -7  -6   3   90.79    7.90
   7  -6  -3   87.19    7.10
   7  -6  -3   81.49    7.60
  -7   6   3   67.49    6.10
   7   6  -3   71.09    6.80
   7   6  -3   79.09    8.00
   7   6  -3   73.29    6.70
  -7   6   3   61.89    6.30
  -7   6   3   93.99    9.20
  -7   6   3   84.29    7.10
  -7   6   3   68.89    6.10
  -7   6   3   79.69    7.70
   7   6  -3   79.59    8.20
  -6  -6   3  171.68    8.80
   6  -6  -3  165.28    8.90
   6  -6  -3  170.78    7.70
  -6  -6   3  170.68    8.90
  -6  -6   3  176.98    8.40
  -6  -6   3  172.18    8.90
  -6  -6   3  162.38    8.80
   6  -6  -3  165.28    7.50
  -6   6   3  169.88    9.50
   6   6  -3  174.38    8.50
  -6   6   3  165.38    6.70
  -6   6   3  175.28    9.40
  -6   6   3  178.18    8.50
  -6   6   3  174.58    9.20
   6   6  -3  172.28    8.50
   6   6  -3  188.58    9.30
   6   6  -3  171.08    8.50
  -6   6   3  173.38    8.80
  -6   6   3  170.58    8.70
   5  -6  -3  104.39    6.90
  -5  -6   3  122.99    7.30
  -5  -6   3  116.39    7.60
  -5  -6   3  118.89    6.80
  -5  -6   3  109.79    7.30
  -5  -6   3  113.89    7.70
   5  -6  -3  118.59    5.90
  -5   6   3  122.49    7.60
   5   6  -3  113.39    7.10
   5   6  -3  107.59    7.00
   5   6  -3  116.59    7.30
  -5   6   3  106.39    7.10
   5   6  -3  111.59    7.00
  -5   6   3  127.59    8.50
  -5   6   3  115.19    5.10
  -5   6   3  123.59    7.90
  -5   6   3  114.69    7.30
   5   6  -3   97.79    7.60
   5   6  -3  122.09    6.80
  -5   6   3  125.99    7.80
  -4  -6   3 1381.96   28.30
   4  -6  -3 1360.86   28.00
   4  -6  -3 1377.76   28.50
   4  -6  -3 1359.36   26.00
  -4  -6   3 1356.36   28.60
   4  -6  -3 1461.75   28.90
   4  -6  -3 1214.18   29.00
  -4  -6   3 1355.46   28.20
  -4  -6   3 1419.36   28.60
  -4   6   3 1340.87   28.50
   4   6  -3 1368.26   27.90
   4   6  -3 1360.56   28.50
  -4   6   3 1379.76   28.80
   4   6  -3 1398.96   27.90
   4   6  -3 1359.56   27.90
   4   6  -3 1348.07   27.20
  -4   6   3 1359.56   28.10
  -4   6   3 1375.56   28.50
  -4   6   3 1382.26   28.20
   4   6  -3 1378.76   28.10
  -4   6   3 1165.28   33.10
   3  -6  -3  159.38    7.70
   3  -6  -3  168.88    7.10
   3  -6  -3  172.38    7.50
   3  -6  -3  165.78    5.20
  -3  -6   3  165.38    8.00
  -3  -6   3  158.28    7.30
  -3  -6   3  173.58    7.60
   3  -6  -3  161.78    7.10
  -3  -6   3  166.08    7.80
   3   6  -3  162.88    6.40
   3   6  -3  168.08    7.40
  -3   6   3  171.88    7.90
   3   6  -3  171.68    7.10
   3   6  -3  163.28    7.30
  -3   6   3  173.28    7.80
  -3   6   3  170.68    7.70
  -3   6   3  167.18    7.40
  -3   6   3  162.28    7.20
   3   6  -3  164.48    4.70
   3   6  -3  162.88    7.80
  -3   6   3  158.48    7.60
   3   6  -3  173.38    7.30
  -2  -6   3  255.37    8.40
  -2  -6   3  248.48    8.60
   2  -6  -3  241.28    6.10
  -2  -6   3  240.18    8.30
  -2  -6   3  233.88    8.40
   2  -6  -3  250.17    8.70
  -2  -6   3  248.38    9.10
   2  -6  -3  236.48    8.70
   2  -6  -3  246.28    8.40
   2  -6  -3  250.37    8.60
  -2  -6   3  231.98    6.10
  -2  -6   3  239.68    9.00
   2  -6  -3  248.38    8.40
  -2   6   3  252.77    8.70
  -2   6   3  232.48    8.50
   2   6  -3  249.68    8.50
   2   6  -3  246.88    6.50
   2   6  -3  248.88    8.30
  -2   6   3  231.78    8.80
  -2   6   3  239.58    8.90
   2   6  -3  249.18    8.40
   2   6  -3  226.78    8.10
   2   6  -3  228.88    7.10
   2   6  -3  248.18    8.80
  -2   6   3  254.47    8.50
  -2   6   3  243.68    8.30
   1  -6  -3  848.42   18.80
  -1  -6   3  833.52   19.20
   1  -6  -3  845.82   19.20
   1  -6  -3  860.41   18.70
   1  -6  -3  859.01   18.80
  -1  -6   3  837.12   18.60
   1  -6  -3  854.81   18.90
  -1  -6   3  844.92   19.50
  -1  -6   3  858.11   18.90
   1  -6  -3  854.81   16.50
  -1  -6   3  838.92   17.10
  -1  -6   3  851.41   18.80
  -1  -6   3  848.12   18.60
   1  -6  -3  857.01   19.10
  -1  -6   3  837.52   19.10
  -1   6   3  875.61   19.30
   1   6  -3  872.81   18.80
  -1   6   3  854.31   18.90
   1   6  -3  861.81   17.10
   1   6  -3  850.51   18.60
  -1   6   3  836.62   19.40
  -1   6   3  852.11   19.20
   1   6  -3  844.12   17.40
  -1   6   3  844.72   18.60
  -1   6   3  849.32   18.90
  -1   6   3  833.52   18.70
   1   6  -3  836.42   18.90
   1   6  -3  828.72   18.70
   1   6  -3  832.22   18.60
   0  -6   3   61.29    5.50
   0  -6   3   50.59    5.50
   0  -6  -3   57.79    5.70
   0  -6  -3   54.69    5.80
   0  -6   3   56.89    4.20
   0  -6  -3   54.89    5.50
   0  -6   3   52.99    5.10
   0  -6  -3   61.99    5.60
   0  -6   3   57.39    5.40
   0  -6  -3   59.09    5.90
   0   6  -3   52.99    5.40
   0   6   3   63.89    5.40
   0   6   3   58.19    5.30
   0   6  -3   63.79    5.40
   0   6   3   60.79    6.10
   0   6  -3   65.09    5.50
   0   6   3   54.99    5.30
   0   6   3   53.09    5.40
   0   6  -3   55.29    5.40
   0   6  -3   59.19    5.80
   0   6  -3   54.19    4.70
   0   6  -3   58.89    3.70
   0   6   3   59.59    6.00
   0   6   3   57.59    5.40
  -1  -6  -3 1155.88   24.40
   1  -6   3 1150.68   23.00
   1  -6   3 1123.29   24.10
  -1  -6  -3 1133.49   23.60
  -1  -6  -3 1160.38   24.30
   1  -6   3 1163.58   23.90
  -1  -6  -3 1108.79   24.20
   1  -6   3 1137.59   24.30
   1  -6   3 1146.89   23.80
   1   6   3 1147.89   24.00
  -1   6  -3 1124.09   23.80
  -1   6  -3 1094.79   23.80
   1   6   3 1110.49   24.60
  -1   6  -3 1160.08   23.80
  -1   6  -3 1129.29   24.00
  -1   6  -3 1122.69   23.30
   1   6   3 1147.09   24.00
  -1   6  -3 1121.59   23.80
  -1   6  -3 1130.29   21.50
   1   6   3 1144.59   24.40
   1   6   3 1126.39   23.60
   1   6   3 1002.00   25.70
  -2  -6  -3   22.10    3.70
   2  -6   3   23.80    3.50
   2  -6   3   19.50    3.70
  -2  -6  -3   18.00    3.50
   2  -6   3   25.50    4.40
  -2  -6  -3   23.00    4.20
  -2  -6  -3   19.50    3.90
   2  -6   3   26.20    4.10
   2  -6   3   16.00    5.40
  -2   6  -3   29.80    4.20
   2   6   3   17.40    3.40
   2   6   3   15.00    3.40
  -2   6  -3   26.00    3.90
  -2   6  -3   17.30    3.90
  -2   6  -3   17.00    3.30
   2   6   3   24.30    4.30
   2   6   3   13.80    3.90
  -2   6  -3   18.40    3.70
   2   6   3   18.70    4.00
  -2   6  -3   19.60    2.10
   2   6   3   13.90    3.40
   2   6   3   20.60    3.80
   3  -6   3  417.76   12.20
  -3  -6  -3  397.06   11.70
   3  -6   3  404.16   11.60
  -3  -6  -3  418.26   12.70
   3  -6   3  407.86   12.40
   3  -6   3  397.66   12.20
  -3  -6  -3  385.06   11.10
   3  -6   3  389.16   11.90
  -3  -6  -3  407.06   12.40
   3   6   3  379.96   12.10
  -3   6  -3  415.26   12.20
  -3   6  -3  400.36    9.10
   3   6   3  428.56   13.00
   3   6   3  420.36   12.20
  -3   6  -3  407.26   12.20
  -3   6  -3  404.06   12.10
   3   6   3  403.76   11.30
   3   6   3  403.76   12.40
   3   6   3  416.36   12.10
  -3   6  -3  411.56   12.20
   3   6   3  391.76   12.60
  -3   6  -3  422.66   12.10
   4  -6   3 1445.86   29.60
  -4  -6  -3 1373.96   29.40
  -4  -6  -3 1394.96   28.20
  -4  -6  -3 1380.36   29.90
   4  -6   3 1450.85   29.70
   4  -6   3 1395.26   29.70
   4  -6   3 1344.37   29.20
  -4  -6  -3 1375.56   29.90
  -4   6  -3 1423.76   29.60
   4   6   3 1398.46   29.60
   4   6   3 1448.16   31.60
  -4   6  -3 1395.16   29.50
  -4   6  -3 1356.26   29.30
  -4   6  -3 1404.66   29.60
   4   6   3 1384.56   29.50
   4   6   3 1378.96   30.20
   4   6   3 1374.86   28.10
  -4   6  -3 1380.46   29.40
   4   6   3 1414.46   30.00
  -4   6  -3 1389.56   26.40
   4   6   3 1358.46   28.50
  -5  -6  -3   53.89    5.00
  -5  -6  -3   45.80    5.80
  -5  -6  -3   55.09    6.30
   5  -6   3   53.79    6.00
   5  -6   3   48.40    5.90
   5  -6   3   42.60    6.80
  -5  -6  -3   44.00    6.00
  -5  -6  -3   37.20    5.50
   5  -6   3   38.50    6.10
  -5   6  -3   49.20    5.90
  -5   6  -3   35.70    5.60
  -5   6  -3   35.40    5.10
   5   6   3   46.80    6.00
   5   6   3   48.00    6.60
  -5   6  -3   48.70    4.60
  -5   6  -3   54.29    5.90
   5   6   3   50.99    5.00
   5   6   3   53.79    6.50
   5   6   3   54.39    5.90
   5   6   3   49.50    5.80
  -5   6  -3   48.30    6.30
   6  -6   3   95.69    8.10
  -6  -6  -3  105.99    8.00
   6  -6   3  105.29   10.30
  -6  -6  -3  105.69   10.00
   6  -6   3   95.69    9.90
  -6  -6  -3   96.59   10.00
   6  -6   3  102.59   10.30
  -6  -6  -3  119.89   10.10
  -6   6  -3  109.09    9.10
   6   6   3  129.79   11.30
   6   6   3  119.79   11.50
   6   6   3  125.19    9.30
  -6   6  -3  114.49   10.60
  -6   6  -3  116.29    9.50
   6   6   3  100.29    9.40
   6   6   3  109.39    9.90
  -6   6  -3  116.69   10.80
   6   6   3   98.09    8.50
  -6   6  -3  112.79    6.40
   7  -6   3  153.78   12.40
  -7  -6  -3  126.29   10.60
   7  -6   3  152.18   13.60
   7  -6   3  140.39   12.90
  -7  -6  -3  151.88    9.10
  -7  -6  -3  145.39   11.80
  -7  -6  -3  159.18   12.30
  -7   6  -3  142.29   12.60
   7   6   3  156.98   11.50
  -7   6  -3  139.29   11.10
  -7   6  -3  145.09   12.40
   7   6   3  152.98   11.50
   7   6   3  153.08   11.80
  -7   6  -3  147.69    7.90
   7   6   3  139.19   14.00
   7   6   3  128.39   10.80
  -8  -6  -3   36.10    8.10
   8  -6   3   53.39    9.40
   8  -6   3   40.20    8.70
  -8  -6  -3   32.90    8.00
  -8  -6  -3   56.99    6.50
  -8   6  -3   38.80    7.90
   8   6   3   47.40    8.30
   8   6   3   44.80   10.30
  -8   6  -3   43.90    5.70
   8   6   3   50.29    8.00
  -8   6  -3   37.40    7.50
   8   6   3   55.49    8.40
  -9  -6  -3  237.08   12.90
  -9  -6  -3  253.97   18.00
   9  -6   3  233.18   18.60
  -9  -6  -3  242.08   17.70
   9  -6   3  238.98   13.10
   9  -6   3  239.88   21.10
   9   6   3  258.87   16.80
  -9   6  -3  271.47   17.40
   9   6   3  236.28   16.60
  -9   6  -3  232.18   16.80
  -9   6  -3  214.48   12.20
 -10  -6  -3    7.30   11.50
  10  -6   3    2.50    8.00
 -10  -6  -3    1.10   11.50
  10  -6   3   24.20   12.70
 -10  -6  -3   -3.90    8.30
 -10   6  -3   -4.90   10.10
  10   6   3   25.40   11.10
  10   6   3   -2.60   10.10
 -10   6  -3    0.60    7.90
 -10   6  -3   -7.00   10.90
 -11  -7   3   75.19   12.10
 -11  -7   3   58.59   11.70
 -11  -7   3   56.99   11.80
  11   7  -3   66.29   12.30
 -11   7   3   61.09   11.00
 -11   7   3   52.39   11.60
 -11   7   3   81.59   14.90
 -10  -7   3   30.10    9.20
 -10  -7   3   29.50    9.20
 -10  -7   3   26.10    9.30
 -10  -7   3   25.30    9.20
 -10   7   3   24.20    8.20
 -10   7   3   26.00    9.10
  10   7  -3   32.80    9.20
 -10   7   3   15.10    9.90
 -10   7   3   34.10    8.80
   9  -7  -3   18.70    7.10
  -9  -7   3   28.40    8.50
  -9  -7   3   41.50    8.30
  -9  -7   3   30.80    7.80
  -9  -7   3   49.10    8.20
  -9  -7   3   41.10    8.10
  -9   7   3   29.50    7.30
   9   7  -3   26.10    8.10
  -9   7   3   39.20    7.60
   9   7  -3   30.90    7.60
  -9   7   3   40.60    7.50
  -9   7   3   46.80    8.00
  -9   7   3   39.30   10.50
  -9   7   3   49.10    9.90
  -9   7   3   48.70    9.70
   8  -7  -3   30.90    6.50
  -8  -7   3   20.20    6.60
  -8  -7   3   18.00    6.50
  -8  -7   3   31.50    7.10
   8  -7  -3   25.00    5.20
  -8  -7   3   23.30    7.20
  -8  -7   3   25.40    6.70
  -8   7   3   25.20    7.70
  -8   7   3   26.00    6.60
  -8   7   3   20.10    7.40
  -8   7   3   17.20    6.40
   8   7  -3   21.10    6.40
  -8   7   3   35.60    5.80
  -8   7   3   27.20    6.80
   8   7  -3   27.60    6.50
  -8   7   3    9.70    8.10
   7  -7  -3  291.37   10.90
  -7  -7   3  328.17   13.30
   7  -7  -3  296.67   11.40
   7  -7  -3  273.77   13.60
  -7  -7   3  282.87   13.10
  -7  -7   3  303.07   12.90
  -7  -7   3  312.47   13.10
  -7   7   3  307.27   12.10
  -7   7   3  306.27   12.80
   7   7  -3  301.77   12.60
   7   7  -3  286.97   13.00
  -7   7   3  300.27   13.50
  -7   7   3  304.17   14.60
   7   7  -3  295.17   12.40
  -7   7   3  281.57   10.30
  -7   7   3  309.17   12.80
  -7   7   3  304.87   14.30
  -6  -7   3  224.68   11.30
  -6  -7   3  241.68   11.30
   6  -7  -3  245.88    9.40
   6  -7  -3  235.98   11.60
  -6  -7   3  238.08   10.90
  -6  -7   3  240.28   11.70
   6  -7  -3  232.38   12.60
   6  -7  -3  257.97    9.80
  -6   7   3  250.07   11.90
  -6   7   3  249.08   10.90
   6   7  -3  234.88   11.60
   6   7  -3  242.58   10.80
  -6   7   3  249.38   11.10
  -6   7   3  242.28   13.10
   6   7  -3  238.78   12.60
  -6   7   3  244.98   10.60
   6   7  -3  236.08   10.60
   6   7  -3  227.68   10.30
  -6   7   3  231.78   11.80
   6   7  -3  218.28   11.70
  -6   7   3  264.47   12.00
  -5  -7   3   52.79    6.20
  -5  -7   3   53.59    5.90
   5  -7  -3   27.60    4.80
   5  -7  -3   55.79    5.50
  -5  -7   3   39.30    6.00
  -5  -7   3   36.00    6.10
   5  -7  -3   51.69    4.60
   5   7  -3   38.70    5.00
  -5   7   3   39.90    6.50
   5   7  -3   45.00    6.40
  -5   7   3   39.10    5.50
  -5   7   3   42.60    6.00
   5   7  -3   44.00    6.00
   5   7  -3   43.70    5.30
  -5   7   3   36.90    5.10
  -5   7   3   39.90    5.90
   5   7  -3   50.29    5.30
  -5   7   3   43.60    6.20
  -4  -7   3  235.48   10.00
   4  -7  -3  236.08    7.30
  -4  -7   3  213.48    9.50
  -4  -7   3  240.38    9.90
  -4  -7   3  214.48   10.30
   4  -7  -3  218.88    9.60
   4  -7  -3  225.78    9.20
   4  -7  -3  217.38    9.90
  -4   7   3  236.58   10.20
   4   7  -3  225.08    8.60
  -4   7   3  228.38   10.80
  -4   7   3  223.58   10.10
  -4   7   3  214.88   10.00
  -4   7   3  226.58    9.50
   4   7  -3  242.58    9.60
   4   7  -3  211.38    9.90
  -4   7   3  217.68    9.50
   4   7  -3  224.38    9.40
   3  -7  -3  231.08    9.70
  -3  -7   3  227.58   10.20
   3  -7  -3  233.88    9.40
   3  -7  -3  229.38    6.90
  -3  -7   3  224.28    9.90
  -3  -7   3  221.08    9.30
   3  -7  -3  227.18    9.30
  -3  -7   3  221.78    9.30
  -3   7   3  227.48    9.20
  -3   7   3  240.38    9.80
  -3   7   3  228.18    9.30
  -3   7   3  243.88    9.90
   3   7  -3  240.68    8.20
   3   7  -3  231.98    6.50
   3   7  -3  227.68    9.00
   3   7  -3  233.08    9.40
  -3   7   3  233.58   10.00
   3   7  -3  217.88    9.40
  -3   7   3  236.58   10.10
  -2  -7   3  611.04   16.00
  -2  -7   3  633.24   16.40
   2  -7  -3  625.94   16.00
   2  -7  -3  623.74   15.90
  -2  -7   3  632.54   16.40
  -2  -7   3  643.74   16.20
  -2  -7   3  606.54   13.30
  -2  -7   3  630.24   15.90
   2  -7  -3  629.64   13.30
  -2  -7   3  620.74   17.10
   2  -7  -3  645.84   16.30
   2   7  -3  638.44   14.50
   2   7  -3  617.04   13.70
  -2   7   3  653.03   16.20
  -2   7   3  633.14   16.10
   2   7  -3  635.74   16.10
  -2   7   3  618.74   16.30
   2   7  -3  654.33   15.90
  -2   7   3  640.24   15.90
   2   7  -3  652.63   16.00
  -2   7   3  652.23   16.20
  -2   7   3  642.34   16.70
   1  -7  -3  256.47    9.80
  -1  -7   3  252.97    9.80
  -1  -7   3  269.07    7.70
   1  -7  -3  268.87    9.70
   1  -7  -3  262.97    7.20
   1  -7  -3  270.87   10.20
  -1  -7   3  266.87   10.10
   1  -7  -3  257.87   10.00
  -1  -7   3  265.87    9.70
  -1  -7   3  249.78    9.50
   1  -7  -3  263.17    9.60
  -1  -7   3  262.27    9.60
  -1   7   3  261.17   10.30
   1   7  -3  255.87    9.70
  -1   7   3  252.47    9.60
   1   7  -3  264.17    9.50
  -1   7   3  252.97    9.50
   1   7  -3  256.07    9.40
   1   7  -3  259.77    8.10
  -1   7   3  266.07    9.60
   1   7  -3  259.27    7.70
  -1   7   3  256.57    9.60
  -1   7   3  256.27   10.20
   0  -7  -3   39.80    5.00
   0  -7   3   55.69    5.20
   0  -7   3   50.69    5.10
   0  -7  -3   41.10    4.90
   0  -7  -3   49.30    4.40
   0  -7   3   43.80    4.70
   0  -7   3   57.19    5.60
   0  -7  -3   47.80    5.20
   0  -7   3   51.59    5.20
   0  -7  -3   48.10    5.10
   0   7  -3   49.30    5.20
   0   7   3   43.90    5.40
   0   7  -3   42.90    4.20
   0   7  -3   37.30    4.70
   0   7   3   49.80    5.50
   0   7  -3   48.50    4.40
   0   7   3   63.09    5.50
   0   7   3   54.79    5.60
   0   7  -3   56.49    5.10
   0   7  -3   50.69    5.00
   0   7   3   43.30    4.70
   0   7   3   50.89    5.20
   0   7   3   42.00    4.60
  -1  -7  -3  588.74   16.20
  -1  -7  -3  603.14   16.20
   1  -7   3  603.84   15.80
   1  -7   3  628.24   15.80
   1  -7   3  626.04   15.60
   1  -7   3  613.64   16.30
  -1  -7  -3  627.24   15.70
  -1  -7  -3  603.24   16.20
   1  -7   3  579.54   14.30
   1   7   3  609.84   15.70
   1   7   3  604.04   15.70
  -1   7  -3  602.64   15.60
  -1   7  -3  608.34   15.70
   1   7   3  618.84   15.30
  -1   7  -3  593.34   16.00
   1   7   3  613.34   16.40
   1   7   3  624.44   16.50
  -1   7  -3  628.94   15.10
  -1   7  -3  599.84   13.10
  -1   7  -3  605.84   15.80
   1   7   3  611.34   16.50
   1   7   3  592.74   15.10
  -2  -7  -3  290.87   11.20
   2  -7   3  300.57   10.90
  -2  -7  -3  306.17   11.30
  -2  -7  -3  282.67   10.10
   2  -7   3  286.57    9.70
   2  -7   3  297.47   10.50
   2  -7   3  277.87   10.50
   2  -7   3  273.97   11.10
  -2   7  -3  277.07   11.10
  -2   7  -3  296.57   10.60
  -2   7  -3  279.27    7.40
   2   7   3  278.07   11.60
  -2   7  -3  288.77   10.30
  -2   7  -3  283.77   10.60
   2   7   3  274.97   11.20
   2   7   3  291.27   10.60
   2   7   3  282.47   10.90
   2   7   3  281.17   10.40
   2   7   3  285.27    9.90
   2   7   3  298.17    9.80
  -2   7  -3  287.27   11.00
   2   7   3  284.67   11.60
  -3  -7  -3  354.76   12.70
  -3  -7  -3  353.96   12.60
   3  -7   3  335.87   11.50
  -3  -7  -3  352.06   11.30
   3  -7   3  344.57   12.40
   3  -7   3  351.26   12.50
   3  -7   3  357.16   12.40
   3  -7   3  352.46   12.00
  -3  -7  -3  333.47   11.60
   3   7   3  344.17   11.00
   3   7   3  352.06   12.20
  -3   7  -3  339.67    8.50
   3   7   3  347.97   11.10
   3   7   3  359.96   12.90
  -3   7  -3  343.27   12.50
   3   7   3  357.46   12.10
  -3   7  -3  340.17   11.90
  -3   7  -3  344.27   11.90
   3   7   3  362.46   13.30
   4  -7   3   75.29    6.90
   4  -7   3   59.69    6.60
  -4  -7  -3   73.19    7.10
  -4  -7  -3   74.39    6.70
  -4  -7  -3   73.29    7.40
  -4  -7  -3   59.79    6.80
  -4  -7  -3   55.39    6.30
   4  -7   3   77.89    7.10
  -4   7  -3   41.00    5.70
   4   7   3   72.29    7.20
  -4   7  -3   54.59    5.90
   4   7   3   61.59    6.30
  -4   7  -3   81.49    8.30
  -4   7  -3   69.39    4.90
   4   7   3   52.29    6.40
   4   7   3   54.29    7.00
   4   7   3   71.19    7.10
   4   7   3   63.39    5.80
   4   7   3   58.39    7.10
  -4   7  -3   60.59    6.70
  -5  -7  -3   23.50    6.20
  -5  -7  -3   12.10    6.40
   5  -7   3   14.80    5.90
   5  -7   3   19.60    6.50
  -5  -7  -3   22.70    6.10
  -5  -7  -3   -0.10    5.90
   5  -7   3   14.90    6.10
  -5  -7  -3   17.50    5.00
   5  -7   3   10.20    5.90
  -5   7  -3   16.00    6.60
   5   7   3   18.50    7.00
   5   7   3   21.30    5.30
  -5   7  -3   24.00    6.30
  -5   7  -3   21.90    6.60
  -5   7  -3   26.00    5.50
   5   7   3   21.20    5.60
  -5   7  -3   10.10    6.30
  -5   7  -3   20.00    3.50
   5   7   3   13.70    5.40
   5   7   3   31.80    5.20
   5   7   3   22.50    6.40
   5   7   3   22.50    9.10
   5   7   3   20.10    6.50
  -5   7  -3   20.00    5.60
  -6  -7  -3  410.16   15.90
  -6  -7  -3  409.76   17.70
   6  -7   3  441.36   17.00
  -6  -7  -3  422.96   13.40
   6  -7   3  410.36   17.40
  -6  -7  -3  426.36   16.10
   6  -7   3  457.45   16.40
  -6   7  -3  400.66   11.20
  -6   7  -3  397.26   15.40
   6   7   3  406.06   18.00
   6   7   3  428.86   16.10
  -6   7  -3  376.06   16.90
   6   7   3  373.76   17.70
  -6   7  -3  394.76   16.20
   6   7   3  423.26   15.70
   6   7   3  421.06   15.60
   6   7   3  410.36   13.60
  -7  -7  -3  130.79   13.20
  -7  -7  -3  102.89    9.70
  -7  -7  -3   99.49    7.90
   7  -7   3   95.09    9.80
   7  -7   3   86.49   10.40
   7   7   3  109.69    9.30
  -7   7  -3  113.09    8.20
   7   7   3  118.59   12.40
   7   7   3  117.59   10.60
  -7   7  -3  110.09    9.60
   7   7   3  108.79   11.80
  -7   7  -3  112.99    9.90
   8  -7   3   40.20   12.30
  -8  -7  -3   10.40   15.60
  -8  -7  -3   44.50    7.60
   8  -7   3   45.70    9.80
  -8  -7  -3   36.40    9.20
   8   7   3   44.60    9.50
   8   7   3   51.49   10.10
  -8   7  -3   36.00    9.10
  -8   7  -3   46.20    6.30
   8   7   3   38.30    7.60
   8   7   3   57.29    9.70
  -8   7  -3   23.80    8.30
   9  -7   3   16.00   11.40
  -9  -7  -3   14.00    8.30
  -9  -7  -3   11.40   11.00
  -9  -7  -3   17.10   10.90
  -9   7  -3  -24.30    9.30
   9   7   3   11.80   11.30
  -9   7  -3   15.00   10.00
   9   7   3    6.50    9.80
   9   7   3    7.20    9.80
   9   7   3   16.20    8.30
 -10  -8   3   54.29   11.60
 -10  -8   3   54.49   12.10
 -10   8   3   54.99   14.60
 -10   8   3   68.79   12.00
 -10   8   3   73.99   17.00
 -10   8   3   51.99   10.60
  10   8  -3   56.39   11.20
  -9  -8   3   96.39   10.60
  -9  -8   3   81.09   10.70
  -9  -8   3   66.49   10.70
  -9   8   3   57.59   10.30
   9   8  -3   66.69    9.70
  -9   8   3   86.39   11.90
  -9   8   3   62.89    9.80
  -9   8   3   59.69    9.30
   8  -8  -3   72.09    8.20
  -8  -8   3   74.49    9.00
  -8  -8   3   74.79    9.50
  -8  -8   3   76.79    9.50
   8  -8  -3   88.89    8.50
   8   8  -3   70.99    9.00
  -8   8   3   91.49   10.90
  -8   8   3   82.09   10.90
  -8   8   3   68.19    8.40
   8   8  -3   82.09    9.10
  -8   8   3   66.79    8.90
  -8   8   3   81.39    9.10
  -7  -8   3   17.10    6.80
   7  -8  -3   12.50    6.40
   7  -8  -3   26.30    6.00
  -7  -8   3    7.00    6.80
  -7  -8   3    9.90    6.60
  -7   8   3   12.90    6.60
  -7   8   3   16.40    6.40
  -7   8   3   12.30    6.10
  -7   8   3   12.10    7.40
   7   8  -3   11.60    6.30
  -7   8   3    7.10    7.80
   7   8  -3    9.80    6.10
  -7   8   3   19.50    8.00
  -6  -8   3   19.10    6.30
  -6  -8   3   15.30    6.20
  -6  -8   3   12.10    6.20
   6  -8  -3   12.80    5.90
  -6  -8   3   -3.20    7.10
   6  -8  -3   16.20    4.90
  -6   8   3   13.70    5.60
   6   8  -3   13.90    6.60
  -6   8   3   26.50    6.00
   6   8  -3   10.30    5.60
  -6   8   3   14.60    7.00
  -6   8   3   12.10    5.80
   6   8  -3   17.50    5.90
  -6   8   3   18.70    7.20
  -6   8   3    9.20    6.60
  -5  -8   3   43.30    6.30
  -5  -8   3   39.40    6.40
   5  -8  -3   44.80    6.80
   5  -8  -3   43.50    5.00
   5  -8  -3   36.70    6.20
  -5  -8   3   36.20    7.40
  -5  -8   3   44.70    6.60
  -5   8   3   45.70    6.90
   5   8  -3   29.80    5.90
   5   8  -3   35.20    7.70
   5   8  -3   47.30    6.20
   5   8  -3   46.90    6.10
  -5   8   3   56.99    7.60
  -5   8   3   47.20    6.40
  -5   8   3   41.10    7.30
  -5   8   3   42.40    6.80
   4  -8  -3   40.80    5.50
  -4  -8   3   59.49    8.00
   4  -8  -3   68.29    6.60
   4  -8  -3   63.89    7.20
   4  -8  -3   59.89    6.60
  -4  -8   3   57.19    6.10
  -4  -8   3   53.59    6.30
  -4  -8   3   63.29    8.10
   4  -8  -3   58.99    6.10
  -4   8   3   75.99    6.90
   4   8  -3   66.89    4.20
  -4   8   3   57.39    6.90
   4   8  -3   40.60    6.60
   4   8  -3   63.39    6.60
   4   8  -3   69.59    6.70
   4   8  -3   50.49    8.00
  -4   8   3   53.09    6.90
  -4   8   3   65.49    6.80
   4   8  -3   79.49    6.20
   4   8  -3   58.19    7.00
  -4   8   3   76.39    7.40
   3  -8  -3  125.69    9.30
   3  -8  -3  116.19    9.20
  -3  -8   3  122.69    9.30
  -3  -8   3  120.49   10.70
   3  -8  -3  120.89    6.20
   3  -8  -3  123.79    9.80
  -3  -8   3  126.29    9.30
  -3  -8   3  122.49    9.10
  -3   8   3  122.69   10.40
  -3   8   3  120.49   10.30
  -3   8   3  122.89   10.50
  -3   8   3  115.89    9.90
   3   8  -3  123.49    9.80
   3   8  -3  119.89    5.80
   3   8  -3  118.49    7.50
   3   8  -3  122.59    8.90
   3   8  -3  128.09    9.20
  -3   8   3  128.89    8.90
  -3   8   3  118.29    8.90
  -2  -8   3  202.08   10.00
   2  -8  -3  202.18   10.20
  -2  -8   3  206.28   10.40
  -2  -8   3  197.18   10.30
   2  -8  -3  196.28   10.20
  -2  -8   3  198.88    7.10
  -2  -8   3  218.78   10.70
  -2  -8   3  208.78   11.60
   2  -8  -3  202.68    7.00
   2   8  -3  192.58    8.20
   2   8  -3  207.28   10.00
   2   8  -3  202.48    7.50
  -2   8   3  205.78   10.30
  -2   8   3  194.88   10.80
  -2   8   3  210.38   10.30
  -2   8   3  200.68   11.10
  -2   8   3  188.68   10.70
   2   8  -3  208.48   10.90
   2   8  -3  187.88    9.90
   1  -8  -3   87.59    8.50
  -1  -8   3   66.59    6.20
  -1  -8   3   75.09    5.80
   1  -8  -3   64.79    6.30
  -1  -8   3   68.79    7.90
  -1  -8   3   80.49    6.70
   1  -8  -3   69.39    5.30
  -1  -8   3   82.89    8.70
  -1  -8   3   57.69    8.70
   1  -8  -3   88.69    7.40
  -1  -8   3   81.29    8.00
   1   8  -3   84.29    6.60
  -1   8   3   66.39    6.10
   1   8  -3   77.29    7.10
   1   8  -3   66.39    6.10
   1   8  -3   82.29    8.00
  -1   8   3   87.29    7.60
   1   8  -3   70.89    6.20
  -1   8   3   88.69    8.20
  -1   8   3   74.39    7.50
  -1   8   3   67.59    6.20
  -1   8   3   73.99    6.50
   0  -8  -3   11.10    4.90
   0  -8  -3    7.40    4.50
   0  -8   3   14.90    4.40
   0  -8   3   19.40    5.10
   0  -8  -3   14.30    5.30
   0  -8   3   10.10    3.70
   0  -8   3    9.60    5.80
   0  -8  -3   15.20    3.40
   0  -8   3    3.40    4.10
   0   8  -3   12.30    4.80
   0   8   3   16.00    4.50
   0   8  -3    8.20    4.70
   0   8   3   16.70    4.80
   0   8   3   13.10    5.20
   0   8   3    9.30    4.80
   0   8   3   12.10    7.60
   0   8  -3   14.10    4.40
   0   8   3    9.50    4.40
   0   8  -3    9.30    4.10
   0   8  -3   13.10    3.40
  -1  -8  -3   39.90    5.80
  -1  -8  -3   31.90    6.30
  -1  -8  -3   27.60    5.20
  -1  -8  -3   28.00    5.40
   1  -8   3   24.50    5.00
   1  -8   3   35.50    4.70
   1  -8   3   29.10    5.20
   1  -8   3   31.60    5.80
   1   8   3   43.70    6.90
  -1   8  -3   39.00    5.30
   1   8   3   30.00    5.30
  -1   8  -3   37.30    6.10
   1   8   3   36.40    5.70
  -1   8  -3   40.20    5.60
  -1   8  -3   34.00    3.70
  -1   8  -3   37.70    5.50
   1   8   3   37.90    5.40
  -1   8  -3   39.60    6.70
   1   8   3   22.50    6.10
   2  -8   3   28.40    5.60
   2  -8   3   34.30    6.20
  -2  -8  -3   20.80    5.40
  -2  -8  -3   24.80    5.70
   2  -8   3   30.10    5.90
  -2  -8  -3   28.10    5.50
   2  -8   3   26.50    5.00
   2  -8   3   18.20    5.60
  -2   8  -3   25.30    5.60
   2   8   3   26.50    5.90
   2   8   3   26.00    6.10
  -2   8  -3   21.40    5.60
   2   8   3   25.90    6.70
  -2   8  -3   18.40    6.10
  -2   8  -3   19.60    5.20
   2   8   3   31.50    5.60
   2   8   3   22.10    5.10
   2   8   3   29.50    6.00
  -2   8  -3   26.20    3.50
  -2   8  -3   18.70    5.80
   2   8   3   26.30    5.50
   2   8   3   28.80    5.20
  -3  -8  -3   53.09    7.00
  -3  -8  -3   55.39    6.50
   3  -8   3   66.69    7.20
  -3  -8  -3   49.99    7.90
   3  -8   3   40.40    6.30
  -3  -8  -3   56.39    6.20
  -3  -8  -3   54.49    7.00
   3  -8   3   55.39   11.40
   3  -8   3   59.19    7.00
   3   8   3   44.10    6.70
  -3   8  -3   52.79    4.90
  -3   8  -3   46.40    7.40
   3   8   3   57.19    6.40
   3   8   3   55.49    6.20
   3   8   3   52.19    7.70
   3   8   3   52.59    7.50
   3   8   3   54.39    5.90
  -3   8  -3   59.09    7.60
   3   8   3   42.90    6.30
   3   8   3   48.70    6.30
  -3   8  -3   56.49    6.80
  -3   8  -3   53.59    7.60
  -3   8  -3   70.39    7.10
  -4  -8  -3   41.70    7.70
   4  -8   3   32.40    6.50
  -4  -8  -3   31.30    6.60
   4  -8   3   20.00    6.90
   4  -8   3   29.20    6.90
  -4  -8  -3   26.20    5.70
   4  -8   3   37.30    7.30
  -4  -8  -3   27.50    6.50
   4   8   3   35.80    8.20
   4   8   3   36.30    5.70
  -4   8  -3   33.70    3.90
  -4   8  -3   26.90    6.10
  -4   8  -3   35.30    6.40
   4   8   3   32.10    6.20
   4   8   3   21.60    6.20
   4   8   3   33.80    6.40
   4   8   3   39.60    8.10
   4   8   3   26.60    6.20
  -4   8  -3   17.80    7.10
   5  -8   3   27.70    7.10
  -5  -8  -3   35.60    6.40
   5  -8   3   29.00    7.70
  -5  -8  -3   22.30    7.30
  -5  -8  -3   22.10    6.70
   5  -8   3   24.90    8.50
  -5   8  -3   19.40    4.10
   5   8   3   22.30    6.90
   5   8   3   16.40    6.70
   5   8   3   18.50    5.80
   5   8   3   -1.30    7.90
  -5   8  -3   30.20    6.90
  -5   8  -3   27.80    7.10
   5   8   3    2.90    6.50
  -6  -8  -3   -2.90    6.80
   6  -8   3    3.80    7.60
  -6  -8  -3   -2.00    7.50
  -6  -8  -3    3.90    8.70
   6  -8   3   11.30    8.70
  -6  -8  -3    2.00    5.90
   6   8   3    4.30    9.40
  -6   8  -3    7.70    4.30
  -6   8  -3   12.40    7.50
   6   8   3    2.80    6.20
  -6   8  -3   -5.40    6.80
   6   8   3   -7.00    7.40
   6   8   3   -2.20    7.50
   6   8   3    3.80    7.70
  -7  -8  -3    8.80    9.00
   7  -8   3    4.10    9.10
   7  -8   3    9.20   11.90
  -7  -8  -3   14.20    7.10
  -7   8  -3   12.00    8.60
   7   8   3   22.70    8.80
  -7   8  -3   14.90    8.80
   7   8   3   36.50   10.10
   7   8   3   13.30    8.90
  -7   8  -3   11.10    5.60
   7   8   3   22.40    7.30
   8  -8   3   31.30   11.90
  -8  -8  -3   39.80    9.00
  -8  -8  -3   39.00   12.00
  -8  -8  -3   21.20   11.50
   8   8   3   26.70   10.30
   8   8   3   37.40    8.70
  -8   8  -3   47.10   10.30
   8   8   3   34.90   10.90
   8   8   3   37.00   12.40
  -9  -9   3   24.30   11.60
  -9  -9   3   10.80   11.20
   9   9  -3    7.30   11.90
  -9   9   3    5.40    9.90
  -9   9   3    9.70   11.30
   8  -9  -3   43.00   10.70
  -8  -9   3   53.09   11.00
  -8  -9   3   22.90   10.10
  -8  -9   3   38.40   10.40
  -8   9   3   41.40   10.10
   8   9  -3   36.60    9.40
  -8   9   3   52.39   11.20
  -8   9   3   52.39    9.70
  -8   9   3   37.60    9.60
  -7  -9   3    2.10    7.80
  -7  -9   3   -4.90    8.30
  -7  -9   3   11.60    8.80
   7  -9  -3   -0.90    8.10
   7  -9  -3    6.60    7.10
  -7   9   3   13.40    7.50
   7   9  -3   -6.30    8.90
  -7   9   3    0.70    8.80
  -7   9   3   12.20    8.30
  -7   9   3    1.40    7.50
   7   9  -3   -1.30    7.60
  -6  -9   3   32.50    8.20
  -6  -9   3   40.20    7.90
   6  -9  -3   33.10    6.40
  -6  -9   3   32.30    8.50
   6  -9  -3   24.00    8.30
  -6   9   3   18.40    8.30
  -6   9   3   31.90    8.10
  -6   9   3   34.50    7.40
   6   9  -3   29.80    7.40
  -6   9   3   25.90    7.90
   6   9  -3   30.90    7.90
  -6   9   3   37.30    7.90
  -5  -9   3  218.08   13.40
   5  -9  -3  175.18   13.60
   5  -9  -3  228.88    9.90
  -5  -9   3  201.28   13.50
  -5  -9   3  196.48   13.80
   5   9  -3  216.48   13.00
   5   9  -3  211.28   13.20
  -5   9   3  199.18   15.00
  -5   9   3  211.58   16.50
  -5   9   3  223.38   14.10
   5   9  -3  188.38   12.80
  -5   9   3  201.38   13.40
  -5   9   3  207.08   13.00
   4  -9  -3    0.60    4.30
  -4  -9   3    1.10    5.60
  -4  -9   3   -3.70    5.60
  -4  -9   3    4.50    6.30
   4  -9  -3    6.20    6.90
   4   9  -3    0.80    5.80
  -4   9   3   12.20    6.40
   4   9  -3    3.70    6.00
   4   9  -3    1.00    5.40
   4   9  -3    0.10    3.30
  -4   9   3    1.70    8.00
  -4   9   3    8.30    6.90
  -4   9   3   -4.20    6.60
  -4   9   3    2.50    5.70
   3  -9  -3   63.79    8.50
   3  -9  -3   65.59    5.20
  -3  -9   3   73.09    7.90
  -3  -9   3   66.29    7.80
   3  -9  -3   73.09    8.70
  -3  -9   3   65.59    8.00
  -3  -9   3   55.99    6.70
   3   9  -3   59.99    7.30
  -3   9   3   80.39    9.60
  -3   9   3   58.29    8.40
   3   9  -3   63.19    7.30
  -3   9   3   70.19    7.60
   3   9  -3   69.29    6.50
   3   9  -3   63.79    6.30
  -3   9   3   60.89    7.20
  -3   9   3   60.99    7.20
  -2  -9   3  117.09   10.40
  -2  -9   3  100.29    8.70
   2  -9  -3  102.49    9.20
   2  -9  -3  103.69    6.80
   2  -9  -3  120.79   11.40
  -2  -9   3  107.99   10.60
   2  -9  -3  121.49   11.50
  -2  -9   3   99.09    8.60
  -2  -9   3  111.29   10.50
  -2  -9   3  116.19    9.40
  -2   9   3   91.19    8.00
  -2   9   3  101.79    9.10
   2   9  -3  101.69   10.20
  -2   9   3  121.19   10.00
  -2   9   3  103.99   11.80
  -2   9   3   97.29    9.60
  -2   9   3  105.09   10.30
   2   9  -3  103.89    7.60
   2   9  -3  101.39    8.40
   2   9  -3  111.99   10.60
   1  -9  -3  112.79    6.90
  -1  -9   3  109.39   10.50
  -1  -9   3  112.79    7.80
   1  -9  -3  115.09   10.70
   1  -9  -3   80.59    8.10
  -1  -9   3  124.49   10.90
   1  -9  -3  118.79   11.90
   1  -9  -3  116.69   10.80
  -1  -9   3  114.49   10.80
  -1  -9   3  121.29   10.40
  -1  -9   3  117.19   12.00
   1   9  -3  128.49   10.30
   1   9  -3  104.29    9.60
  -1   9   3  114.59   10.10
  -1   9   3  125.49   13.10
  -1   9   3  111.69   10.70
   1   9  -3  104.89   10.40
   1   9  -3  106.29    8.20
   1   9  -3  119.09    7.80
  -1   9   3  114.69   10.10
  -1   9   3  100.69    8.70
  -1   9   3  115.69    9.90
   0  -9  -3  367.66   14.50
   0  -9   3  368.46   14.60
   0  -9  -3  381.36   14.70
   0  -9  -3  366.76   10.70
   0  -9  -3  376.66   14.60
   0  -9   3  343.47   11.80
   0  -9   3  367.06   13.80
   0  -9   3  357.16   15.10
   0   9   3  351.86   16.60
   0   9  -3  355.66   15.40
   0   9   3  349.37   14.00
   0   9  -3  361.16   14.30
   0   9   3  350.56   14.90
   0   9  -3  361.86   14.40
   0   9   3  278.67   16.10
   0   9  -3  340.17   11.20
   0   9  -3  355.56   12.50
   0   9   3  348.67   15.70
   0   9   3  375.96   14.60
  -1  -9  -3   13.10    4.40
  -1  -9  -3   19.70    6.20
   1  -9   3    7.00    6.30
   1  -9   3   13.40    5.40
   1  -9   3    3.90    5.60
  -1  -9  -3   14.00    7.20
   1  -9   3   16.30    6.40
   1   9   3   -4.50    7.80
  -1   9  -3    9.20    6.00
   1   9   3    9.30    5.80
   1   9   3   17.20    7.00
  -1   9  -3   16.20    4.20
  -1   9  -3   18.10   11.00
   1   9   3   10.10    9.70
   1   9   3    2.40    7.20
  -1   9  -3    7.00    5.50
  -1   9  -3   14.40    6.10
   1   9   3   18.40    6.60
   2  -9   3   10.00    6.70
  -2  -9  -3   -0.80    5.50
  -2  -9  -3    9.30    6.30
   2  -9   3    2.40    5.90
   2  -9   3    7.70    6.80
  -2  -9  -3    8.00    7.30
   2  -9   3   12.80    5.80
   2  -9   3    9.30    6.40
   2   9   3   11.10    8.40
   2   9   3   -4.20    5.60
  -2   9  -3   -6.10    5.50
  -2   9  -3    3.60    5.60
  -2   9  -3    8.80    4.20
   2   9   3   -5.70    6.60
   2   9   3    4.80    6.50
  -2   9  -3   -5.80    5.90
   2   9   3   14.10    7.20
   3  -9   3  100.19    9.90
  -3  -9  -3  126.89   12.50
  -3  -9  -3  124.29   11.70
   3  -9   3  101.19    9.70
  -3  -9  -3  119.89   12.60
   3  -9   3  118.59   11.30
  -3  -9  -3  130.29   11.90
   3  -9   3  119.99   12.10
   3   9   3  126.29   12.10
  -3   9  -3  156.28   12.20
   3   9   3  132.69   11.80
  -3   9  -3  106.89    7.50
  -3   9  -3  114.69    6.90
   3   9   3  114.99    9.40
   3   9   3  102.29   10.70
   3   9   3  119.29   12.40
  -4  -9  -3   38.40    7.40
   4  -9   3   41.50    8.10
  -4  -9  -3   51.99    9.00
  -4  -9  -3   46.10    8.50
   4  -9   3   38.30    8.80
  -4   9  -3   44.20    8.20
   4   9   3   43.80    7.90
  -4   9  -3   48.30    8.60
   4   9   3   27.50    7.50
   4   9   3   28.60    8.40
  -4   9  -3   39.80    4.90
   4   9   3   43.60    7.10
   4   9   3   58.99   10.40
   4   9   3   38.10    8.00
  -5  -9  -3  127.59   12.10
   5  -9   3  148.69   14.90
  -5  -9  -3  155.48   15.40
  -5  -9  -3  160.48   16.40
  -5  -9  -3  145.79   13.40
   5  -9   3  142.69   12.80
   5   9   3  155.28   14.30
   5   9   3  144.19   14.50
  -5   9  -3  169.98   15.80
   5   9   3  119.29   13.60
   5   9   3  154.48   12.00
  -5   9  -3  142.69    8.70
  -5   9  -3  169.58   14.90
   5   9   3  131.29   11.50
   5   9   3  112.49   10.50
  -6  -9  -3   53.19   10.90
  -6  -9  -3   31.00   10.10
  -6  -9  -3   30.50    8.50
   6  -9   3   47.90   10.50
   6   9   3   37.50    9.60
   6   9   3   48.60   10.40
  -6   9  -3   37.70   10.10
   6   9   3   46.20    8.00
   6   9   3   38.80   10.10
  -6   9  -3   42.30   10.30
  -7  -9  -3   53.19   13.00
   7  -9   3   23.90   11.80
  -7  -9  -3   28.10    9.60
  -7  -9  -3   20.70   11.60
   7   9   3   27.00   12.90
   7   9   3   36.70   11.00
   7   9   3   37.40   11.00
  -7   9  -3   36.10   10.70
   7   9   3   33.30    9.10
  -7 -10   3   41.10   11.40
  -7 -10   3   22.90   10.90
  -7 -10   3   11.60   10.90
  -7  10   3   29.40   11.10
   7  10  -3   33.50   10.50
  -7  10   3   18.50   10.90
  -7  10   3    4.90    9.60
  -7  10   3   21.50   12.50
  -6 -10   3   36.30   10.00
  -6 -10   3   51.49   10.40
  -6 -10   3   58.09   10.10
  -6  10   3   13.10   10.60
  -6  10   3   18.60    9.90
   6  10  -3   36.70    9.70
  -6  10   3   38.80    9.60
  -6  10   3   42.90    9.90
  -5 -10   3   -3.40    7.90
  -5 -10   3   23.00    9.10
  -5 -10   3   12.20    8.40
   5 -10  -3   15.30    6.50
  -5  10   3    5.00    8.80
  -5  10   3   11.30    9.20
   5  10  -3   -4.30   10.90
   5  10  -3   12.40    8.20
  -5  10   3   10.00    7.80
  -4 -10   3   79.89    9.60
  -4 -10   3   63.99    8.90
  -4 -10   3   72.59    9.60
  -4 -10   3   84.29    9.70
   4 -10  -3   78.89    7.00
  -4  10   3   62.99    9.10
  -4  10   3   65.49    9.50
  -4  10   3   76.69    9.80
   4  10  -3   70.69    9.30
  -4  10   3   66.69   10.80
   4  10  -3   73.99    9.70
   4  10  -3   81.69    9.40
  -3 -10   3  172.98   14.20
  -3 -10   3  152.98   14.20
  -3 -10   3  170.78   14.50
   3 -10  -3  153.98    9.30
  -3 -10   3  155.38   13.60
  -3  10   3  137.49   14.00
   3  10  -3  145.99   16.50
  -3  10   3  160.08   14.50
  -3  10   3  171.98   13.90
  -3  10   3  165.48   13.40
   3  10  -3  159.88    9.00
   3  10  -3  163.28   14.20
  -2 -10   3  112.69   10.10
   2 -10  -3   97.89    8.50
  -2 -10   3  131.89   12.90
  -2 -10   3  125.09   10.90
  -2 -10   3  131.59   13.00
   2  10  -3  110.99   11.30
  -2  10   3  124.39   12.30
  -2  10   3  136.39   13.10
   2  10  -3  133.59   10.50
  -2  10   3  110.59   10.10
   2  10  -3   96.59    9.20
  -2  10   3  126.99   12.70
  -1 -10   3   66.09    9.30
  -1 -10   3   82.69    9.50
  -1 -10   3   74.99    7.10
   1 -10  -3   77.99    6.10
  -1 -10   3   79.09    8.70
  -1 -10   3   95.39   11.50
   1  10  -3   90.09    7.50
  -1  10   3   93.49    9.30
  -1  10   3   83.29    9.30
  -1  10   3   85.79   11.10
  -1  10   3   93.39    9.60
   1  10  -3   54.89   11.50
   1  10  -3   79.79    7.10
   1  10  -3   66.39    8.50
   0 -10  -3    1.40    7.10
   0 -10  -3    1.60    4.90
   0 -10   3   -1.40    6.00
   0 -10   3   25.40    9.70
   0 -10   3   18.70    7.80
   0 -10   3   11.20    6.90
   0 -10   3   13.30    7.80
   0 -10  -3    0.60    7.70
   0  10  -3   -0.70    7.40
   0  10   3   -3.10    8.90
   0  10   3    0.00    7.20
   0  10   3    2.30    7.00
   0  10  -3    6.00    6.20
   0  10  -3    1.20    5.30
   0  10  -3    1.90    7.60
   0  10   3   10.30    7.20
  -1 -10  -3   46.50    8.70
   1 -10   3   40.00    9.20
  -1 -10  -3   36.70    7.80
  -1 -10  -3   46.00    8.50
   1 -10   3   44.60    8.00
   1 -10   3   28.50   11.30
   1 -10   3   34.90    8.60
  -1 -10  -3   41.50    6.10
   1 -10   3   49.00    7.80
   1  10   3   35.10   10.60
   1  10   3   51.19    8.60
  -1  10  -3   39.80    5.90
  -1  10  -3   49.70    8.70
   1  10   3   48.60    7.80
   1  10   3   38.90    8.40
  -1  10  -3   52.19    8.50
  -1  10  -3   44.20    7.70
   2 -10   3  124.79   11.80
  -2 -10  -3  145.59   10.70
  -2 -10  -3  145.09   11.60
   2 -10   3  133.49   10.70
  -2 -10  -3  160.18   14.60
   2 -10   3  143.49   11.80
  -2 -10  -3  104.59    9.90
   2 -10   3  101.39    9.90
   2  10   3  144.49   14.40
  -2  10  -3  142.89   14.60
  -2  10  -3  136.09    8.30
   2  10   3  136.49   12.00
  -2  10  -3  127.79   10.70
   2  10   3  133.49   11.00
   2  10   3  115.09   13.40
  -3 -10  -3   62.99    9.50
  -3 -10  -3   73.99   10.40
  -3 -10  -3   49.20    9.50
   3 -10   3   65.69   12.40
   3 -10   3   43.90    9.40
   3  10   3   57.29   13.00
   3  10   3   49.99    9.00
   3  10   3   49.10    9.40
  -3  10  -3   53.49    5.80
  -3  10  -3   51.69    9.10
  -3  10  -3   67.99    9.80
   3  10   3   63.29    8.50
  -4 -10  -3   25.70    9.70
   4 -10   3   37.70   10.00
  -4 -10  -3   53.29    9.80
  -4  10  -3   33.00    9.50
  -4  10  -3   55.09   10.30
   4  10   3   44.30    8.20
   4  10   3   36.00    9.50
   4  10   3   59.69   10.30
  -5 -10  -3   81.39   13.20
  -5 -10  -3   66.49   10.90
   5 -10   3   77.39   11.80
  -5 -10  -3   65.99   12.50
  -5  10  -3   50.59   11.80
   5  10   3   85.49   11.90
   5  10   3   77.79    9.50
  -5  10  -3   59.09   11.60
   5  10   3   51.69   10.50
  -6 -10  -3   25.00   10.90
  -6 -10  -3   28.90   13.70
  -6 -10  -3   33.90   13.10
   6 -10   3   55.79   13.00
  -6  10  -3    8.90   12.10
   6  10   3   33.60   10.20
   6  10   3   11.10   11.50
  -5 -11   3   36.70   11.90
  -5 -11   3   18.70   13.00
  -5 -11   3   33.40   12.50
  -5  11   3   44.20   12.20
  -5  11   3   40.50   11.90
   5  11  -3   32.00   11.30
  -5  11   3   12.60   12.60
  -4 -11   3   21.90    9.90
  -4 -11   3   45.30   11.70
  -4 -11   3   17.00   10.50
  -4 -11   3   21.20   11.30
   4  11  -3   23.60   10.50
  -4  11   3   25.70   11.00
  -4  11   3    9.70   10.50
  -4  11   3   29.10   10.80
  -3 -11   3    9.00   10.00
  -3 -11   3   -7.00    8.70
  -3 -11   3   -3.70   10.20
  -3 -11   3    9.70    9.60
  -3  11   3    3.70    9.80
  -3  11   3    9.30   10.20
  -3  11   3  -12.20    9.20
   3  11  -3  -15.60    9.00
  -2 -11   3    8.40    9.20
  -2 -11   3    7.70   10.20
  -2 -11   3   -2.60    9.10
   2  11  -3   28.50    9.80
  -2  11   3   12.50    9.40
  -2  11   3   15.00    9.50
  -2  11   3   35.40   10.30
  -1 -11   3   -4.20    9.80
  -1 -11   3    4.50    9.20
  -1  11   3    6.10    9.50
  -1  11   3    2.20    8.90
  -1  11   3    1.10    9.50
   1  11  -3   13.30    9.70
   1  11  -3   12.40    7.80
   0 -11   3   30.40   11.40
   0 -11  -3   15.10   10.00
   0 -11  -3    9.00    9.70
   0 -11  -3   23.70    8.60
   0 -11   3    9.60    9.30
   0  11   3   24.10   10.50
   0  11   3   17.50    9.60
   0  11   3   15.20    9.50
   0  11  -3   27.10    9.90
  -1 -11  -3   26.20   10.10
   1 -11   3   24.40    9.30
  -1 -11  -3   43.80    7.90
  -1 -11  -3   27.40   10.80
   1 -11   3   41.00   10.50
  -1 -11  -3   59.19   12.00
   1  11   3   37.80    9.30
   1  11   3   22.00   10.10
  -1  11  -3   55.39   10.90
   1  11   3   36.70   10.40
  -2 -11  -3   15.00   10.80
  -2 -11  -3   25.70   10.20
   2 -11   3   32.00   10.90
   2 -11   3   21.40   10.00
  -2 -11  -3   26.00    8.20
  -2 -11  -3   38.50   11.30
   2  11   3   21.90   10.00
   2  11   3   40.40   11.10
  -2  11  -3   15.10   10.10
   2  11   3   38.20    9.50
  -3 -11  -3   -4.10   11.40
  -3 -11  -3    7.60    9.40
  -3 -11  -3   -2.30   12.20
   3 -11   3   -6.30   10.80
  -3 -11  -3  -11.40   10.40
   3  11   3    3.10   10.40
   3  11   3   -6.00   10.80
  -3  11  -3   12.30   10.90
   3  11   3   -0.20    9.20
 -13   0   4   45.30    9.50
 -13   0   4   38.80    8.80
 -13   0   4   47.20   10.00
 -12   0   4    1.30    6.40
  12   0  -4    0.70    9.80
 -12   0   4    1.30    7.00
 -12   0   4    3.20    6.50
  11   0  -4  180.68   10.50
 -11   0   4  167.08   10.50
 -11   0   4  156.08   10.60
 -11   0   4  168.88   16.40
 -11   0   4  180.58   11.60
  10   0  -4   15.10    4.70
  10   0  -4   21.40    5.10
 -10   0   4   23.80    4.80
  10   0  -4   21.00    4.50
 -10   0   4   11.40    6.00
 -10   0   4   22.10    5.30
 -10   0   4   14.70    4.40
   9   0  -4   12.40    3.80
  -9   0   4    3.30    3.30
  -9   0   4   13.30    4.90
   9   0  -4    3.80    3.50
  -9   0   4    7.10    3.70
  -9   0   4    7.20    3.70
  -8   0   4  707.03   16.60
  -8   0   4  693.43   15.40
   8   0  -4  694.43   15.70
  -8   0   4  684.53   15.80
  -8   0   4  696.43   17.20
   8   0  -4  665.83   18.90
  -8   0   4  694.43   16.00
   8   0  -4  703.13   16.90
   8   0  -4  713.73   15.70
   7   0  -4  372.96    9.60
  -7   0   4  373.46   10.40
   7   0  -4  387.96    9.40
   7   0  -4  388.16    9.50
  -7   0   4  353.56   11.00
  -7   0   4  363.46    9.40
  -7   0   4  363.06    9.70
  -7   0   4  381.16    9.70
   7   0  -4  381.66   10.60
   6   0  -4  882.01   17.70
  -6   0   4  895.71   17.90
  -6   0   4  892.01   18.80
  -6   0   4  888.01   18.00
  -6   0   4  874.41   17.90
   6   0  -4  888.61   18.00
   6   0  -4  885.31   17.80
   6   0  -4  908.71   18.90
  -5   0   4   93.69    3.70
  -5   0   4  101.49    3.90
  -5   0   4   90.29    4.40
  -5   0   4   86.19    3.60
   5   0  -4   95.69    3.50
   5   0  -4   92.69    4.60
   5   0  -4   96.69    3.50
   5   0  -4   93.99    3.90
  -4   0   4   83.59    2.90
   4   0  -4   85.69    2.90
   4   0  -4   90.59    3.40
  -4   0   4   88.89    2.30
  -4   0   4   83.29    3.80
   4   0  -4   87.19    2.70
  -4   0   4   89.39    3.40
  -4   0   4   84.89    3.00
  -3   0   4  146.19    4.40
  -3   0   4  140.59    3.50
  -3   0   4  140.79    3.30
  -3   0   4  140.99    4.10
  -3   0   4  140.59    3.20
   3   0  -4  138.59    3.10
  -2   0   4 1121.89   21.10
  -2   0   4 1123.49   20.90
  -1   0   4 1167.98   21.60
  -1   0   4 1170.58   20.60
  -1   0   4 1142.89   21.60
  -1   0   4 1141.69   21.20
  -1   0   4 1125.19   20.50
   0   0   4   95.59    2.80
   0   0  -4   97.59    2.70
   0   0   4   95.79    2.50
   0   0   4   97.29    3.50
   0   0  -4   91.29    3.40
   0   0   4   95.09    2.70
   0   0   4   92.89    3.40
  -1   0  -4  354.56    7.80
   1   0   4  361.86    8.40
   1   0   4  348.87    8.40
  -1   0  -4  361.26    8.40
   1   0   4  368.36    7.80
   1   0   4  366.86    7.80
  -1   0  -4  366.46    7.80
   1   0   4  375.16    7.90
   2   0   4 4234.98   75.39
   2   0   4 4112.19   75.79
   2   0   4 4334.67   75.49
   2   0   4 4073.29   75.69
  -2   0  -4 4228.98   75.89
   2   0   4 4253.97   75.09
  -2   0  -4 4143.19   75.39
   3   0   4  642.54   14.10
   3   0   4  652.73   14.00
   3   0   4  659.03   13.50
   3   0   4  642.94   14.50
   3   0   4  669.13   14.10
  -3   0  -4  667.33   14.50
  -3   0  -4  651.33   12.30
  -3   0  -4  639.94   13.90
  -3   0  -4  648.54   13.90
   4   0   4    4.70    2.30
   4   0   4    4.70    2.10
  -4   0  -4    4.50    1.60
   4   0   4    4.90    2.30
  -4   0  -4    1.90    2.10
   4   0   4    4.40    2.30
  -4   0  -4    2.10    2.40
  -4   0  -4    1.10    2.10
   4   0   4    1.00    2.60
   5   0   4   25.80    3.70
  -5   0  -4   18.10    3.20
   5   0   4   29.90    3.30
   5   0   4   28.90    4.10
   5   0   4   22.20    3.50
  -5   0  -4   28.10    3.70
  -5   0  -4   18.20    3.10
   5   0   4   21.60    3.20
  -5   0  -4   24.40    3.20
   6   0   4  363.86   10.70
  -6   0  -4  368.66   11.70
  -6   0  -4  378.96   11.50
   6   0   4  373.46   11.40
  -6   0  -4  374.86   11.30
   6   0   4  383.16   12.30
  -6   0  -4  380.36   10.70
   6   0   4  360.66   10.10
   6   0   4  378.46   11.40
   7   0   4  433.86   14.40
   7   0   4  439.46   13.60
  -7   0  -4  430.16   13.40
  -7   0  -4  445.56   13.40
   7   0   4  433.66   12.10
  -7   0  -4  446.56   12.50
   7   0   4  443.56   12.40
   7   0   4  440.36   13.50
   8   0   4  -11.80    5.10
  -8   0  -4   -1.30    4.60
   8   0   4    2.80    5.40
   8   0   4   -0.50    5.20
  -8   0  -4   -3.60    5.40
  -8   0  -4    5.90    4.80
   8   0   4    1.90    3.80
  -8   0  -4    5.20    4.20
   8   0   4    1.20    5.90
   8   0   4    6.00    4.60
   9   0   4   87.39    7.90
  -9   0  -4   93.19    9.00
   9   0   4  103.19    7.90
  -9   0  -4   76.89    7.90
   9   0   4   81.19    8.90
   9   0   4   69.69    8.00
  -9   0  -4   77.09    7.30
  10   0   4  203.58   12.50
 -10   0  -4  202.38   10.50
 -10   0  -4  194.18   14.80
 -10   0  -4  198.28   14.60
 -10   0  -4  200.48   14.00
  10   0   4  181.18   18.00
 -11   0  -4    6.00    9.30
 -11   0  -4    3.20    6.90
 -11   0  -4   14.40    9.00
  11   0   4   -0.90    7.70
 -13  -1   4   51.99   10.20
 -13  -1   4   48.80   10.50
 -13  -1   4   44.30    8.90
 -13  -1   4   53.59    9.90
 -13   1   4   47.10   10.50
 -13   1   4   33.90    9.10
 -13   1   4   48.50    9.10
 -12  -1   4   19.70    7.70
 -12  -1   4    7.60    7.40
 -12  -1   4    9.90    6.40
  12  -1  -4    8.40    7.90
 -12  -1   4    5.70    6.80
 -12   1   4   20.80    7.00
 -12   1   4    7.10    7.30
  12   1  -4   10.10    7.30
 -12   1   4    6.40    6.30
 -11  -1   4  224.18   11.30
 -11  -1   4  214.18   11.40
 -11  -1   4  209.28   12.30
 -11   1   4  220.98   12.10
 -11   1   4  214.08   14.00
  11   1  -4  209.38   10.10
 -11   1   4  216.18   11.50
 -11   1   4  199.08   11.20
  10  -1  -4   57.09    7.00
  10  -1  -4   63.79    6.30
 -10  -1   4   70.09    6.40
  10  -1  -4   67.69    6.30
 -10  -1   4   55.99    5.60
 -10  -1   4   54.39    6.10
 -10  -1   4   60.49    8.00
  10  -1  -4   55.99    6.00
  10   1  -4   47.70    5.80
  10   1  -4   59.79    5.30
 -10   1   4   75.59    7.90
 -10   1   4   69.09    6.40
 -10   1   4   69.39    6.30
 -10   1   4   63.19    7.30
  10   1  -4   60.39    7.20
  10   1  -4   58.39    5.90
  -9  -1   4  766.52   18.10
   9  -1  -4  812.62   18.30
  -9  -1   4  810.62   18.50
  -9  -1   4  755.02   20.10
  -9  -1   4  778.82   18.80
  -9   1   4  788.32   19.20
  -9   1   4  763.82   18.20
  -9   1   4  754.62   18.70
  -9   1   4  793.02   18.10
   9   1  -4  773.02   17.30
  -9   1   4  767.52   18.10
   8  -1  -4  390.46   10.70
  -8  -1   4  378.46   11.10
  -8  -1   4  372.36   12.20
  -8  -1   4  373.36   10.60
   8  -1  -4  365.26   10.20
  -8  -1   4  363.16   10.30
  -8   1   4  373.76   11.00
  -8   1   4  386.36   11.40
   8   1  -4  363.06   11.30
  -8   1   4  372.36   10.40
   8   1  -4  368.36    9.60
  -8   1   4  374.66   10.50
  -8   1   4  370.96   10.50
   8   1  -4  372.86   10.30
   7  -1  -4   28.20    3.40
   7  -1  -4   32.20    3.10
  -7  -1   4   29.30    3.10
  -7  -1   4   24.10    3.40
  -7  -1   4   25.60    3.10
   7  -1  -4   29.80    3.10
  -7   1   4   29.10    3.20
   7   1  -4   33.30    3.10
   7   1  -4   33.90    3.80
   7   1  -4   31.10    3.10
   7   1  -4   31.70    3.10
  -7   1   4   25.10    3.30
  -7   1   4   31.30    3.90
  -7   1   4   23.00    3.40
  -7   1   4   29.50    3.30
  -6  -1   4 1217.08   21.90
  -6  -1   4 1197.78   23.70
   6  -1  -4 1234.78   23.50
   6  -1  -4 1228.18   23.40
   6  -1  -4 1250.07   24.20
  -6  -1   4 1193.38   23.50
  -6  -1   4 1196.68   24.30
  -6  -1   4 1226.18   23.00
   6   1  -4 1223.28   23.40
   6   1  -4 1205.08   23.10
  -6   1   4 1205.68   24.20
   6   1  -4 1223.78   23.40
  -6   1   4 1192.78   23.70
   6   1  -4 1202.48   25.00
  -6   1   4 1209.88   24.00
  -6   1   4 1176.08   24.40
  -6   1   4 1191.38   23.60
  -5  -1   4  433.26    9.60
   5  -1  -4  424.86   10.10
  -5  -1   4  442.96    8.90
   5  -1  -4  442.36    9.40
  -5  -1   4  433.56    9.50
  -5  -1   4  451.65    9.20
  -5  -1   4  433.16   10.20
   5  -1  -4  432.86    9.40
  -5   1   4  428.86    9.60
   5   1  -4  435.16    9.30
   5   1  -4  438.46   10.40
   5   1  -4  437.26    9.20
  -5   1   4  440.96   10.10
  -5   1   4  424.16   10.40
  -5   1   4  434.36    9.60
  -5   1   4  430.56   10.10
   5   1  -4  441.16    9.30
   4  -1  -4   80.19    3.80
  -4  -1   4   76.29    3.00
  -4  -1   4   75.99    3.60
   4  -1  -4   77.89    2.80
  -4  -1   4   82.59    2.80
   4  -1  -4   77.09    2.90
  -4  -1   4   79.09    3.00
   4   1  -4   75.29    3.70
  -4   1   4   78.49    3.70
  -4   1   4   79.69    2.30
   4   1  -4   80.59    2.80
   4   1  -4   78.39    2.60
  -4   1   4   79.99    3.00
  -4   1   4   77.19    2.90
   4   1  -4   77.89    2.80
   3  -1  -4 1441.66   25.90
  -3  -1   4 1421.46   27.20
   3  -1  -4 1423.06   26.00
  -3  -1   4 1414.76   26.70
  -3  -1   4 1425.26   26.20
  -3  -1   4 1416.46   26.00
   3  -1  -4 1464.45   27.20
  -3  -1   4 1410.86   25.90
  -3   1   4 1421.46   26.10
  -3   1   4 1420.16   26.10
   3   1  -4 1471.55   25.80
  -3   1   4 1402.66   27.20
  -3   1   4 1435.76   27.10
   3   1  -4 1441.96   25.60
   3   1  -4 1442.36   25.60
  -3   1   4 1450.85   26.20
   3   1  -4 1433.36   25.80
   3   1  -4 1491.65   26.90
  -3   1   4 1446.96   26.10
  -2  -1   4  480.65   10.20
   2  -1  -4  503.35    9.80
  -2  -1   4  488.35    8.90
  -2  -1   4  482.95    9.70
   2  -1  -4  480.05    9.10
  -2   1   4  491.15    9.20
  -2   1   4  487.85    9.30
  -2   1   4  492.45    9.70
  -2   1   4  419.86    9.70
  -2   1   4  483.75   10.30
  -2   1   4  483.95    9.20
   1  -1  -4 5074.59   88.49
  -1  -1   4 5039.50   88.29
  -1  -1   4 4854.61   88.79
  -1   1   4 4904.01   88.49
   0  -1  -4 1245.68   23.50
   0  -1   4 1241.58   22.80
   0  -1   4 1210.28   23.60
   0  -1   4 1224.88   22.60
   0  -1   4 1224.58   22.70
   0  -1  -4 1244.28   22.80
   0  -1  -4 1201.58   22.80
   0  -1  -4 1252.37   22.90
   0   1  -4 1265.17   22.60
   0   1   4 1208.48   23.50
   0   1  -4 1268.57   23.70
   0   1   4 1250.27   22.80
   0   1  -4 1259.07   22.80
   0   1   4 1225.88   22.90
   0   1   4 1227.08   22.90
   1  -1   4  180.98    5.30
  -1  -1  -4  203.38    5.30
  -1  -1  -4  195.08    5.60
  -1  -1  -4  205.88    5.40
   1  -1   4  202.68    5.20
  -1  -1  -4  201.98    5.20
   1  -1   4  200.08    5.90
   1  -1   4  201.58    5.10
   1  -1   4  199.18    4.50
  -1   1  -4  199.28    5.80
   1   1   4  205.58    5.80
   1   1   4  204.08    5.30
   1   1   4  200.88    5.30
  -1   1  -4  200.78    4.60
  -1   1  -4  209.58    5.10
  -1   1  -4  197.08    5.10
   1   1   4  202.08    5.40
   2  -1   4 1623.64   30.20
   2  -1   4 1574.24   30.60
  -2  -1  -4 1616.14   30.30
  -2  -1  -4 1638.74   30.50
  -2  -1  -4 1650.83   30.70
   2  -1   4 1632.74   30.30
   2  -1   4 1578.64   30.80
   2  -1   4 1609.04   29.30
  -2  -1  -4 1586.44   30.30
   2   1   4 1576.64   30.60
  -2   1  -4 1598.84   29.30
   2   1   4 1632.84   30.40
  -2   1  -4 1569.24   30.10
  -2   1  -4 1615.54   30.90
   2   1   4 1598.64   30.40
  -2   1  -4 1693.33   31.50
   2   1   4 1629.04   30.30
   2   1   4 1601.04   30.60
  -3  -1  -4   28.90    3.00
  -3  -1  -4   28.40    2.80
   3  -1   4   30.00    2.90
   3  -1   4   25.60    2.50
  -3  -1  -4   24.70    2.70
   3  -1   4   28.20    3.20
   3  -1   4   19.70    2.40
  -3  -1  -4   31.40    3.00
   3  -1   4   25.80    2.70
   3   1   4   23.00    2.50
   3   1   4   30.20    3.00
  -3   1  -4   32.10    2.80
  -3   1  -4   23.20    2.60
  -3   1  -4   27.40    3.20
  -3   1  -4   26.30    2.60
   3   1   4   30.30    2.90
   3   1   4   31.60    2.80
   3   1   4   20.40    2.80
  -4  -1  -4  367.26    9.60
   4  -1   4  367.26    8.60
   4  -1   4  365.76    9.70
  -4  -1  -4  359.16   10.20
   4  -1   4  367.06   10.40
   4  -1   4  370.86    9.70
   4  -1   4  367.16    9.50
  -4  -1  -4  373.26    9.90
  -4  -1  -4  365.06    9.70
   4   1   4  356.06    9.70
  -4   1  -4  355.16    9.60
   4   1   4  375.06    9.50
  -4   1  -4  372.86    8.90
  -4   1  -4  377.56    8.50
   4   1   4  370.66   10.40
  -4   1  -4  373.06   10.20
  -4   1  -4  378.96    9.70
   4   1   4  362.96    9.70
   4   1   4  362.16    9.80
   5  -1   4  779.12   17.40
  -5  -1  -4  743.23   14.90
  -5  -1  -4  783.02   17.80
  -5  -1  -4  727.43   17.10
   5  -1   4  755.72   18.00
   5  -1   4  795.82   17.40
  -5  -1  -4  756.12   17.20
  -5  -1  -4  752.52   17.00
   5  -1   4  756.42   15.90
   5  -1   4  760.42   16.80
   5   1   4  774.32   17.50
  -5   1  -4  767.32   16.30
   5   1   4  766.52   17.10
   5   1   4  761.32   16.80
  -5   1  -4  760.52   17.70
  -5   1  -4  769.22   17.30
   5   1   4  785.22   18.10
   5   1   4  780.52   17.40
  -5   1  -4  771.32   17.30
  -5   1  -4  749.23   15.80
  -6  -1  -4  144.49    7.50
   6  -1   4  163.38   12.20
  -6  -1  -4  151.58    8.30
   6  -1   4  141.69    7.70
   6  -1   4  134.69    8.40
  -6  -1  -4  148.79    7.70
  -6  -1  -4  154.88    7.30
   6  -1   4  153.38    7.60
  -6  -1  -4  143.09    5.10
   6  -1   4  136.89    6.80
   6   1   4  138.69    6.90
   6   1   4  146.39    7.10
  -6   1  -4  146.89    6.10
   6   1   4  144.29    7.80
  -6   1  -4  154.08    7.70
  -6   1  -4  137.99    8.00
  -6   1  -4  145.09    7.70
  -6   1  -4  148.49    6.70
   6   1   4  150.38    8.50
   6   1   4  143.09    7.70
  -7  -1  -4  425.76   10.50
  -7  -1  -4  447.56   13.00
   7  -1   4  454.95   14.00
  -7  -1  -4  450.85   13.30
   7  -1   4  434.26   12.30
  -7  -1  -4  439.36   13.50
   7  -1   4  417.06   14.30
   7  -1   4  434.06   11.80
   7  -1   4  478.35   13.80
  -7   1  -4  437.06   11.70
  -7   1  -4  437.46   12.20
  -7   1  -4  443.46   13.40
  -7   1  -4  435.46   13.50
   7   1   4  432.16   12.50
   7   1   4  446.26   12.60
   7   1   4  447.76   13.80
   7   1   4  439.96   13.90
   7   1   4  443.36   14.50
   8  -1   4  142.49   11.00
  -8  -1  -4  149.49    7.10
  -8  -1  -4  141.39   11.30
   8  -1   4  133.59   11.10
  -8  -1  -4  151.78   10.10
  -8  -1  -4  127.39    9.40
  -8  -1  -4  150.28    9.20
   8  -1   4  148.99   10.60
   8  -1   4  147.89    8.40
   8  -1   4  145.19   11.30
   8  -1   4  141.89    8.30
  -8   1  -4  157.78    9.90
   8   1   4  142.99   11.10
  -8   1  -4  151.48    9.80
  -8   1  -4  157.28    8.80
   8   1   4  159.48    9.60
   8   1   4  144.79    8.90
  -8   1  -4  148.69    8.10
  -8   1  -4  112.89   11.10
   8   1   4  151.98   10.90
   8   1   4  169.38   11.10
   9  -1   4  295.47   15.70
   9  -1   4  315.97   13.20
  -9  -1  -4  322.67   14.40
  -9  -1  -4  316.77   10.50
   9  -1   4  338.17   16.50
   9  -1   4  300.47   12.90
  -9  -1  -4  323.07   14.50
  -9  -1  -4  312.37   13.30
   9  -1   4  323.87   15.90
  -9   1  -4  336.37   14.50
   9   1   4  290.87   15.80
  -9   1  -4  310.77   12.80
   9   1   4  334.37   13.10
  -9   1  -4  329.17   14.30
  -9   1  -4  320.27   12.20
   9   1   4  311.47   14.00
   9   1   4  343.07   15.80
 -10  -1  -4   42.90    8.30
 -10  -1  -4   47.70    8.80
  10  -1   4   53.69    7.60
 -10  -1  -4   42.10    8.30
 -10  -1  -4   51.59    6.10
  10  -1   4   42.70   10.30
  10  -1   4   32.80    9.30
  10   1   4   47.50    7.90
 -10   1  -4   40.60    7.80
 -10   1  -4   38.80    8.40
 -10   1  -4   58.29    8.90
  10   1   4   47.30   11.00
 -10   1  -4   46.10    7.80
  11  -1   4   20.00    8.00
 -11  -1  -4   11.80    7.00
 -11  -1  -4   37.20    9.90
 -11  -1  -4   10.20   10.10
 -11  -1  -4   28.00   10.50
 -11   1  -4   32.30   19.10
 -11   1  -4    5.40   10.10
  11   1   4   11.10    8.00
 -11   1  -4   22.20    8.70
 -13  -2   4   49.20   11.00
 -13  -2   4   34.20   10.00
 -13  -2   4   60.49   11.00
 -13  -2   4   34.50    9.30
 -13   2   4   42.90   10.50
 -13   2   4   25.00    9.50
 -13   2   4   41.30    9.70
 -12  -2   4  208.88   13.50
 -12  -2   4  220.98   14.40
 -12  -2   4  202.38   14.60
 -12  -2   4  192.68   15.20
 -12   2   4  210.88   14.00
 -12   2   4  171.78   14.50
 -12   2   4  209.88   13.70
 -11  -2   4   73.49    7.20
 -11  -2   4   75.99    8.10
  11  -2  -4   59.19    8.00
 -11  -2   4   78.39    7.60
 -11  -2   4   81.29    8.30
 -11   2   4   81.69    7.60
 -11   2   4   68.09    7.50
 -11   2   4   71.59    8.80
  11   2  -4   72.49    6.00
 -11   2   4   67.09    7.10
 -10  -2   4  211.68   11.20
 -10  -2   4  216.88   14.00
 -10  -2   4  217.38   10.80
 -10  -2   4  214.08   10.40
 -10  -2   4  214.18   10.10
  10  -2  -4  203.98   11.00
  10  -2  -4  188.18   10.40
  10   2  -4  207.18    8.30
  10   2  -4  212.98   12.00
 -10   2   4  212.38   10.00
  10   2  -4  201.58   10.30
 -10   2   4  212.68    9.90
 -10   2   4  208.48   10.30
  10   2  -4  206.98   11.60
 -10   2   4  205.28   11.10
 -10   2   4  225.78   10.50
  -9  -2   4  520.85   14.60
  -9  -2   4  530.05   14.10
   9  -2  -4  509.95   14.30
  -9  -2   4  517.75   10.70
  -9  -2   4  534.15   14.20
  -9  -2   4  494.35   16.40
  -9  -2   4  538.85   15.20
  -9   2   4  514.65   14.00
  -9   2   4  543.55   14.20
   9   2  -4  503.95   12.20
  -9   2   4  522.05   14.60
  -9   2   4  531.15   14.50
  -9   2   4  527.25   14.10
  -8  -2   4  552.74   14.30
   8  -2  -4  543.65   13.60
  -8  -2   4  567.94   14.00
   8  -2  -4  543.55   14.20
  -8  -2   4  556.04   13.80
  -8  -2   4  570.64   14.90
  -8  -2   4  528.85   11.20
   8   2  -4  566.14   13.70
  -8   2   4  560.54   14.40
  -8   2   4  552.54   13.80
  -8   2   4  573.44   14.10
   8   2  -4  566.64   14.60
   8   2  -4  547.35   12.30
  -8   2   4  570.84   14.30
  -8   2   4  556.54   13.80
  -7  -2   4  224.78    8.40
  -7  -2   4  225.18    8.00
   7  -2  -4  221.18    7.90
   7  -2  -4  212.58    7.20
  -7  -2   4  221.18    7.40
   7  -2  -4  218.88    7.20
  -7  -2   4  216.08    5.70
  -7  -2   4  218.48    7.40
  -7   2   4  219.78    7.40
   7   2  -4  228.38    6.00
  -7   2   4  226.88    7.40
  -7   2   4  225.48    8.00
   7   2  -4  225.88    7.10
  -7   2   4  212.68    8.00
  -7   2   4  228.38    7.80
   7   2  -4  236.28    7.30
   7   2  -4  221.28    8.10
  -6  -2   4  203.48    6.40
  -6  -2   4  203.78    7.40
   6  -2  -4  203.68    6.20
   6  -2  -4  203.58    7.20
  -6  -2   4  202.68    5.60
  -6  -2   4  213.08    7.00
   6  -2  -4  209.48    6.50
  -6  -2   4  206.48    6.50
   6   2  -4  197.68    7.00
  -6   2   4  193.08    7.10
   6   2  -4  187.38    7.10
  -6   2   4  206.58    6.50
  -6   2   4  207.38    7.10
  -6   2   4  207.98    6.50
   6   2  -4  204.98    5.10
  -6   2   4  203.08    6.60
   6   2  -4  210.08    6.20
   5  -2  -4  938.51   18.80
   5  -2  -4  881.81   18.10
  -5  -2   4  889.91   19.00
  -5  -2   4  878.21   17.50
  -5  -2   4  871.91   17.80
  -5  -2   4  888.41   18.30
   5  -2  -4  908.61   17.80
  -5  -2   4  878.41   17.80
  -5   2   4  901.81   17.90
   5   2  -4  890.51   17.50
  -5   2   4  903.01   17.80
  -5   2   4  892.51   18.00
  -5   2   4  877.71   18.70
  -5   2   4  900.31   18.70
   5   2  -4  922.81   18.50
   5   2  -4  902.81   17.60
   4  -2  -4 2895.41   51.89
  -4  -2   4 2885.61   53.09
  -4  -2   4 2847.92   53.69
   4  -2  -4 3021.20   53.79
   4  -2  -4 2970.30   52.69
   4  -2  -4 2913.21   52.69
  -4  -2   4 2838.82   52.69
  -4  -2   4 2950.60   52.69
   4   2  -4 2944.01   53.09
  -4   2   4 3012.00   52.39
  -4   2   4 2882.51   52.69
   4   2  -4 2924.61   52.49
   4   2  -4 2900.51   52.49
  -4   2   4 2858.51   53.59
  -4   2   4 2838.82   52.69
   4   2  -4 2972.30   52.39
   4   2  -4 2950.60   52.49
  -4   2   4 2853.01   53.69
  -3  -2   4 1313.77   23.80
   3  -2  -4 1325.87   24.40
  -3  -2   4 1323.77   25.60
   3  -2  -4 1331.47   25.70
  -3  -2   4 1322.87   24.60
  -3  -2   4 1320.07   24.60
   3  -2  -4 1319.97   24.60
   3  -2  -4 1316.57   24.60
  -3  -2   4 1308.07   24.80
  -3   2   4 1314.17   24.00
   3   2  -4 1397.46   24.40
  -3   2   4 1347.97   24.60
  -3   2   4 1340.57   24.80
   3   2  -4 1346.87   24.30
   3   2  -4 1315.57   24.30
  -3   2   4 1330.67   25.70
  -3   2   4 1300.87   24.70
  -3   2   4 1301.47   24.70
  -3   2   4 1335.37   24.90
   3   2  -4 1327.47   24.90
  -2  -2   4 2375.46   41.70
  -2  -2   4 2357.66   41.70
   2  -2  -4 2365.16   42.20
   2  -2  -4 2327.47   41.90
  -2  -2   4 2303.37   41.80
   2  -2  -4 2272.77   41.90
  -2  -2   4 2279.07   41.80
  -2  -2   4 2245.08   41.80
  -2  -2   4 2328.87   42.70
  -2   2   4 2325.07   43.00
   2   2  -4 2345.07   41.80
   2   2  -4 2359.86   42.80
   2   2  -4 2323.57   41.60
  -2   2   4 2303.67   42.00
  -2   2   4 2369.06   42.20
  -2   2   4 2241.18   42.00
  -2   2   4 2365.56   42.10
  -2   2   4 2322.57   42.30
   2   2  -4 2341.27   41.50
   2   2  -4 2332.07   41.70
  -1  -2   4  600.14   13.10
   1  -2  -4  606.44   12.40
  -1  -2   4  613.44   11.80
  -1  -2   4  601.64   11.30
  -1  -2   4  606.94   12.50
  -1  -2   4  628.74   11.80
   1  -2  -4  609.94   12.00
   1  -2  -4  608.64   12.10
  -1   2   4  607.14   11.20
  -1   2   4  607.64   12.00
   1   2  -4  618.74   11.60
  -1   2   4  608.44   12.50
  -1   2   4  600.84   12.20
  -1   2   4  588.34   12.90
  -1   2   4  605.44   12.10
   1   2  -4  600.24   12.50
   1   2  -4  609.14   11.70
   1   2  -4  610.84   11.80
  -1   2   4  614.04   12.20
   0  -2  -4 1009.60   19.40
   0  -2  -4 1013.00   19.80
   0  -2  -4 1021.00   19.40
   0  -2   4 1020.00   19.10
   0  -2  -4 1016.90   18.80
   0  -2   4  993.00   19.40
   0  -2   4  993.10   20.10
   0  -2   4 1043.00   19.20
   0   2   4 1014.20   18.70
   0   2   4  975.80   19.30
   0   2   4 1037.20   19.50
   0   2   4 1005.90   19.30
   0   2  -4 1058.79   19.50
   0   2   4  997.30   19.90
   0   2  -4 1006.40   19.10
   0   2  -4 1013.20   19.10
   0   2   4  945.61   19.40
   0   2   4 1061.69   19.50
   0   2  -4 1016.60   19.00
   0   2  -4 1030.90   19.10
   1  -2   4 2257.77   40.50
   1  -2   4 2187.78   40.40
   1  -2   4 2166.88   41.30
   1  -2   4 2240.78   40.50
  -1  -2  -4 2117.69   40.70
  -1  -2  -4 2209.28   40.30
  -1  -2  -4 2250.87   41.10
   1   2   4 2225.48   40.80
   1   2   4 2230.08   40.70
   1   2   4 2242.58   41.20
  -1   2  -4 2285.47   41.40
   1   2   4 2158.98   39.30
  -1   2  -4 2143.29   40.70
   1   2   4 2180.78   40.50
  -1   2  -4 2300.37   40.40
  -1   2  -4 2210.68   40.60
   2  -2   4  713.23   14.60
   2  -2   4  697.53   14.20
  -2  -2  -4  706.33   15.00
  -2  -2  -4  700.93   14.80
  -2  -2  -4  710.33   14.70
   2  -2   4  698.53   15.30
   2  -2   4  701.93   13.00
   2  -2   4  693.93   14.50
  -2  -2  -4  702.73   14.80
   2   2   4  714.93   14.80
   2   2   4  697.83   14.80
   2   2   4  690.93   15.00
   2   2   4  706.93   15.00
  -2   2  -4  705.13   14.50
  -2   2  -4  716.43   15.30
  -2   2  -4  701.23   14.10
  -2   2  -4  706.23   14.50
   2   2   4  691.73   14.70
  -3  -2  -4  216.08    4.80
   3  -2   4  223.98    6.80
  -3  -2  -4  203.98    7.00
  -3  -2  -4  228.38    7.10
  -3  -2  -4  222.68    6.90
   3  -2   4  218.88    6.80
   3  -2   4  223.18    7.50
   3  -2   4  216.38    5.20
  -3   2  -4  215.18    6.70
  -3   2  -4  223.68    5.50
   3   2   4  216.98    7.00
   3   2   4  209.18    7.00
   3   2   4  220.28    7.00
  -3   2  -4  215.08    6.60
  -3   2  -4  209.78    6.10
   3   2   4  218.88    6.90
  -3   2  -4  205.78    8.30
   3   2   4  215.38    7.00
  -4  -2  -4  620.94   14.00
  -4  -2  -4  604.54   11.70
   4  -2   4  602.44   12.30
   4  -2   4  600.74   13.90
  -4  -2  -4  601.04   14.10
   4  -2   4  594.94   14.00
  -4  -2  -4  626.74   14.40
   4  -2   4  597.64   13.70
   4  -2   4  612.54   14.40
  -4  -2  -4  603.34   14.10
   4  -2   4  606.94   14.80
   4   2   4  616.44   14.20
   4   2   4  601.44   14.10
  -4   2  -4  611.84   13.20
   4   2   4  518.95   15.00
  -4   2  -4  595.14   13.90
  -4   2  -4  616.54   14.50
   4   2   4  604.84   14.50
  -4   2  -4  611.84   13.90
  -4   2  -4  604.24   12.60
   4   2   4  607.74   14.10
   5  -2   4   84.89    6.10
  -5  -2  -4   69.79    5.40
  -5  -2  -4   83.59    3.60
   5  -2   4   86.59    4.30
   5  -2   4   92.09    6.30
  -5  -2  -4  101.99    6.60
   5  -2   4   83.69    6.60
  -5  -2  -4   88.29    6.10
   5  -2   4   82.19    6.10
   5  -2   4   77.49    5.30
  -5  -2  -4   84.59    6.10
  -5   2  -4   88.29    5.90
   5   2   4   85.29    5.90
   5   2   4   86.59    6.40
  -5   2  -4   91.09    4.70
   5   2   4   88.89    6.10
  -5   2  -4   83.79    6.20
  -5   2  -4   78.19    4.90
  -5   2  -4   82.09    5.90
   5   2   4   73.59    5.50
   6  -2   4  966.20   21.10
  -6  -2  -4  986.00   22.00
  -6  -2  -4  961.30   21.90
  -6  -2  -4  958.00   21.30
  -6  -2  -4  961.70   19.10
   6  -2   4  986.60   21.90
   6  -2   4  960.60   22.60
   6  -2   4  953.10   20.00
  -6  -2  -4  956.70   22.40
   6  -2   4  992.90   21.90
  -6   2  -4  962.80   20.40
   6   2   4  989.20   21.50
   6   2   4  964.90   22.00
   6   2   4  994.90   22.00
   6   2   4  982.20   21.50
  -6   2  -4  983.40   21.80
  -6   2  -4  972.60   21.80
  -6   2  -4  996.10   20.30
   7  -2   4   34.00    5.40
   7  -2   4   39.10    5.90
  -7  -2  -4   44.90    5.70
   7  -2   4   42.40    4.60
  -7  -2  -4   39.90    3.50
   7  -2   4   30.80    4.10
  -7  -2  -4   34.70    5.20
   7  -2   4   37.50    5.10
  -7   2  -4   32.80    4.40
   7   2   4   39.50    6.60
   7   2   4   41.80    5.40
   7   2   4   37.20    4.70
  -7   2  -4   37.30    4.70
  -7   2  -4   36.20    5.00
   7   2   4   36.20    5.60
  -7   2  -4   43.50    5.40
   8  -2   4  145.69    8.30
  -8  -2  -4  151.28   10.30
  -8  -2  -4  147.09   12.40
   8  -2   4  134.09   10.90
   8  -2   4  161.58   13.60
  -8  -2  -4  149.59   10.40
   8  -2   4  156.38    8.60
  -8  -2  -4  147.19    7.00
   8  -2   4  142.59   11.30
   8  -2   4  142.09   10.90
   8   2   4  132.19   10.50
   8   2   4  138.89   11.70
  -8   2  -4  151.58   10.10
  -8   2  -4  138.39    8.40
  -8   2  -4  150.98    8.60
   8   2   4  150.58   11.40
   8   2   4  148.69    9.50
  -8   2  -4  166.78   10.70
   9  -2   4  260.37   15.20
   9  -2   4  204.18   15.30
  -9  -2  -4  239.08   13.70
  -9  -2  -4  264.37    9.50
   9  -2   4  246.58   15.20
  -9  -2  -4  249.48   13.20
   9  -2   4  258.07   11.50
  -9  -2  -4  255.87   13.70
   9  -2   4  252.27   12.00
  -9   2  -4  250.27   12.10
   9   2   4  216.28   17.70
  -9   2  -4  246.48   11.50
   9   2   4  247.48   12.20
   9   2   4  244.68   15.80
  -9   2  -4  237.28   13.50
  -9   2  -4  255.07   13.90
 -10  -2  -4   46.00    6.10
 -10  -2  -4   21.60    8.60
 -10  -2  -4   48.70    9.00
  10  -2   4   35.20    6.80
  10  -2   4   44.00   10.20
  10  -2   4   44.00   10.90
 -10  -2  -4   39.70    8.40
  10  -2   4   52.89    9.10
  10   2   4   39.30    7.90
  10   2   4   35.60   11.50
 -10   2  -4   62.29    9.50
 -10   2  -4   48.90    9.00
 -10   2  -4   41.70    7.50
  11  -2   4   26.40   12.70
  11  -2   4   54.09    9.00
 -11  -2  -4   41.20   11.00
 -11  -2  -4   62.99   11.40
 -11   2  -4   54.39   12.10
 -11   2  -4   47.10    9.70
 -11   2  -4   56.29   11.20
  11   2   4   44.30    9.50
 -13  -3   4   15.50   10.60
 -13  -3   4   10.20   10.20
 -13  -3   4   11.50    9.70
 -13  -3   4    4.20    9.70
 -13   3   4   10.90   10.70
 -13   3   4    8.70    9.90
 -13   3   4    3.60    8.80
 -12  -3   4   99.19   10.00
 -12  -3   4  136.29   11.20
 -12  -3   4  149.88   14.10
 -12  -3   4  121.89   10.50
 -12   3   4  150.18   13.40
 -12   3   4  129.59   11.00
 -12   3   4  118.39   10.30
 -11  -3   4  147.09   12.10
 -11  -3   4  122.59   12.00
 -11  -3   4  146.49   11.40
 -11  -3   4  135.09   11.40
 -11   3   4  134.29   11.20
  11   3  -4  109.29    8.10
 -11   3   4  128.99   13.20
 -11   3   4  145.29   11.30
 -11   3   4  137.89   11.80
 -11   3   4  140.99   11.10
 -10  -3   4  118.09    9.60
 -10  -3   4   87.69    7.10
  10  -3  -4   75.39    7.60
 -10  -3   4   78.79    7.10
 -10  -3   4   69.89    5.20
 -10  -3   4   82.59    7.40
 -10   3   4   88.59    7.50
 -10   3   4   69.09    8.10
 -10   3   4   76.39    7.20
  10   3  -4   75.69    5.90
 -10   3   4   86.69    8.80
 -10   3   4   82.79    8.50
   9  -3  -4  197.48   10.00
  -9  -3   4  203.48   10.00
  -9  -3   4  212.68    6.60
  -9  -3   4  210.38   13.10
  -9  -3   4  209.68   15.10
   9   3  -4  240.28   11.80
  -9   3   4  205.18    9.40
  -9   3   4  212.98    9.80
   9   3  -4  215.28   11.30
   9   3  -4  213.38    6.80
  -8  -3   4  105.29    7.10
  -8  -3   4   93.99    5.00
   8  -3  -4  102.89    7.10
  -8  -3   4  106.19    6.70
  -8  -3   4  121.09    7.00
  -8  -3   4  105.29    7.50
   8  -3  -4  104.59    7.00
   8   3  -4   95.09    4.10
  -8   3   4  108.29    6.60
   8   3  -4  100.19    7.60
  -8   3   4  111.29    6.70
   8   3  -4   98.99    6.90
  -8   3   4   95.69    7.10
  -8   3   4  108.19    7.50
  -8   3   4  109.09    6.60
  -7  -3   4  556.94   13.40
  -7  -3   4  534.85   12.10
   7  -3  -4  567.44   13.40
   7  -3  -4  543.85   13.10
  -7  -3   4  537.05   13.40
   7  -3  -4  542.25   14.10
  -7  -3   4  559.44   13.80
  -7  -3   4  546.75   14.20
  -7   3   4  548.85   14.20
   7   3  -4  559.74   13.20
  -7   3   4  554.34   14.00
   7   3  -4  542.85   13.00
  -7   3   4  554.94   13.50
  -7   3   4  549.15   13.30
   7   3  -4  550.64   13.80
  -7   3   4  551.24   12.90
  -6  -3   4   41.50    3.60
  -6  -3   4   39.60    3.50
   6  -3  -4   31.20    3.10
  -6  -3   4   38.10    3.30
   6  -3  -4   44.30    4.10
  -6  -3   4   41.80    3.90
   6  -3  -4   44.00    2.20
  -6  -3   4   41.70    4.20
   6  -3  -4   35.90    3.20
  -6   3   4   36.80    4.10
  -6   3   4   28.50    3.30
   6   3  -4   41.30    3.40
   6   3  -4   36.70    3.60
   6   3  -4   39.50    3.90
  -6   3   4   40.30    3.60
  -6   3   4   42.00    3.60
  -6   3   4   39.50    3.90
  -5  -3   4   70.39    4.30
   5  -3  -4   74.39    3.10
  -5  -3   4   78.79    5.10
   5  -3  -4   67.79    4.90
  -5  -3   4   79.29    4.30
   5  -3  -4   75.59    4.00
  -5  -3   4   76.89    4.30
   5  -3  -4   83.09    5.50
  -5  -3   4   79.59    4.50
   5   3  -4   75.99    4.10
  -5   3   4   77.09    5.00
   5   3  -4   75.19    4.60
   5   3  -4   70.69    4.00
  -5   3   4   73.19    4.20
   5   3  -4   68.09    3.90
  -5   3   4   70.29    3.50
  -5   3   4   70.49    4.30
   5   3  -4   78.79    4.10
  -4  -3   4  175.48    5.60
   4  -3  -4  187.38    5.70
  -4  -3   4  174.48    5.90
   4  -3  -4  180.78    6.50
  -4  -3   4  186.98    6.50
   4  -3  -4  183.08    5.50
   4  -3  -4  176.18    4.90
  -4  -3   4  177.58    5.60
  -4  -3   4  178.48    5.60
  -4   3   4  182.78    5.20
  -4   3   4  178.08    4.40
   4   3  -4  186.08    5.50
   4   3  -4  176.78    5.60
  -4   3   4  177.98    5.70
   4   3  -4  181.98    5.30
  -4   3   4  176.58    5.80
  -4   3   4  168.08    5.60
  -4   3   4  185.58    5.60
  -4   3   4  177.48    6.40
   4   3  -4  182.28    5.30
   4   3  -4  182.28    5.40
   3  -3  -4   33.20    3.20
   3  -3  -4   29.20    2.30
   3  -3  -4   30.20    2.50
  -3  -3   4   30.10    2.50
  -3  -3   4   27.80    2.80
   3  -3  -4   27.10    2.70
  -3  -3   4   24.70    2.70
  -3  -3   4   29.10    2.60
   3   3  -4   28.70    2.60
  -3   3   4   29.00    2.90
   3   3  -4   21.20    2.50
  -3   3   4   27.10    2.40
  -3   3   4   33.60    2.80
   3   3  -4   26.20    2.20
  -3   3   4   24.70    2.20
  -3   3   4   22.20    2.60
   3   3  -4   27.80    2.70
   3   3  -4   27.00    2.70
   3   3  -4   27.60    2.60
  -3   3   4   29.90    2.60
  -2  -3   4 1526.45   27.80
   2  -3  -4 1468.25   28.00
  -2  -3   4 1491.55   27.80
  -2  -3   4 1507.25   27.00
   2  -3  -4 1509.75   28.00
  -2  -3   4 1479.95   27.90
  -2  -3   4 1480.85   27.30
  -2  -3   4 1469.15   28.60
   2  -3  -4 1497.15   28.90
   2  -3  -4 1528.05   28.20
  -2  -3   4 1450.05   27.90
   2   3  -4 1510.45   27.60
  -2   3   4 1489.55   28.30
  -2   3   4 1528.15   28.30
  -2   3   4 1472.05   28.80
  -2   3   4 1454.95   28.00
   2   3  -4 1492.55   27.70
  -2   3   4 1471.35   28.00
   2   3  -4 1497.45   27.30
  -2   3   4 1473.25   28.30
   2   3  -4 1488.05   27.70
   2   3  -4 1490.25   27.70
   2   3  -4 1487.65   28.70
  -2   3   4 1509.75   28.20
  -1  -3   4 2636.24   49.80
   1  -3  -4 2842.72   50.39
  -1  -3   4 2791.32   49.80
  -1  -3   4 2751.62   49.50
  -1  -3   4 2745.23   50.99
   1  -3  -4 2696.43   50.19
  -1  -3   4 2800.82   48.70
  -1  -3   4 2760.02   50.39
  -1  -3   4 2818.52   49.80
   1   3  -4 2719.63   49.80
  -1   3   4 2788.92   50.19
   1   3  -4 2821.52   50.49
  -1   3   4 2633.34   49.99
  -1   3   4 2675.53   50.69
   1   3  -4 2724.03   49.70
  -1   3   4 2794.92   50.29
  -1   3   4 2716.73   50.39
   1   3  -4 2783.12   49.70
  -1   3   4 2771.12   49.90
  -1   3   4 2686.73   49.99
   1   3  -4 2795.52   49.80
   1   3  -4 2685.03   48.70
   0  -3   4  339.77    8.40
   0  -3   4  354.36    8.00
   0  -3  -4  341.97    8.30
   0  -3  -4  342.67    8.50
   0  -3  -4  344.97    8.50
   0  -3  -4  336.37    7.00
   0  -3   4  342.47    8.00
   0  -3   4  352.16    8.00
   0   3   4  352.46    8.50
   0   3   4  350.76    8.40
   0   3   4  337.57    8.20
   0   3  -4  339.87    8.00
   0   3   4  343.77    8.20
   0   3  -4  341.37    7.80
   0   3  -4  348.47    7.90
   0   3  -4  346.77    8.30
   0   3  -4  281.57    8.30
   0   3   4  345.57    7.60
   0   3   4  346.97    8.70
  -1  -3  -4  759.82   15.10
  -1  -3  -4  757.92   15.80
  -1  -3  -4  757.92   15.80
  -1  -3  -4  772.62   16.10
   1  -3   4  748.93   15.70
   1  -3   4  752.02   15.50
   1  -3   4  779.32   15.50
   1  -3   4  744.83   15.60
   1  -3   4  751.22   16.30
   1   3   4  759.92   14.60
  -1   3  -4  752.02   15.60
   1   3   4  741.43   15.60
   1   3   4  768.32   15.90
   1   3   4  786.92   16.00
   1   3   4  734.13   15.60
  -1   3  -4  754.62   15.60
  -1   3  -4  775.12   15.50
  -1   3  -4  772.12   15.50
  -1   3  -4  761.62   16.40
   1   3   4  738.23   16.10
  -2  -3  -4  253.27    7.80
   2  -3   4  271.37    7.60
   2  -3   4  264.67    7.30
  -2  -3  -4  268.67    7.30
   2  -3   4  251.17    7.20
   2  -3   4  263.67    8.10
   2  -3   4  261.37    7.30
  -2  -3  -4  259.57    7.60
  -2  -3  -4  247.58    6.10
  -2  -3  -4  258.67    7.60
  -2   3  -4  259.17    7.20
   2   3   4  249.38    5.90
  -2   3  -4  255.57    7.20
   2   3   4  265.37    7.80
  -2   3  -4  267.07    7.20
   2   3   4  261.67    7.80
   2   3   4  258.07    7.60
  -2   3  -4  268.87    8.30
   2   3   4  254.07    7.60
   3  -3   4  476.25   12.20
  -3  -3  -4  481.45   11.60
   3  -3   4  475.95   11.50
  -3  -3  -4  467.45   11.70
  -3  -3  -4  457.55   11.70
  -3  -3  -4  474.95   11.60
   3  -3   4  480.45   11.50
   3  -3   4  458.05   12.00
  -3  -3  -4  474.15    9.80
  -3   3  -4  480.05   11.40
  -3   3  -4  476.75   12.00
   3   3   4  464.35   11.90
  -3   3  -4  480.05   11.10
   3   3   4  458.95   11.60
  -3   3  -4  477.85    9.70
   3   3   4  474.35   11.80
   3   3   4  479.95   11.90
  -3   3  -4  482.35   11.40
   4  -3   4  534.95   13.20
   4  -3   4  566.04   13.50
  -4  -3  -4  518.65   14.80
  -4  -3  -4  560.44   13.50
  -4  -3  -4  560.24   11.40
   4  -3   4  564.74   14.20
  -4  -3  -4  556.84   13.70
   4  -3   4  546.05   13.70
  -4  -3  -4  554.04   13.60
   4  -3   4  544.45   11.30
   4   3   4  564.74   13.70
  -4   3  -4  557.34   13.40
  -4   3  -4  540.35   11.40
  -4   3  -4  564.84   12.90
  -4   3  -4  559.24   13.40
   4   3   4  561.54   13.60
   4   3   4  558.14   13.80
  -4   3  -4  545.75   14.00
   4   3   4  534.05   13.70
   5  -3   4  452.05   10.40
  -5  -3  -4  482.15   12.90
  -5  -3  -4  458.55   10.20
   5  -3   4  473.95   13.00
  -5  -3  -4  473.85   12.90
   5  -3   4  461.95   12.60
  -5  -3  -4  470.35   13.00
   5  -3   4  478.25   13.60
  -5  -3  -4  453.15   12.40
  -5   3  -4  473.25   12.60
  -5   3  -4  465.35   12.50
   5   3   4  468.75   13.00
  -5   3  -4  465.95   10.60
  -5   3  -4  472.85   12.00
   5   3   4  472.85   12.70
   5   3   4  466.75   12.80
  -5   3  -4  414.36   12.80
   5   3   4  470.75   12.70
  -6  -3  -4  646.34   16.60
   6  -3   4  637.54   15.60
   6  -3   4  644.94   16.50
   6  -3   4  647.74   17.40
  -6  -3  -4  655.03   16.90
  -6  -3  -4  638.04   13.70
   6  -3   4  666.73   16.60
   6  -3   4  632.24   14.20
  -6  -3  -4  634.84   16.10
  -6  -3  -4  641.54   17.10
  -6   3  -4  668.73   16.60
   6   3   4  656.43   16.90
  -6   3  -4  666.63   16.60
   6   3   4  651.03   17.10
   6   3   4  646.64   16.30
   6   3   4  623.14   16.30
  -6   3  -4  640.04   15.50
  -6   3  -4  644.24   14.50
   7  -3   4  457.05   11.80
  -7  -3  -4  445.36   14.20
   7  -3   4  450.85   15.30
   7  -3   4  393.16   16.30
  -7  -3  -4  472.35   14.70
  -7  -3  -4  446.06   13.60
  -7  -3  -4  440.06   11.00
   7  -3   4  449.76   14.40
   7  -3   4  454.05   12.90
   7   3   4  436.06   14.10
   7   3   4  450.85   13.80
   7   3   4  425.26   15.00
   7   3   4  455.65   15.00
  -7   3  -4  461.45   12.00
  -7   3  -4  440.06   12.80
  -7   3  -4  467.95   14.10
  -7   3  -4  466.65   14.20
  -8  -3  -4    7.80    7.00
   8  -3   4   -0.50    5.80
  -8  -3  -4    4.60    5.80
  -8  -3  -4    3.20    3.60
  -8  -3  -4    7.70    5.30
   8  -3   4    6.90    4.50
   8  -3   4   10.70    6.30
   8  -3   4    3.90    4.40
   8  -3   4    5.30    6.50
  -8  -3  -4    9.70    5.90
  -8   3  -4   10.00    4.40
  -8   3  -4    2.40    5.20
   8   3   4    4.60    5.00
   8   3   4    1.60    5.90
  -8   3  -4    9.70    5.20
   8   3   4    8.20    6.70
   8   3   4    9.70    6.10
  -8   3  -4    5.20    4.70
   9  -3   4  105.79   10.00
  -9  -3  -4  123.89   12.90
   9  -3   4  120.99   10.50
   9  -3   4  100.69    9.80
  -9  -3  -4  101.89    9.10
  -9  -3  -4   96.99    7.90
   9  -3   4  107.89   10.20
  -9   3  -4  112.29    9.50
  -9   3  -4  126.09   12.40
  -9   3  -4  120.09    9.80
   9   3   4  108.89   10.60
   9   3   4  119.89   11.20
  10  -3   4   37.40   11.70
 -10  -3  -4   37.10    9.60
  10  -3   4   44.50   10.70
  10  -3   4   32.60    7.00
 -10  -3  -4   37.30    6.10
 -10  -3  -4   24.50    9.20
  10  -3   4   31.00    9.00
  10   3   4   31.20   13.00
 -10   3  -4   35.50    9.30
 -10   3  -4   44.00    8.90
 -10   3  -4   34.30    7.30
 -10   3  -4   22.20    8.40
  10   3   4   31.00    8.20
  11  -3   4   51.49    9.30
 -11  -3  -4   45.20   12.50
  11  -3   4   50.09   16.00
 -11  -3  -4   48.90   13.60
 -11   3  -4   75.59   12.80
 -11   3  -4   64.39   13.60
 -11   3  -4   41.70    9.70
  11   3   4   62.19   11.20
 -12  -4   4   17.50    8.60
 -12  -4   4   32.50    9.00
 -12  -4   4   27.30    9.10
 -12  -4   4   12.30    8.60
 -12   4   4   23.30    9.00
 -12   4   4   28.90    8.90
 -12   4   4   16.80    8.20
 -11  -4   4   89.99    9.50
 -11  -4   4   84.99    8.40
 -11  -4   4   74.09    8.90
 -11  -4   4   81.39    8.80
 -11   4   4   73.79    9.30
 -11   4   4  100.39   10.00
 -11   4   4   87.09    8.60
 -11   4   4  103.49    9.40
 -11   4   4  101.79    9.00
 -10  -4   4  209.88   12.30
 -10  -4   4  202.38   11.50
 -10  -4   4  193.98   11.40
 -10  -4   4  219.78   12.00
 -10   4   4  220.08   11.80
 -10   4   4  203.78   11.00
 -10   4   4  201.38   11.50
  10   4  -4  200.18    6.30
 -10   4   4  204.08   11.20
 -10   4   4  198.78   11.40
  -9  -4   4   14.90    5.00
  -9  -4   4   17.80    4.10
  -9  -4   4   22.70    5.20
   9  -4  -4   18.40    6.20
   9  -4  -4   12.40    4.80
  -9  -4   4   25.50    5.20
  -9  -4   4   20.50    4.60
   9  -4  -4    6.00    5.10
  -9   4   4   13.70    6.70
  -9   4   4   14.20    4.70
  -9   4   4   13.70    4.50
   9   4  -4   26.90    6.30
   9   4  -4   16.20    5.40
   9   4  -4   13.00    5.10
  -9   4   4   19.10    4.80
   9   4  -4   13.00    4.60
  -9   4   4   13.90    4.50
  -8  -4   4  182.18    8.60
  -8  -4   4  177.48    8.50
  -8  -4   4  192.38    9.00
  -8  -4   4  183.28    9.40
  -8  -4   4  180.38    7.40
   8   4  -4  190.98    8.50
  -8   4   4  196.28    8.70
  -8   4   4  187.48    7.80
  -8   4   4  197.38    9.20
   8   4  -4  138.09    8.60
  -8   4   4  172.08    9.20
  -8   4   4  185.88    8.40
   8   4  -4  181.98    8.20
   7  -4  -4  230.88    5.90
   7  -4  -4  227.38    8.40
  -7  -4   4  229.08    9.30
  -7  -4   4  228.18    8.50
  -7  -4   4  234.88    8.80
  -7  -4   4  227.78    8.50
  -7  -4   4  227.88    7.90
   7  -4  -4  213.78    9.20
  -7   4   4  234.88    8.90
  -7   4   4  228.18    8.50
   7   4  -4  229.78    8.70
   7   4  -4  220.58    8.10
  -7   4   4  226.48    7.40
   7   4  -4  233.98    8.30
  -7   4   4  218.28    9.30
  -7   4   4  217.58    8.40
   7   4  -4  228.88    8.50
  -6  -4   4  508.05   12.70
   6  -4  -4  498.25   12.50
   6  -4  -4  492.65   12.40
  -6  -4   4  500.15   13.20
  -6  -4   4  502.95   12.40
   6  -4  -4  493.35   10.80
  -6  -4   4  497.75   12.50
   6  -4  -4  529.25   13.50
  -6  -4   4  495.15   12.60
  -6   4   4  498.45   11.20
  -6   4   4  513.65   12.90
  -6   4   4  496.85   12.70
  -6   4   4  493.75   12.50
  -6   4   4  489.45   12.50
   6   4  -4  513.15   12.30
   6   4  -4  512.05   12.20
  -6   4   4  499.05   13.00
   6   4  -4  504.35   12.30
   6   4  -4  512.65   12.60
  -6   4   4  495.95   13.30
   5  -4  -4 1746.23   33.30
  -5  -4   4 1672.93   33.30
  -5  -4   4 1707.63   33.10
   5  -4  -4 1719.43   33.20
  -5  -4   4 1704.33   34.00
   5  -4  -4 1700.13   32.20
  -5  -4   4 1748.82   33.50
  -5  -4   4 1724.63   33.40
   5  -4  -4 1774.12   34.30
  -5   4   4 1692.33   33.30
  -5   4   4 1712.13   34.20
   5   4  -4 1712.73   33.10
  -5   4   4 1699.13   33.40
   5   4  -4 1777.62   33.30
  -5   4   4 1757.42   33.50
   5   4  -4 1749.82   33.10
   5   4  -4 1729.73   33.00
  -5   4   4 1678.33   33.90
  -5   4   4 1702.13   31.60
  -5   4   4 1744.93   33.60
  -4  -4   4  239.38    7.20
  -4  -4   4  240.48    7.70
  -4  -4   4  239.68    7.30
   4  -4  -4  234.38    7.00
  -4  -4   4  239.48    7.90
   4  -4  -4  238.28    7.90
   4  -4  -4  243.18    6.80
  -4  -4   4  238.88    7.00
   4  -4  -4  246.38    7.20
  -4   4   4  243.28    7.20
  -4   4   4  240.48    8.00
   4   4  -4  236.28    6.90
   4   4  -4  234.28    8.00
  -4   4   4  231.88    7.20
  -4   4   4  232.08    5.20
  -4   4   4  222.98    8.00
   4   4  -4  241.68    6.90
   4   4  -4  242.48    6.90
   4   4  -4  220.48    9.80
   4   4  -4  230.28    7.00
  -4   4   4  242.78    7.50
  -4   4   4  230.28    7.30
   3  -4  -4  582.24   14.10
   3  -4  -4  600.24   13.20
  -3  -4   4  616.64   14.10
   3  -4  -4  605.74   13.30
  -3  -4   4  613.44   12.70
  -3  -4   4  594.24   13.30
  -3  -4   4  617.64   13.40
  -3   4   4  609.24   13.40
  -3   4   4  604.64   13.40
  -3   4   4  639.24   14.00
   3   4  -4  590.34   13.20
   3   4  -4  620.64   13.10
  -3   4   4  616.74   13.70
   3   4  -4  621.84   13.20
  -3   4   4  624.04   13.50
  -3   4   4  603.64   14.20
  -3   4   4  604.14   13.50
   3   4  -4  613.24   13.20
   3   4  -4  605.04   12.70
  -2  -4   4  480.35   11.10
   2  -4  -4  466.85   11.80
   2  -4  -4  499.45   11.30
  -2  -4   4  501.75   11.00
   2  -4  -4  497.05   11.40
  -2  -4   4  487.65    9.70
   2  -4  -4  495.95   11.30
   2  -4  -4  498.15   11.40
  -2  -4   4  492.55   11.80
  -2  -4   4  500.85   11.00
  -2  -4   4  493.75   11.20
  -2  -4   4  489.75   10.20
   2  -4  -4  449.66   12.80
   2   4  -4  504.25   11.90
   2   4  -4  494.25   11.10
   2   4  -4  481.85   11.10
  -2   4   4  497.05   11.50
  -2   4   4  512.35   11.60
  -2   4   4  494.55   11.30
   2   4  -4  500.85   11.00
  -2   4   4  484.85   11.90
   2   4  -4  481.95   10.90
  -2   4   4  498.85   11.70
  -2   4   4  505.55   11.50
  -2   4   4  498.55   11.30
   2   4  -4  495.05   10.10
   1  -4  -4   25.70    2.80
  -1  -4   4   31.20    2.80
  -1  -4   4   22.70    2.90
  -1  -4   4   25.20    2.60
  -1  -4   4   24.80    2.50
   1  -4  -4   24.30    2.60
   1  -4  -4   23.50    2.70
   1  -4  -4   23.50    3.00
  -1  -4   4   20.00    2.30
  -1  -4   4   21.90    2.80
   1   4  -4   23.40    2.80
  -1   4   4   24.70    3.00
   1   4  -4   27.90    2.70
  -1   4   4   24.50    2.70
  -1   4   4   25.90    3.20
  -1   4   4   24.70    2.60
   1   4  -4   22.40    2.40
  -1   4   4   26.00    2.90
   1   4  -4   25.30    2.40
  -1   4   4   22.10    2.50
  -1   4   4   23.70    3.00
   1   4  -4   24.80    1.90
   0  -4   4 1264.17   24.30
   0  -4   4 1251.57   25.60
   0  -4  -4 1271.67   25.10
   0  -4   4 1309.07   24.70
   0  -4  -4 1245.18   25.00
   0  -4  -4 1256.37   23.30
   0  -4  -4 1311.47   25.40
   0  -4   4 1259.27   25.10
   0  -4   4 1289.17   24.70
   0   4  -4 1317.27   25.20
   0   4  -4 1290.97   24.60
   0   4  -4 1298.57   24.80
   0   4   4 1282.77   25.30
   0   4   4 1238.48   24.80
   0   4   4 1223.88   25.00
   0   4   4 1282.57   24.30
   0   4  -4 1194.98   26.10
   0   4   4 1233.88   25.20
   0   4  -4 1241.08   25.50
   0   4   4 1251.07   24.90
   0   4   4 1260.87   25.40
  -1  -4  -4  104.19    4.60
   1  -4   4  110.79    5.80
   1  -4   4  114.09    5.00
   1  -4   4  109.69    5.40
  -1  -4  -4  110.99    5.30
  -1  -4  -4  106.59    4.40
  -1  -4  -4  104.49    5.10
   1  -4   4  109.29    4.80
   1  -4   4  102.99    4.80
  -1  -4  -4   98.59    6.20
   1   4   4  106.89    5.50
   1   4   4  105.09    5.30
   1   4   4  108.39    4.30
  -1   4  -4  109.89    4.90
  -1   4  -4  104.29    5.20
   1   4   4  107.69    5.10
  -1   4  -4  110.49    4.90
  -1   4  -4  117.79    5.00
   1   4   4  106.99    5.10
   1   4   4  109.69    5.10
   1   4   4  108.19    5.70
   2  -4   4  885.21   18.80
  -2  -4  -4  865.01   18.10
  -2  -4  -4  895.71   19.00
   2  -4   4  882.81   18.60
  -2  -4  -4  874.51   18.90
  -2  -4  -4  873.11   17.50
   2  -4   4  865.91   18.50
  -2  -4  -4  881.51   19.00
   2  -4   4  876.31   19.20
   2  -4   4  887.71   18.50
   2   4   4  905.51   19.20
   2   4   4  862.01   18.60
  -2   4  -4  868.31   19.20
  -2   4  -4  877.71   18.50
   2   4   4  868.01   18.60
  -2   4  -4  890.11   18.40
  -2   4  -4  900.11   18.60
   2   4   4  878.91   19.10
  -2   4  -4  881.21   18.50
   2   4   4  862.41   19.20
   2   4   4  863.51   17.20
  -2   4  -4  884.11   18.60
   2   4   4  887.61   18.90
  -3  -4  -4 1452.55   29.30
  -3  -4  -4 1427.46   29.30
  -3  -4  -4 1448.96   27.50
   3  -4   4 1482.95   29.10
   3  -4   4 1425.96   29.10
  -3  -4  -4 1451.55   28.90
   3  -4   4 1479.35   29.00
   3  -4   4 1458.45   29.70
  -3  -4  -4 1476.25   29.40
  -3   4  -4 1451.65   29.60
  -3   4  -4 1445.36   26.30
  -3   4  -4 1493.15   29.00
   3   4   4 1459.15   29.40
   3   4   4 1494.85   29.40
   3   4   4 1421.76   27.30
   3   4   4 1449.85   29.50
   3   4   4 1442.96   29.40
  -3   4  -4 1432.46   28.90
  -3   4  -4 1483.45   28.90
   3   4   4 1395.66   28.90
   4  -4   4  105.69    6.60
  -4  -4  -4   99.29    4.70
   4  -4   4  102.99    6.40
  -4  -4  -4   80.39    6.50
   4  -4   4   94.39    6.20
  -4  -4  -4  101.39    6.70
  -4  -4  -4  102.49    6.60
  -4  -4  -4   99.79    6.70
   4  -4   4  107.09    7.10
   4   4   4  111.09    7.10
  -4   4  -4  101.59    6.10
   4   4   4   84.79    6.60
   4   4   4   96.29    6.70
  -4   4  -4   80.29    6.80
   4   4   4   83.59    8.10
  -4   4  -4   99.09    3.90
  -4   4  -4   99.59    6.30
  -4   4  -4   98.49    7.00
   5  -4   4  198.48    8.80
  -5  -4  -4  197.78    9.00
  -5  -4  -4  212.28    8.80
   5  -4   4  192.08    9.60
   5  -4   4  182.08    8.70
  -5  -4  -4  185.68    8.80
  -5  -4  -4  203.38    6.50
   5  -4   4  190.38    8.80
  -5  -4  -4  191.18    8.70
  -5   4  -4  193.28    8.20
   5   4   4  199.38    9.20
  -5   4  -4  200.38    8.50
   5   4   4  195.18    8.90
   5   4   4  195.28    8.80
  -5   4  -4  200.78    6.20
  -5   4  -4  192.58    8.60
   5   4   4  201.38    9.10
   6  -4   4   29.00    5.30
  -6  -4  -4   26.70    5.10
   6  -4   4   26.40    5.10
  -6  -4  -4   20.10    3.30
  -6  -4  -4   26.10    5.40
  -6  -4  -4   22.70    5.00
  -6  -4  -4   39.10    5.60
   6  -4   4   27.10    5.00
   6  -4   4   24.00    5.20
   6   4   4   23.10    4.70
  -6   4  -4   31.70    3.60
  -6   4  -4   21.60    4.70
   6   4   4   20.70    4.80
  -6   4  -4   36.70    6.10
  -6   4  -4   29.40    5.00
   6   4   4   29.90    5.60
  -6   4  -4   25.40    4.70
   6   4   4   30.80    5.80
  -7  -4  -4  135.69   10.10
  -7  -4  -4  135.49    6.80
   7  -4   4  144.79   10.80
  -7  -4  -4  123.49   10.00
   7  -4   4  133.29    8.30
   7  -4   4  139.19   10.50
   7  -4   4  119.39   10.60
   7  -4   4  139.39   11.00
  -7  -4  -4  137.29    9.90
  -7   4  -4  127.59    9.40
  -7   4  -4  115.99   11.30
   7   4   4  134.29    9.90
  -7   4  -4  147.79   10.00
  -7   4  -4  139.59    7.20
   7   4   4  132.29   11.50
   7   4   4  157.28   11.30
  -7   4  -4  137.59   10.20
   7   4   4  139.49   10.70
   8  -4   4  323.77   15.70
  -8  -4  -4  315.37   14.40
  -8  -4  -4  295.77   10.00
   8  -4   4  294.67   15.20
   8  -4   4  297.67   12.00
  -8  -4  -4  333.97   14.60
   8  -4   4  321.67   15.50
   8   4   4  336.17   16.60
  -8   4  -4  300.47   13.90
  -8   4  -4  320.47   10.90
   8   4   4  320.97   16.40
   8   4   4  305.77   13.70
  -9  -4  -4   11.30    7.70
   9  -4   4   -1.60    8.70
  -9  -4  -4   12.60    7.40
   9  -4   4    6.20    6.00
  -9  -4  -4   12.90    5.10
   9  -4   4    2.60    8.50
   9   4   4    8.00    9.40
  -9   4  -4   18.80    8.20
   9   4   4    3.80    7.10
  -9   4  -4    7.50    7.30
  -9   4  -4    0.60    5.30
  -9   4  -4    5.80    6.80
 -10  -4  -4   22.20   10.10
 -10  -4  -4   31.80    6.80
  10  -4   4   26.00    7.60
  10  -4   4   45.30   12.10
 -10   4  -4   38.10    9.50
  10   4   4   33.40    9.60
 -10   4  -4   25.30    9.80
 -10   4  -4   28.30    7.40
 -12  -5   4   74.69   11.60
 -12  -5   4   95.89   11.40
 -12  -5   4   89.79   11.30
 -12  -5   4  108.39   12.20
 -12   5   4   99.09   11.00
 -12   5   4   72.19   11.00
 -12   5   4   79.09   11.20
 -12   5   4   76.89   11.20
 -11  -5   4   45.70    9.10
 -11  -5   4   74.49    9.50
 -11  -5   4   68.09    9.60
 -11  -5   4   59.59    9.10
 -11   5   4   71.19    8.80
 -11   5   4   64.69    9.20
 -11   5   4   40.80    9.40
 -11   5   4   60.89    9.30
  11   5  -4   73.99    9.00
 -11   5   4   74.09    9.40
 -10  -5   4   22.20    6.80
 -10  -5   4   20.70    5.60
 -10  -5   4   26.00    6.80
 -10  -5   4   12.10    6.50
 -10  -5   4   29.70    7.10
 -10   5   4   19.00    7.10
 -10   5   4    8.10    6.40
  10   5  -4   16.90    6.10
 -10   5   4    6.40    6.20
 -10   5   4    9.20    6.20
 -10   5   4   25.20    6.50
  10   5  -4   19.80    6.40
  -9  -5   4   61.89    7.20
  -9  -5   4   64.09    5.90
  -9  -5   4   67.79    6.90
  -9  -5   4   70.99    6.80
  -9  -5   4   67.39    7.00
  -9   5   4   66.89    6.10
  -9   5   4   66.49    7.90
   9   5  -4   71.89    7.10
   9   5  -4   48.10    7.50
  -9   5   4   66.79    6.80
   9   5  -4   61.49    6.50
  -9   5   4   55.09    6.80
  -9   5   4   65.69    7.00
   8  -5  -4  507.35   14.70
  -8  -5   4  499.95   13.50
  -8  -5   4  509.75   14.70
   8  -5  -4  487.95   16.00
  -8  -5   4  505.45   14.70
  -8  -5   4  521.15   14.90
   8  -5  -4  490.15   11.30
   8  -5  -4  506.55   14.90
  -8  -5   4  492.75   15.10
  -8   5   4  511.55   15.50
  -8   5   4  508.85   15.70
  -8   5   4  525.95   14.60
   8   5  -4  499.45   14.20
  -8   5   4  506.15   14.80
   8   5  -4  494.75   15.00
  -8   5   4  504.35   13.10
   8   5  -4  524.05   14.50
  -8   5   4  516.85   15.40
  -8   5   4  502.35   17.20
  -7  -5   4  466.55   13.10
   7  -5  -4  464.85   13.30
  -7  -5   4  475.95   13.90
  -7  -5   4  448.46   12.70
  -7  -5   4  475.35   13.30
  -7  -5   4  456.55   13.30
   7  -5  -4  453.55   11.00
  -7   5   4  453.45   11.30
   7   5  -4  468.55   12.90
  -7   5   4  484.45   14.30
  -7   5   4  462.05   13.50
   7   5  -4  455.15   13.20
  -7   5   4  469.45   13.50
  -7   5   4  474.75   13.20
   7   5  -4  471.35   13.00
  -7   5   4  499.35   13.60
   6  -5  -4   17.60    3.70
  -6  -5   4   13.60    3.50
  -6  -5   4   18.30    3.80
  -6  -5   4   16.00    3.80
   6  -5  -4   12.10    3.60
  -6  -5   4   18.90    4.10
   6  -5  -4    6.60    3.60
   6  -5  -4   15.30    3.00
  -6  -5   4   17.90    3.70
   6   5  -4   17.70    3.50
   6   5  -4   17.40    3.40
  -6   5   4   17.50    2.70
  -6   5   4   12.30    3.80
  -6   5   4   16.60    4.20
  -6   5   4   17.00    4.40
   6   5  -4   19.40    3.80
  -6   5   4   18.60    3.80
  -6   5   4   18.70    4.00
  -6   5   4   10.40    3.70
  -6   5   4   14.50    3.50
   6   5  -4   11.70    3.60
  -5  -5   4  426.36   12.10
   5  -5  -4  447.06   11.70
  -5  -5   4  448.46   11.40
  -5  -5   4  446.76   11.80
   5  -5  -4  444.56   12.60
   5  -5  -4  432.86   10.80
  -5  -5   4  441.06   11.70
   5  -5  -4  437.46   11.70
  -5  -5   4  438.36   12.10
  -5   5   4  434.36    9.40
   5   5  -4  441.36   11.40
  -5   5   4  436.06   11.70
  -5   5   4  432.96   11.90
  -5   5   4  448.36   12.10
   5   5  -4  454.15   11.50
   5   5  -4  441.86   11.40
   5   5  -4  449.95   11.60
  -5   5   4  448.46   12.00
  -5   5   4  441.56   12.70
   5   5  -4  438.26   11.50
  -5   5   4  442.26   12.70
   4  -5  -4  582.94   14.40
  -4  -5   4  552.54   12.90
   4  -5  -4  568.24   13.40
  -4  -5   4  555.54   13.60
  -4  -5   4  566.14   14.30
   4  -5  -4  580.44   13.20
  -4  -5   4  567.64   13.70
  -4  -5   4  551.24   14.10
   4  -5  -4  596.84   13.70
   4   5  -4  547.25   13.20
   4   5  -4  558.24   13.30
  -4   5   4  568.44   13.60
  -4   5   4  582.94   13.90
  -4   5   4  570.14   13.90
   4   5  -4  588.64   14.40
   4   5  -4  576.14   12.90
  -4   5   4  588.74   14.40
   4   5  -4  565.94   14.40
  -4   5   4  553.14   14.30
   4   5  -4  559.94   13.30
  -4   5   4  562.84   13.60
   3  -5  -4  834.02   18.10
  -3  -5   4  857.61   17.30
  -3  -5   4  843.92   18.30
   3  -5  -4  873.11   19.00
   3  -5  -4  861.01   18.30
  -3  -5   4  861.71   19.00
   3  -5  -4  855.31   18.20
  -3  -5   4  846.72   18.00
  -3  -5   4  864.31   18.40
  -3  -5   4  848.12   18.80
   3   5  -4  797.32   19.00
   3   5  -4  855.51   18.00
   3   5  -4  839.32   17.90
  -3   5   4  864.61   18.70
  -3   5   4  848.52   18.60
  -3   5   4  858.91   18.30
  -3   5   4  864.11   18.40
   3   5  -4  877.51   18.10
  -3   5   4  838.62   18.30
   3   5  -4  844.72   17.20
  -3   5   4  849.52   18.50
  -3   5   4  830.62   19.00
   2  -5  -4  287.97    8.60
   2  -5  -4  289.37    9.10
  -2  -5   4  282.17    8.20
   2  -5  -4  277.77    8.30
  -2  -5   4  276.77    6.50
   2  -5  -4  302.77    8.80
  -2  -5   4  272.97    8.30
  -2  -5   4  279.17    9.00
   2  -5  -4  286.07    8.70
  -2  -5   4  304.47    8.40
   2  -5  -4  282.97    8.40
  -2  -5   4  299.67    8.50
  -2   5   4  298.17    9.10
  -2   5   4  290.17    8.90
  -2   5   4  300.77    8.60
  -2   5   4  281.87    8.70
  -2   5   4  287.77    8.70
   2   5  -4  285.17    8.00
   2   5  -4  294.37    8.30
  -2   5   4  278.87    8.40
   2   5  -4  288.37    7.00
   2   5  -4  282.97    8.20
   2   5  -4  289.07    9.10
   2   5  -4  291.27    8.30
  -2   5   4  286.97    9.00
  -1  -5   4  491.35   11.80
  -1  -5   4  497.15   10.70
   1  -5  -4  507.45   12.40
   1  -5  -4  417.76   13.90
  -1  -5   4  492.75   11.80
   1  -5  -4  490.15   12.20
  -1  -5   4  488.95   12.50
  -1  -5   4  505.05   12.00
   1  -5  -4  508.55   12.00
   1  -5  -4  518.65   12.20
   1   5  -4  497.25   10.10
   1   5  -4  497.15   11.70
   1   5  -4  500.85   11.80
   1   5  -4  506.75   11.90
  -1   5   4  506.05   12.20
   1   5  -4  517.35   12.60
  -1   5   4  506.15   12.50
  -1   5   4  491.55   12.10
  -1   5   4  506.35   11.90
  -1   5   4  495.45   12.60
  -1   5   4  514.85   12.50
   1   5  -4  510.25   12.00
  -1   5   4  502.75   12.60
   0  -5   4 1099.69   22.50
   0  -5  -4 1086.09   20.90
   0  -5   4 1120.79   21.80
   0  -5  -4 1118.49   23.20
   0  -5  -4 1084.79   23.10
   0  -5  -4 1105.09   23.00
   0  -5   4 1111.49   23.40
   0  -5   4 1118.59   22.50
   0  -5   4 1077.49   23.00
   0   5   4 1083.29   22.70
   0   5   4 1091.69   22.10
   0   5  -4 1117.19   22.50
   0   5   4 1125.29   23.10
   0   5   4 1103.89   22.70
   0   5  -4 1099.39   22.40
   0   5  -4 1111.99   22.60
   0   5  -4 1111.99   20.00
   0   5  -4 1122.29   22.60
   0   5   4 1089.39   23.00
   0   5   4 1102.69   23.00
   0   5   4 1092.29   23.30
   0   5  -4 1119.39   23.00
   1  -5   4  685.63   16.30
  -1  -5  -4  698.83   16.00
   1  -5   4  684.13   15.50
  -1  -5  -4  688.93   16.10
   1  -5   4  707.23   16.10
   1  -5   4  678.23   15.00
  -1  -5  -4  696.63   14.60
  -1  -5  -4  684.93   15.10
   1  -5   4  703.83   15.60
  -1  -5  -4  687.73   16.10
  -1   5  -4  693.13   15.50
  -1   5  -4  708.73   15.70
  -1   5  -4  693.33   15.90
   1   5   4  678.93   15.80
  -1   5  -4  693.13   15.60
  -1   5  -4  700.93   15.60
   1   5   4  677.13   15.70
   1   5   4  699.73   16.20
   1   5   4  704.13   16.10
   1   5   4  689.03   14.80
   1   5   4  674.03   16.40
   1   5   4  693.43   15.90
   2  -5   4  358.46   10.20
  -2  -5  -4  337.27    9.50
   2  -5   4  347.57   10.70
   2  -5   4  360.66   10.60
   2  -5   4  351.36   10.10
  -2  -5  -4  359.66   10.40
   2  -5   4  355.76    9.90
  -2  -5  -4  360.06   10.70
  -2  -5  -4  351.46    9.40
  -2  -5  -4  347.67   10.50
   2   5   4  355.06   10.70
   2   5   4  356.56   10.20
   2   5   4  346.57   10.80
  -2   5  -4  352.36   10.10
  -2   5  -4  343.97   10.10
   2   5   4  364.06   10.80
  -2   5  -4  354.36   10.10
   2   5   4  353.56   10.20
  -2   5  -4  347.47    9.90
   2   5   4  340.47    8.80
   2   5   4  347.77   10.30
   2   5   4  357.86   10.80
  -2   5  -4  346.77   10.60
  -2   5  -4  343.57   10.20
  -3  -5  -4   24.40    3.90
  -3  -5  -4   28.10    3.30
  -3  -5  -4   26.20    4.20
   3  -5   4   30.10    4.20
  -3  -5  -4   34.60    4.60
  -3  -5  -4   26.60    4.20
   3  -5   4   25.50    3.90
   3  -5   4   32.20    4.60
   3  -5   4   25.30    3.80
   3  -5   4   28.60    4.10
  -3   5  -4   27.80    4.50
   3   5   4   29.40    4.30
  -3   5  -4   24.90    2.20
   3   5   4   25.90    4.30
  -3   5  -4   18.70    3.30
  -3   5  -4   24.60    3.80
  -3   5  -4   33.70    4.10
  -3   5  -4   28.90    4.10
   3   5   4   21.30    3.90
   3   5   4   27.70    3.70
   3   5   4   22.20    3.70
   3   5   4   30.20    4.00
   3   5   4   26.60    3.10
  -3   5  -4   20.90    3.60
   3   5   4   24.80    3.60
  -4  -5  -4  216.08    9.20
   4  -5   4  198.18    8.70
   4  -5   4  204.78    8.90
  -4  -5  -4  210.48    7.20
   4  -5   4  214.98    9.60
  -4  -5  -4  191.18    8.70
   4  -5   4  224.28    8.90
  -4  -5  -4  208.68    9.20
  -4   5  -4  197.98    8.60
  -4   5  -4  210.78    8.70
   4   5   4  192.88    8.60
  -4   5  -4  206.48    5.50
  -4   5  -4  206.48    8.80
  -4   5  -4  207.18    8.70
   4   5   4  205.68    9.20
   4   5   4  210.38    8.80
  -4   5  -4  197.88    9.30
   4   5   4  216.28    9.60
   4   5   4  205.58    9.20
  -5  -5  -4  396.46   12.90
   5  -5   4  384.96   12.50
   5  -5   4  340.57   12.20
  -5  -5  -4  368.36   12.80
   5  -5   4  373.96   12.30
  -5  -5  -4  368.36   10.10
  -5  -5  -4  361.46   12.40
  -5  -5  -4  361.86   12.50
   5  -5   4  391.86   13.10
  -5   5  -4  369.96   11.90
  -5   5  -4  382.66    9.00
   5   5   4  379.06   13.30
   5   5   4  374.46   12.70
  -5   5  -4  374.76   12.10
   5   5   4  394.36   12.80
  -5   5  -4  372.86   13.20
   5   5   4  375.86   12.00
  -5   5  -4  399.86   12.30
   5   5   4  356.96   13.00
  -6  -5  -4   95.89    9.70
  -6  -5  -4  104.69    9.60
  -6  -5  -4  118.09   10.20
   6  -5   4  115.59   10.40
   6  -5   4  112.09    9.50
   6  -5   4  110.69    9.80
  -6  -5  -4  111.99    6.90
  -6  -5  -4  120.59   10.00
   6  -5   4  109.79    9.40
  -6   5  -4  108.79    8.70
  -6   5  -4  111.89   10.60
   6   5   4  101.89   10.60
   6   5   4   81.29    7.40
  -6   5  -4  106.29    9.10
  -6   5  -4  109.99    9.00
  -6   5  -4  109.99    5.90
   6   5   4  107.59    9.50
   6   5   4  113.89   10.70
  -7  -5  -4  223.18   12.70
  -7  -5  -4  162.38   14.30
  -7  -5  -4  199.68    8.70
   7  -5   4  204.58   12.80
   7  -5   4  207.98   13.70
   7  -5   4  206.28   12.60
  -7  -5  -4  197.58   13.50
  -7   5  -4  219.28   11.90
  -7   5  -4  225.18   11.80
   7   5   4  214.58   13.90
   7   5   4  210.48   14.20
   7   5   4  216.48   11.90
  -7   5  -4  220.38    8.50
  -8  -5  -4    5.60    4.80
  -8  -5  -4    0.10    6.70
  -8  -5  -4    9.40    7.40
   8  -5   4   12.00    5.60
   8  -5   4    8.00    6.80
   8  -5   4  -12.70   12.50
   8  -5   4    7.90    7.90
   8   5   4   23.70    7.30
  -8   5  -4   12.60    7.60
  -8   5  -4    9.20    6.40
  -8   5  -4    9.80    7.10
  -8   5  -4   10.60    4.90
   8   5   4   10.00    8.40
   9  -5   4   20.40    9.60
   9  -5   4    6.30   11.10
   9  -5   4   18.80    7.10
  -9  -5  -4   23.30    9.50
  -9  -5  -4   16.20    8.50
  -9  -5  -4   15.60    5.80
  -9   5  -4   -2.20    8.20
  -9   5  -4    8.50    8.00
   9   5   4   10.70    8.50
   9   5   4    2.80   12.30
  -9   5  -4   -2.90    5.70
 -10  -5  -4  219.18   21.30
  10  -5   4  176.38   15.80
  10  -5   4  146.39   14.20
 -10  -5  -4  159.78   14.70
 -10   5  -4  127.99   12.20
  10   5   4  157.28   13.80
 -11  -6   4   45.80    9.20
 -11  -6   4   41.60    9.90
 -11  -6   4   21.80    9.30
 -11  -6   4   31.40    9.80
 -11   6   4   33.20    9.30
 -11   6   4   44.10    9.40
 -11   6   4   12.70    8.90
 -11   6   4   31.70   10.20
  11   6  -4   27.30    8.80
 -10  -6   4  158.98   13.50
 -10  -6   4  142.39   13.20
 -10  -6   4  148.89   13.60
 -10  -6   4  144.79   12.20
 -10  -6   4  164.68   13.60
 -10   6   4  162.68   13.40
 -10   6   4  169.88   12.70
 -10   6   4  149.69   12.80
 -10   6   4  143.39   12.20
  10   6  -4  152.78   12.80
 -10   6   4  137.09   12.90
 -10   6   4  161.88   15.10
  -9  -6   4  101.09    8.80
  -9  -6   4  105.29   10.50
  -9  -6   4  104.69    8.90
   9  -6  -4   95.09    6.40
  -9  -6   4   97.29    8.20
  -9  -6   4  112.99    9.10
  -9   6   4   99.09    9.20
  -9   6   4  106.19   10.50
   9   6  -4  103.39   10.50
  -9   6   4  108.49    8.90
  -9   6   4  109.79    9.20
   9   6  -4   95.29    8.30
  -9   6   4  120.59   10.20
  -9   6   4  122.59   10.30
  -9   6   4   91.09    8.30
   8  -6  -4   -7.60    3.30
  -8  -6   4    1.00    5.10
  -8  -6   4    2.00    5.00
  -8  -6   4    3.90    5.20
  -8  -6   4    0.60    4.80
  -8  -6   4    3.00    5.00
   8   6  -4    1.10    4.80
  -8   6   4   -2.80    6.00
  -8   6   4   10.10    5.80
  -8   6   4    9.20    5.30
  -8   6   4    7.30    5.70
  -8   6   4    1.50    4.70
   8   6  -4    7.20    5.90
  -8   6   4   -5.30    4.10
  -8   6   4    6.50    5.10
  -7  -6   4   11.30    5.10
   7  -6  -4   13.30    3.90
   7  -6  -4   17.30    5.10
   7  -6  -4    8.50    5.90
  -7  -6   4   11.00    4.70
  -7  -6   4    7.30    4.30
  -7  -6   4    4.80    4.30
   7  -6  -4   13.40    4.60
  -7  -6   4   14.60    4.70
   7   6  -4   12.80    4.40
  -7   6   4    9.30    4.80
  -7   6   4    8.40    4.30
  -7   6   4   12.50    5.20
   7   6  -4   10.80    4.60
  -7   6   4    7.40    5.20
   7   6  -4    9.40    4.60
  -7   6   4    8.50    6.00
  -7   6   4   14.40    3.50
  -7   6   4   10.80    5.30
   7   6  -4   12.50    5.00
   7   6  -4   26.10    5.70
  -6  -6   4   44.50    5.10
  -6  -6   4   42.50    5.10
  -6  -6   4   33.90    5.20
  -6  -6   4   38.40    5.40
   6  -6  -4   36.70    5.00
   6  -6  -4   43.40    4.60
  -6  -6   4   44.70    5.00
  -6   6   4   52.99    6.20
  -6   6   4   38.70    5.30
   6   6  -4   39.30    4.90
  -6   6   4   42.70    4.40
  -6   6   4   45.90    5.30
  -6   6   4   38.80    6.30
   6   6  -4   39.60    4.90
  -6   6   4   43.70    5.10
   6   6  -4   51.79    5.10
  -6   6   4   44.60    5.40
  -6   6   4   38.40    4.90
  -5  -6   4  353.66   11.20
  -5  -6   4  358.96   11.80
   5  -6  -4  328.37   15.10
  -5  -6   4  350.16   11.20
   5  -6  -4  356.56   11.10
   5  -6  -4  357.66   11.90
  -5  -6   4  350.36   11.70
  -5  -6   4  359.26   10.50
   5   6  -4  376.36   11.10
  -5   6   4  352.86   11.10
  -5   6   4  382.76   12.20
  -5   6   4  342.67   12.20
   5   6  -4  365.16   10.90
  -5   6   4  351.66   11.60
  -5   6   4  357.96   13.30
   5   6  -4  365.96   10.50
   5   6  -4  362.26   11.20
  -5   6   4  366.26   11.30
  -4  -6   4  147.29    7.50
  -4  -6   4  141.09    7.10
   4  -6  -4  138.59    7.10
   4  -6  -4  153.58    7.10
  -4  -6   4  153.98    8.20
   4  -6  -4  132.59    7.10
  -4  -6   4  155.98    8.10
   4   6  -4  149.49    7.20
  -4   6   4  136.69    7.80
   4   6  -4  138.09    7.00
  -4   6   4  141.99    7.20
   4   6  -4  146.09    6.30
  -4   6   4  145.29    7.80
  -4   6   4  151.38    8.30
   4   6  -4  156.08    7.30
  -4   6   4  155.38    8.00
  -4   6   4  147.39    7.30
   3  -6  -4  126.79    6.80
   3  -6  -4  137.19    6.90
   3  -6  -4  134.39    6.80
  -3  -6   4  131.79    7.50
  -3  -6   4  124.29    7.70
  -3  -6   4  132.69    6.70
  -3  -6   4  135.19    6.80
   3  -6  -4  140.59    7.50
  -3  -6   4  128.89    7.00
   3   6  -4  135.89    6.90
   3   6  -4  139.99    6.70
   3   6  -4  125.49    6.60
  -3   6   4  142.69    7.60
   3   6  -4  127.79    6.50
  -3   6   4  125.89    7.40
  -3   6   4  128.69    7.30
  -3   6   4  139.19    7.50
  -3   6   4  130.19    6.80
   3   6  -4  139.29    5.60
  -3   6   4  131.39    6.80
   3   6  -4  138.89    7.70
   2  -6  -4  563.14   13.80
  -2  -6   4  567.74   14.60
   2  -6  -4  543.75   13.90
  -2  -6   4  555.14   13.70
  -2  -6   4  556.64   13.90
  -2  -6   4  550.74   13.80
  -2  -6   4  561.64   14.80
  -2  -6   4  559.64   13.70
   2  -6  -4  551.84   14.30
  -2  -6   4  545.55   11.50
   2  -6  -4  552.64   14.00
   2  -6  -4  563.44   14.20
   2  -6  -4  536.25   13.80
   2   6  -4  572.54   13.70
  -2   6   4  533.95   13.80
   2   6  -4  553.54   12.10
  -2   6   4  561.64   14.40
   2   6  -4  575.44   14.60
   2   6  -4  557.14   13.60
   2   6  -4  551.14   13.50
  -2   6   4  549.05   14.30
  -2   6   4  566.54   14.40
  -2   6   4  561.24   13.90
  -2   6   4  559.24   14.40
  -2   6   4  561.74   14.00
   2   6  -4  567.74   13.80
   1  -6  -4   12.20    3.20
   1  -6  -4    9.40    3.30
  -1  -6   4   11.40    3.10
   1  -6  -4   16.90    3.80
   1  -6  -4    9.50    3.40
   1  -6  -4    6.60    3.20
  -1  -6   4   10.50    3.70
   1  -6  -4    9.70    2.00
  -1  -6   4    9.20    3.20
  -1  -6   4   10.80    3.40
  -1  -6   4    3.90    2.90
  -1  -6   4   12.10    2.50
  -1   6   4   10.60    3.20
   1   6  -4    7.60    2.80
  -1   6   4   10.60    3.50
   1   6  -4   10.50    2.10
   1   6  -4   14.20    3.30
  -1   6   4    5.50    3.20
   1   6  -4    9.90    3.10
  -1   6   4    8.60    3.30
  -1   6   4   17.70    4.30
  -1   6   4    3.10    3.00
  -1   6   4   10.50    3.40
   1   6  -4    9.30    3.20
   1   6  -4    9.90    3.30
   0  -6  -4  588.14   12.80
   0  -6   4  600.34   15.40
   0  -6  -4  618.04   15.40
   0  -6   4  609.94   14.70
   0  -6   4  599.94   14.70
   0  -6  -4  626.64   15.40
   0  -6   4  607.94   15.40
   0  -6   4  596.64   13.50
   0  -6  -4  617.04   15.10
   0   6   4  613.24   14.90
   0   6   4  618.04   15.40
   0   6  -4  597.24   14.90
   0   6  -4  607.54   14.80
   0   6  -4  620.44   14.80
   0   6  -4  595.24   12.00
   0   6  -4  605.34   14.60
   0   6   4  617.94   15.00
   0   6   4  609.54   15.60
   0   6   4  617.84   15.40
   0   6   4  620.34   15.00
   0   6  -4  644.84   15.40
  -1  -6  -4  262.97    8.00
   1  -6   4  256.07    9.10
  -1  -6  -4  248.68    9.80
  -1  -6  -4  271.77    9.00
   1  -6   4  269.67    9.70
   1  -6   4  270.27    9.30
  -1  -6  -4  273.67    9.80
  -1  -6  -4  280.27    9.70
   1  -6   4  258.67    9.70
  -1   6  -4  290.47    9.20
   1   6   4  259.97   10.00
   1   6   4  275.07    8.50
  -1   6  -4  267.17    5.80
  -1   6  -4  267.57    9.20
   1   6   4  265.77   10.10
  -1   6  -4  251.07    8.90
   1   6   4  281.07    9.30
  -1   6  -4  288.07    9.30
   1   6   4  264.37    9.20
  -1   6  -4  248.58    6.00
   1   6   4  270.57    9.20
  -1   6  -4  259.27    9.60
  -2  -6  -4   54.69    5.50
  -2  -6  -4   60.59    5.40
  -2  -6  -4   62.19    5.80
   2  -6   4   57.09    5.10
  -2  -6  -4   54.59    5.10
   2  -6   4   68.59    6.60
   2  -6   4   60.69    5.60
   2  -6   4   62.99    6.40
   2  -6   4   61.79    5.10
  -2   6  -4   58.99    5.10
   2   6   4   56.89    5.70
  -2   6  -4   64.39    6.40
  -2   6  -4   54.49    4.80
   2   6   4   55.09    4.90
   2   6   4   59.49    5.70
   2   6   4   61.79    6.10
   2   6   4   58.79    5.20
   2   6   4   49.99    4.90
  -2   6  -4   53.19    5.30
   2   6   4   56.59    5.30
  -3  -6  -4  520.95   13.40
   3  -6   4  556.74   14.90
   3  -6   4  543.25   14.30
   3  -6   4  531.15   14.80
   3  -6   4  545.55   15.10
  -3  -6  -4  533.05   14.90
   3  -6   4  531.15   14.50
  -3  -6  -4  551.64   15.20
  -3  -6  -4  524.65   14.00
  -3   6  -4  512.45   14.50
  -3   6  -4  544.05   14.50
  -3   6  -4  559.34   14.60
  -3   6  -4  556.64   14.80
  -3   6  -4  525.35   15.00
   3   6   4  550.54   14.70
   3   6   4  546.85   15.20
   3   6   4  534.55   15.20
   3   6   4  557.64   14.80
   3   6   4  541.05   13.10
   3   6   4  520.55   15.20
   3   6   4  535.35   14.20
   4  -6   4   87.79    7.70
   4  -6   4   98.39    8.20
  -4  -6  -4   85.39    8.50
   4  -6   4   92.49    8.50
  -4  -6  -4   82.39    7.90
   4  -6   4   89.79    8.70
  -4  -6  -4  104.79    6.80
  -4  -6  -4   90.79    8.20
   4   6   4   71.19    7.80
  -4   6  -4   99.39    7.90
   4   6   4   83.59    7.00
  -4   6  -4   86.09    8.60
  -4   6  -4   91.49    4.00
  -4   6  -4   74.59    6.40
   4   6   4  103.19    7.20
  -4   6  -4   86.89    8.40
   4   6   4   95.99    7.90
  -4   6  -4   90.59    7.90
   4   6   4   99.39    7.90
   4   6   4   88.39    7.10
   4   6   4   86.39    8.90
   5  -6   4  102.29    9.70
  -5  -6  -4  109.09   10.00
  -5  -6  -4  127.79    7.30
  -5  -6  -4  120.89    9.60
   5  -6   4  109.59   10.00
   5  -6   4  113.29    9.90
  -5  -6  -4  123.69   10.00
   5  -6   4  103.99    9.60
  -5  -6  -4  125.09   10.00
  -5   6  -4  119.29    9.20
  -5   6  -4  120.09    5.20
  -5   6  -4  115.09   10.20
  -5   6  -4  132.99    9.10
   5   6   4  100.09   10.20
  -5   6  -4   82.19    7.10
  -5   6  -4  132.89   10.60
   5   6   4  126.19   10.00
   5   6   4  116.79   10.90
   5   6   4  109.69    8.90
   5   6   4  116.49    8.10
   5   6   4  116.69   10.80
   5   6   4  123.29    9.40
   6  -6   4   55.49    7.50
   6  -6   4   71.89    7.70
   6  -6   4   51.79    7.80
  -6  -6  -4   59.09    5.50
  -6  -6  -4   55.19    7.10
  -6  -6  -4   49.99    6.90
  -6   6  -4   64.79    6.90
   6   6   4   58.09    7.70
  -6   6  -4   73.99   13.00
   6   6   4   52.39    6.20
   6   6   4   64.19    8.30
  -6   6  -4   56.89    7.70
   6   6   4   58.39    8.10
  -6   6  -4   48.60    6.60
  -6   6  -4   57.89    5.60
   6   6   4   67.09    8.20
  -7  -6  -4   26.50    5.20
   7  -6   4   33.10    9.00
   7  -6   4   22.00    7.80
  -7  -6  -4   24.80    7.10
   7  -6   4   27.70    8.00
  -7  -6  -4   22.70    8.40
  -7  -6  -4   19.70    6.90
   7   6   4   22.80    7.60
  -7   6  -4   25.80    7.10
   7   6   4   12.80    6.70
  -7   6  -4   15.10    7.30
  -7   6  -4   31.00    4.60
  -7   6  -4   23.10    7.00
   7   6   4   25.00    7.10
   7   6   4   18.80    8.40
  -8  -6  -4  181.78   15.60
   8  -6   4  175.48   16.40
   8  -6   4  219.68   17.50
  -8  -6  -4  190.68   11.10
  -8  -6  -4  215.38   16.30
   8   6   4  201.98   19.50
   8   6   4  208.08   15.10
   8   6   4  195.88   15.70
   8   6   4  225.48   15.30
  -8   6  -4  223.38   15.20
  -8   6  -4  188.38   10.20
  -8   6  -4  204.48   15.10
   9  -6   4   33.40   11.80
   9  -6   4   28.80    8.30
  -9  -6  -4    4.20   12.00
  -9  -6  -4   38.00    7.80
  -9  -6  -4   37.30   11.40
  -9   6  -4    9.10    9.80
  -9   6  -4   35.20   10.10
   9   6   4   38.50   10.20
   9   6   4   51.39   10.80
  -9   6  -4   27.60    9.70
 -11  -7   4    5.90   10.30
 -11  -7   4   28.50   12.10
 -11  -7   4   37.30   11.10
 -11   7   4    5.80   10.10
 -11   7   4    2.30   17.50
 -11   7   4    9.50   10.20
 -10  -7   4   10.80    8.70
 -10  -7   4   13.10    9.20
 -10  -7   4   12.60    8.90
 -10  -7   4   23.30    8.90
 -10   7   4   16.00    8.20
  10   7  -4   20.50    8.70
 -10   7   4   32.50    9.20
 -10   7   4   15.80    8.10
 -10   7   4   32.40   10.20
  -9  -7   4    2.00    7.00
  -9  -7   4   10.50    7.00
  -9  -7   4    1.70    8.20
  -9  -7   4    1.40    7.10
  -9  -7   4    4.20    6.90
  -9   7   4   -4.50    6.00
  -9   7   4    6.80    7.10
  -9   7   4   -8.20    9.50
   9   7  -4   -3.90    8.20
  -9   7   4   16.70    8.60
   9   7  -4    7.80    7.00
  -9   7   4   -2.70    6.40
  -9   7   4   -5.10    6.90
  -8  -7   4   77.09    8.00
   8  -7  -4   78.69    6.40
  -8  -7   4   69.19    7.30
  -8  -7   4   77.59    8.00
  -8  -7   4   68.89    8.50
  -8  -7   4   79.69    8.00
  -8   7   4   54.49    7.60
  -8   7   4   71.59    7.80
  -8   7   4   74.79    7.80
  -8   7   4   61.69    8.60
   8   7  -4   72.09    7.70
  -8   7   4   67.89    8.90
  -8   7   4   78.39    7.90
   8   7  -4  100.79   10.20
  -8   7   4   86.19    6.50
  -7  -7   4  241.18   12.10
   7  -7  -4  257.67   10.00
  -7  -7   4  265.27   12.60
  -7  -7   4  256.47   12.00
  -7  -7   4  245.28   11.60
  -7  -7   4  238.98   12.70
  -7   7   4  255.57   12.00
  -7   7   4  243.68   11.70
  -7   7   4  240.98   13.30
   7   7  -4  257.27   11.60
   7   7  -4  229.58   12.70
  -7   7   4  249.38   11.70
  -7   7   4  235.08   13.30
  -7   7   4  237.58   13.10
   7   7  -4  259.47   11.50
  -6  -7   4  150.88   11.00
   6  -7  -4  154.78   11.60
   6  -7  -4  166.18    8.70
  -6  -7   4  169.88    9.90
  -6  -7   4  169.18   10.50
   6  -7  -4  167.18   10.20
   6  -7  -4  161.48   10.50
  -6  -7   4  150.78    9.60
   6   7  -4  141.09   10.10
   6   7  -4  160.48    9.50
  -6   7   4  157.08    9.70
   6   7  -4  146.29   10.10
  -6   7   4  146.19    9.60
  -6   7   4  156.68   10.70
  -6   7   4  177.18    9.90
   6   7  -4  159.78   10.60
   6   7  -4  164.18    9.40
  -6   7   4  153.48   12.10
  -6   7   4  166.38   11.20
  -6   7   4  153.18   10.60
   5  -7  -4   55.79    5.60
   5  -7  -4   56.59    5.00
   5  -7  -4   40.90    5.40
  -5  -7   4   40.50    5.90
  -5  -7   4   69.59    6.80
   5   7  -4   52.59    5.10
  -5   7   4   43.90    5.70
  -5   7   4   60.39    5.90
   5   7  -4   58.79    5.70
  -5   7   4   57.79    7.10
  -5   7   4   51.29    5.50
  -5   7   4   49.80    6.20
  -5   7   4   68.19    6.70
   5   7  -4   43.00    5.70
   5   7  -4   60.29    6.40
   4  -7  -4  261.07   10.00
  -4  -7   4  273.57   10.50
   4  -7  -4  270.47   10.50
  -4  -7   4  288.47   11.10
   4  -7  -4  264.17    7.10
  -4  -7   4  266.97   10.40
  -4  -7   4  253.57   11.40
  -4   7   4  279.37   11.10
   4   7  -4  270.07   10.30
   4   7  -4  266.27   15.00
  -4   7   4  264.37   10.90
  -4   7   4  278.77   10.40
  -4   7   4  269.27   11.50
  -4   7   4  267.97   10.30
   4   7  -4  279.27    9.20
  -4   7   4  276.67   11.20
   3  -7  -4   23.10    4.40
   3  -7  -4   33.50    5.40
   3  -7  -4   41.40    5.20
  -3  -7   4   25.40    5.00
  -3  -7   4   25.70    4.30
  -3  -7   4   29.00    4.40
  -3  -7   4   29.60    5.40
  -3   7   4   24.10    4.10
   3   7  -4   24.70    4.30
  -3   7   4   26.00    4.80
  -3   7   4   23.20    5.10
  -3   7   4   35.00    5.30
  -3   7   4   32.70    4.90
   3   7  -4   27.40    3.70
  -3   7   4   32.50    4.90
   2  -7  -4  610.34   16.40
   2  -7  -4  637.64   16.20
  -2  -7   4  637.94   16.00
  -2  -7   4  602.44   17.00
  -2  -7   4  647.54   16.00
   2  -7  -4  627.14   16.00
  -2  -7   4  631.44   16.00
  -2  -7   4  644.44   16.70
  -2  -7   4  615.74   13.20
   2  -7  -4  619.94   16.20
  -2  -7   4  629.04   16.80
  -2  -7   4  641.64   15.80
  -2   7   4  635.94   16.30
   2   7  -4  588.54   17.40
  -2   7   4  640.14   16.10
  -2   7   4  638.44   16.70
   2   7  -4  639.24   15.80
  -2   7   4  601.34   16.40
   2   7  -4  624.64   13.80
  -2   7   4  621.54   15.90
  -2   7   4  624.44   15.90
   2   7  -4  592.84   15.80
  -1  -7   4  140.29    8.60
  -1  -7   4  158.78    8.80
  -1  -7   4  149.39    8.40
  -1  -7   4  156.38    8.00
   1  -7  -4  162.28    8.50
   1  -7  -4  151.78    8.40
   1  -7  -4  159.58    4.90
  -1  -7   4  161.68    8.30
   1  -7  -4  164.08    8.80
  -1  -7   4  156.88    6.00
  -1   7   4  160.08    8.00
   1   7  -4  158.18    8.10
  -1   7   4  168.78    8.80
  -1   7   4  146.79    8.90
   1   7  -4  144.39    8.00
  -1   7   4  155.38    8.20
  -1   7   4  155.68    8.20
   1   7  -4  143.39    5.70
  -1   7   4  156.68    9.10
   1   7  -4  147.89    8.20
   1   7  -4  147.19    8.80
   1   7  -4  162.78    7.90
  -1   7   4  173.18    8.30
   0  -7   4   84.29    7.40
   0  -7   4   75.99   10.40
   0  -7   4   73.99    5.50
   0  -7  -4   80.59    7.30
   0  -7  -4   69.79    5.20
   0  -7  -4   80.79    7.40
   0  -7  -4   80.09    4.50
   0  -7  -4   80.59    7.90
   0  -7   4   80.39    7.70
   0  -7   4   73.79    6.90
   0   7  -4   87.59    7.30
   0   7  -4   78.19    4.20
   0   7  -4   78.69    7.70
   0   7   4   76.69    6.90
   0   7   4   76.59    5.70
   0   7  -4   76.89    7.50
   0   7   4   74.59    6.50
   0   7   4   70.89    6.90
   0   7   4   78.89    7.60
   0   7   4   78.09    7.90
   0   7   4   73.29    7.00
   0   7  -4   85.49    7.00
  -1  -7  -4  189.28    9.40
   1  -7   4  185.68    9.30
   1  -7   4  185.48    9.10
  -1  -7  -4  189.08    8.80
  -1  -7  -4  199.88    9.80
  -1  -7  -4  197.28    7.50
   1  -7   4  189.48    9.20
   1  -7   4  188.98    7.90
   1  -7   4  181.68    9.50
  -1   7  -4  200.58    8.90
   1   7   4  204.78    8.50
  -1   7  -4  198.68    9.10
  -1   7  -4  186.18    9.20
  -1   7  -4  200.48    5.50
   1   7   4  188.18    8.80
   1   7   4  204.08   10.10
   1   7   4  178.58    9.70
  -1   7  -4  191.88    9.70
   1   7   4  201.78    8.90
   1   7   4  192.18    9.10
   1   7   4  187.58   10.10
   2  -7   4  151.68    9.10
  -2  -7  -4  139.19    8.30
   2  -7   4  148.09    8.60
   2  -7   4  146.89    8.20
  -2  -7  -4  141.09    8.00
   2  -7   4  150.78    9.10
  -2  -7  -4  136.49    9.00
   2  -7   4  143.89    9.20
  -2  -7  -4  138.29    9.10
   2   7   4  142.39    8.20
   2   7   4  146.59    8.50
   2   7   4  142.99   10.30
   2   7   4  131.89    9.30
   2   7   4  152.48   10.10
  -2   7  -4  144.29    4.50
  -2   7  -4  141.49    8.70
  -2   7  -4  151.28    9.30
  -2   7  -4  146.39    8.50
   2   7   4  153.38    8.60
   2   7   4  137.69    7.70
  -2   7  -4  150.78    4.60
   3  -7   4  284.37   11.60
  -3  -7  -4  264.67   10.50
   3  -7   4  259.37   10.80
  -3  -7  -4  266.47   11.40
  -3  -7  -4  276.17   11.60
   3  -7   4  276.57   11.70
  -3  -7  -4  268.87   10.20
   3  -7   4  261.07   11.10
   3  -7   4  257.17   11.20
   3   7   4  253.77    9.90
   3   7   4  259.07   11.80
   3   7   4  249.38   12.30
  -3   7  -4  258.27   11.70
   3   7   4  261.17   11.10
  -3   7  -4  264.27    6.60
   3   7   4  271.37   11.20
  -3   7  -4  267.17   11.10
   3   7   4  258.57   15.00
  -3   7  -4  263.77   10.90
  -3   7  -4  251.47    6.30
   3   7   4  269.77   10.50
  -4  -7  -4  256.37   12.10
  -4  -7  -4  259.47   12.00
   4  -7   4  241.38   12.20
   4  -7   4  239.08   11.60
  -4  -7  -4  261.07   10.40
  -4  -7  -4  269.67   11.60
   4  -7   4  266.77   12.40
   4  -7   4  262.67   12.10
  -4   7  -4  240.88   12.80
  -4   7  -4  246.88    6.50
  -4   7  -4  259.57   14.20
   4   7   4  255.57   13.30
   4   7   4  252.37   12.00
  -4   7  -4  260.27   11.40
  -4   7  -4  235.08   12.50
  -4   7  -4  280.87   12.00
   4   7   4  240.48   11.40
   4   7   4  241.48   10.20
   4   7   4  241.98   12.90
   4   7   4  257.07   10.70
   4   7   4  257.97   13.00
   5  -7   4   34.10    6.80
  -5  -7  -4   45.50    7.20
   5  -7   4   38.60    6.90
  -5  -7  -4   39.00    5.40
  -5  -7  -4   42.90    7.40
   5  -7   4   39.00    7.80
  -5  -7  -4   38.30    7.20
  -5   7  -4   38.70    6.60
   5   7   4   29.80    7.30
   5   7   4   49.99    6.70
   5   7   4   42.40    8.60
  -5   7  -4   44.70    6.90
   5   7   4   44.70    7.60
  -5   7  -4   27.30    7.50
   5   7   4   30.50    6.40
  -5   7  -4   46.70    3.60
   5   7   4   35.70    8.30
   6  -7   4  210.38   14.30
  -6  -7  -4  217.18   13.70
   6  -7   4  205.08   16.00
  -6  -7  -4  153.98   15.20
  -6  -7  -4  199.28   10.40
   6  -7   4  200.58   14.80
  -6  -7  -4  203.28   13.80
  -6   7  -4  207.18   13.30
   6   7   4  207.58   14.00
   6   7   4  221.68   15.90
  -6   7  -4  188.88    7.60
   6   7   4  209.08   11.60
   6   7   4  202.88   13.20
  -6   7  -4  214.18   15.30
   6   7   4  203.78   13.60
   7  -7   4   46.10   10.50
   7  -7   4   39.60    9.20
  -7  -7  -4   46.20    9.50
  -7  -7  -4   46.40    7.00
  -7  -7  -4   53.99    9.40
   7   7   4   49.90    8.40
   7   7   4   43.40    7.60
   7   7   4   71.39   11.90
  -7   7  -4   50.19    8.60
  -7   7  -4   44.30    5.50
  -7   7  -4   35.90    8.20
   7   7   4   45.10    9.30
   7   7   4   37.80    8.70
   8  -7   4   23.50   11.00
  -8  -7  -4    9.20   10.10
  -8  -7  -4    8.40   10.20
  -8  -7  -4   13.90    7.00
  -8   7  -4   17.20    9.80
   8   7   4    8.60    9.70
  -8   7  -4   33.10    9.50
   8   7   4   13.10    8.00
   8   7   4    7.00    9.70
   8   7   4   11.70    9.60
   9  -7   4   11.70    9.40
  -9  -7  -4   -7.40   13.00
   9  -7   4   23.50   12.80
  -9  -7  -4   16.70   12.40
   9   7   4    8.50    9.90
  -9   7  -4    0.40   11.80
   9   7   4    9.10   11.70
   9   7   4    2.80   11.70
   9   7   4   -6.70   11.30
 -10  -8   4  113.89   12.90
 -10  -8   4   94.19   13.10
 -10   8   4   94.29   12.50
 -10   8   4  105.39   12.30
  -9  -8   4   24.00    9.00
  -9  -8   4   40.00   10.00
  -9  -8   4   22.00    9.40
  -9   8   4   36.70    9.20
  -9   8   4   39.90    9.30
  -9   8   4   37.50    9.20
  -9   8   4   45.80   11.10
   9   8  -4   39.70    9.20
  -8  -8   4   26.80    8.70
  -8  -8   4   12.00    7.60
  -8  -8   4   20.40    7.80
   8   8  -4   27.10    7.80
  -8   8   4   20.90    7.40
  -8   8   4    9.30    7.60
  -8   8   4   15.50    7.40
  -8   8   4   13.90   10.60
  -8   8   4   31.50    9.10
  -7  -8   4  119.29   10.00
  -7  -8   4  125.09   12.10
   7  -8  -4  111.59   10.60
  -7  -8   4   99.49    9.10
  -7   8   4   98.59   10.00
  -7   8   4   98.99    9.00
  -7   8   4   86.19    8.50
  -7   8   4   89.19    8.60
   7   8  -4  100.09    8.60
   7   8  -4  110.99   10.90
  -7   8   4   78.39    9.80
   7   8  -4   92.59    9.00
  -7   8   4  101.59   10.70
  -6  -8   4   23.90    6.40
  -6  -8   4   33.70    6.80
   6  -8  -4   34.20    4.80
  -6  -8   4   21.30    8.70
   6  -8  -4   41.10    6.80
  -6  -8   4   39.30    6.90
  -6   8   4   35.20    6.70
  -6   8   4   25.80    7.00
  -6   8   4   22.40    7.90
   6   8  -4   37.30    6.50
  -6   8   4   33.00    7.70
  -6   8   4   34.80    6.70
  -6   8   4   28.90    6.70
   6   8  -4   35.00    6.30
  -5  -8   4  354.06   15.20
  -5  -8   4  361.36   13.80
   5  -8  -4  367.56   10.00
  -5  -8   4  367.66   14.60
  -5  -8   4  363.36   13.90
   5  -8  -4  364.16   13.50
  -5   8   4  346.07   13.60
  -5   8   4  383.56   14.70
   5   8  -4  359.26   13.40
  -5   8   4  375.56   15.00
   5   8  -4  362.36   12.70
  -5   8   4  395.76   15.60
  -5   8   4  363.26   13.80
   5   8  -4  371.16   13.60
  -4  -8   4  197.78   13.00
  -4  -8   4  227.18   11.20
   4  -8  -4  186.18   10.50
   4  -8  -4  221.08   12.30
   4  -8  -4  219.08    6.80
  -4  -8   4  220.78   11.10
  -4  -8   4  211.88   11.70
   4  -8  -4  200.88   11.50
  -4   8   4  224.48   13.00
   4   8  -4  222.38   12.40
   4   8  -4  214.88   11.40
   4   8  -4  218.78    9.30
  -4   8   4  230.18   11.10
   4   8  -4  235.48   10.70
  -4   8   4  210.68   11.70
  -4   8   4  198.28   10.70
  -4   8   4  222.68   13.10
   4   8  -4  228.38   11.00
  -4   8   4  219.98   12.50
  -3  -8   4  145.89   10.80
   3  -8  -4  164.08    5.60
   3  -8  -4  171.48   10.80
   3  -8  -4  163.68   10.80
  -3  -8   4  161.18    9.70
  -3  -8   4  154.28    9.90
  -3  -8   4  167.68   11.80
  -3  -8   4  166.48   10.50
   3   8  -4  163.08    9.70
  -3   8   4  177.28   10.50
  -3   8   4  160.48   11.00
  -3   8   4  167.88   11.70
   3   8  -4  165.18    9.50
   3   8  -4  134.29   10.20
   3   8  -4  160.68    7.60
   3   8  -4  171.38   10.80
  -3   8   4  154.88    9.70
  -3   8   4  167.98   11.30
  -3   8   4  165.88   13.90
  -2  -8   4  272.97   11.60
  -2  -8   4  297.07   12.30
  -2  -8   4  293.07   11.50
  -2  -8   4  284.97    8.10
   2  -8  -4  278.17   12.10
  -2  -8   4  271.97   13.30
   2  -8  -4  287.47    7.30
  -2  -8   4  298.77   12.20
  -2  -8   4  227.98   13.60
   2   8  -4  289.67   12.20
   2   8  -4  292.77    9.20
  -2   8   4  302.47   11.50
  -2   8   4  293.17   13.00
   2   8  -4  298.97   11.60
   2   8  -4  286.77   12.10
  -2   8   4  283.57   12.20
   2   8  -4  272.17   11.10
   2   8  -4  265.97   13.50
  -2   8   4  281.97   12.70
  -2   8   4  304.77   11.90
   1  -8  -4   26.50    5.60
  -1  -8   4   27.90    6.70
  -1  -8   4   30.40    7.20
  -1  -8   4   31.30    6.00
  -1  -8   4   37.10    5.60
  -1  -8   4   29.30    4.10
  -1  -8   4   18.50    5.20
   1  -8  -4   29.30    3.00
   1  -8  -4   27.90    5.50
  -1   8   4   39.50    5.80
  -1   8   4   22.00    5.10
   1   8  -4   32.60    5.30
   1   8  -4   31.40    3.60
   1   8  -4   26.70    5.80
   1   8  -4   33.90    5.30
  -1   8   4   29.00    6.30
  -1   8   4   25.30    5.20
   1   8  -4   23.10    5.50
  -1   8   4   25.50    6.20
  -1   8   4   20.80    5.20
   1   8  -4   27.80    6.40
   0  -8   4  126.19    9.70
   0  -8   4  122.29    8.90
   0  -8  -4  128.09    9.90
   0  -8  -4  126.49   10.50
   0  -8  -4  124.39    5.80
   0  -8   4  130.49    9.90
   0  -8   4  108.29    7.10
   0  -8  -4  105.89    9.20
   0  -8   4  128.29   11.80
   0   8  -4  129.59    9.30
   0   8  -4  117.59    5.80
   0   8   4  131.29    9.30
   0   8   4  122.19    8.90
   0   8  -4  119.19    9.20
   0   8   4  126.59    9.30
   0   8   4  126.49    9.00
   0   8   4  110.19   10.50
   0   8   4  127.19   10.80
   0   8  -4  119.19   10.50
   0   8  -4  107.49    9.60
   1  -8   4  177.78   11.10
  -1  -8  -4  197.08   10.30
   1  -8   4  177.98   10.80
   1  -8   4  164.38   12.80
  -1  -8  -4  167.68   10.50
   1  -8   4  163.78   10.10
  -1  -8  -4  172.58   11.70
   1  -8   4  173.88    8.80
  -1  -8  -4  171.78   10.60
  -1  -8  -4  170.78    8.20
   1   8   4  168.88   11.50
  -1   8  -4  180.08   10.90
   1   8   4  171.98   10.10
   1   8   4  171.18    9.60
  -1   8  -4  190.58   11.50
   1   8   4  173.58   10.00
   1   8   4  175.18    9.80
   1   8   4  167.78   10.80
  -1   8  -4  165.38   10.20
  -1   8  -4  187.18   10.20
   1   8   4  169.18   12.20
  -1   8  -4  164.08    6.00
  -2  -8  -4   45.00    6.50
  -2  -8  -4   54.89    6.30
  -2  -8  -4   32.90    8.90
   2  -8   4   50.69    6.60
   2  -8   4   64.19    6.50
  -2  -8  -4   62.39    7.30
   2  -8   4   51.89    7.30
   2  -8   4   56.89    7.10
   2  -8   4   52.29    6.50
   2   8   4   52.09    6.10
  -2   8  -4   57.79    6.60
   2   8   4   54.29    6.30
  -2   8  -4   55.19    4.40
  -2   8  -4   53.69    7.30
   2   8   4   58.89    8.20
  -2   8  -4   51.09    7.90
   2   8   4   61.49    7.80
   2   8   4   44.90    7.00
  -2   8  -4   53.79    3.90
   2   8   4   46.20    7.80
  -2   8  -4   64.29    6.70
   2   8   4   60.49    6.80
   2   8   4   54.49    6.50
   3  -8   4  264.47   13.60
   3  -8   4  245.18   13.10
  -3  -8  -4  251.57   13.40
   3  -8   4  281.07   12.70
  -3  -8  -4  257.27   11.70
  -3  -8  -4  238.98   11.30
  -3  -8  -4  278.97   13.20
   3  -8   4  250.97   12.20
   3   8   4  256.57   16.60
  -3   8  -4  246.08    6.70
  -3   8  -4  257.87   12.20
   3   8   4  253.27   13.80
   3   8   4  267.37   15.30
   3   8   4  244.58   11.60
  -3   8  -4  241.58   14.00
  -3   8  -4  262.57    7.10
   3   8   4  245.48   14.60
  -3   8  -4  271.07   13.00
   3   8   4  244.18   12.70
   3   8   4  254.67   12.20
  -4  -8  -4   51.59    8.00
   4  -8   4   52.19    8.10
   4  -8   4   53.59    7.80
   4  -8   4   60.59    8.30
  -4  -8  -4   45.30    7.00
  -4  -8  -4   53.99    6.50
  -4  -8  -4   43.50    7.20
   4  -8   4   62.29    8.10
   4   8   4   47.40    7.70
  -4   8  -4   48.30    4.50
  -4   8  -4   60.59    7.70
  -4   8  -4   61.49    7.70
   4   8   4   48.50    7.30
   4   8   4   66.09    7.00
   4   8   4   58.69    9.50
   4   8   4   58.79    7.20
   4   8   4   48.50    7.50
   4   8   4   38.80    7.80
   5  -8   4   57.79    9.00
  -5  -8  -4   56.09    7.00
   5  -8   4   52.69    9.00
  -5  -8  -4   68.29    9.20
  -5  -8  -4   62.49    9.20
   5  -8   4   44.30   10.20
  -5   8  -4   65.69    8.60
   5   8   4   64.39    9.70
   5   8   4   44.80   10.30
   5   8   4   59.49    8.30
  -5   8  -4   50.69    7.80
   5   8   4   63.29    7.70
   5   8   4   65.89    8.70
  -5   8  -4   53.49    4.10
  -6  -8  -4   50.09    9.50
  -6  -8  -4   57.89    9.50
   6  -8   4   46.00    9.80
  -6  -8  -4   57.69    7.70
   6  -8   4   40.30   10.80
  -6  -8  -4   58.99   10.10
   6   8   4   68.39    9.70
   6   8   4   41.20   12.30
  -6   8  -4   48.50    8.80
   6   8   4   49.10    9.10
   6   8   4   56.59    9.50
  -6   8  -4   49.10    5.70
  -6   8  -4   49.70    9.30
   6   8   4   58.49    8.10
  -7  -8  -4    9.10   10.50
  -7  -8  -4   17.50   10.70
   7  -8   4   23.30   10.50
  -7   8  -4    3.50    9.20
   7   8   4    3.30    9.70
   7   8   4    3.80    9.80
   7   8   4   13.40    9.50
  -7   8  -4   12.80    9.70
   7   8   4    6.60    7.90
   8  -8   4   87.69   13.80
  -8  -8  -4   66.09   13.00
  -8  -8  -4   39.90   15.90
   8   8   4   61.09   13.30
   8   8   4   73.89   11.10
  -8   8  -4   67.49   12.60
   8   8   4   53.99   12.60
   8   8   4   56.69   12.30
  -8  -9   4   48.50   10.50
  -8  -9   4   61.29   10.60
  -8  -9   4   67.49   11.20
  -8   9   4   55.69   10.40
  -8   9   4   57.99   10.10
  -8   9   4   51.49    9.90
   8   9  -4   58.89   10.30
  -8   9   4   48.00   11.00
  -7  -9   4   13.00    8.50
  -7  -9   4   13.20    8.60
  -7  -9   4   25.80    9.20
   7   9  -4    3.10    7.90
  -7   9   4    9.30    8.00
  -7   9   4    4.00    8.20
  -7   9   4   11.10    8.20
  -7   9   4   14.70    9.30
   6  -9  -4   83.19    6.50
  -6  -9   4   80.99    9.20
   6  -9  -4   73.29    9.40
  -6  -9   4   99.49    9.70
  -6  -9   4   85.29   10.40
  -6   9   4   74.29   10.20
  -6   9   4   73.59    8.70
  -6   9   4   71.89   11.30
   6   9  -4   61.99    8.80
  -6   9   4   83.09    8.90
  -6   9   4   84.09   12.10
  -6   9   4   61.99    8.30
   6   9  -4   36.20    8.50
   6   9  -4   82.99    9.10
   5  -9  -4   77.79    8.90
  -5  -9   4  116.39   11.80
   5  -9  -4  100.79    7.40
  -5  -9   4   79.29    8.60
  -5  -9   4  103.99    9.50
   5   9  -4   94.99    8.90
  -5   9   4   92.19    9.40
  -5   9   4   94.29    9.00
   5   9  -4  103.59    8.70
  -5   9   4   93.29    8.60
  -5   9   4  120.79   10.80
  -5   9   4   78.69   10.60
  -4  -9   4   17.30    7.00
  -4  -9   4   15.70    7.00
   4  -9  -4   12.00    7.40
  -4  -9   4   14.40    5.80
   4  -9  -4   27.30    3.80
  -4  -9   4   15.50    7.10
  -4   9   4   13.40    6.60
  -4   9   4   16.30    7.40
   4   9  -4   18.50    6.40
   4   9  -4   22.40    6.20
  -4   9   4   33.00    9.00
  -4   9   4   28.20    7.10
   4   9  -4   29.00    6.80
  -4   9   4   26.90    6.60
  -3  -9   4  203.98   13.20
   3  -9  -4  184.88   13.00
   3  -9  -4  189.28    6.70
  -3  -9   4  176.18   11.90
  -3  -9   4  206.58   12.40
  -3  -9   4  181.28   12.90
  -3   9   4  190.58   13.60
   3   9  -4  194.18   11.80
  -3   9   4  197.48   15.20
  -3   9   4  197.08   12.90
   3   9  -4  179.58   12.00
   3   9  -4  179.88    9.40
  -3   9   4  200.48   12.30
  -3   9   4  206.38   12.10
  -2  -9   4   74.09    7.90
   2  -9  -4   63.19    8.30
  -2  -9   4   62.79    7.60
  -2  -9   4   70.99    6.40
  -2  -9   4   60.09    8.40
   2  -9  -4   68.79    5.40
  -2  -9   4   65.59    7.80
  -2  -9   4   72.89    8.20
  -2  -9   4   76.49    8.10
  -2   9   4   59.29    8.40
  -2   9   4   72.59    7.70
  -2   9   4   60.89    7.70
   2   9  -4   63.99    7.40
  -2   9   4   66.19    8.90
  -2   9   4   63.89    8.10
   2   9  -4   58.19    5.50
   2   9  -4   47.10    6.90
  -2   9   4   60.49    8.30
  -1  -9   4   39.10    6.90
  -1  -9   4   31.50    7.40
   1  -9  -4   28.50    3.80
  -1  -9   4   29.00    4.90
   1  -9  -4   34.30    6.80
  -1  -9   4   47.90    7.40
   1  -9  -4   31.60    6.90
  -1  -9   4   33.50    6.70
  -1   9   4   37.00    6.60
  -1   9   4   19.20    7.20
  -1   9   4   24.20    6.10
  -1   9   4   23.60    7.60
  -1   9   4   30.40    6.50
   1   9  -4   29.00    4.40
   1   9  -4   42.70    6.80
   1   9  -4   30.30    6.50
   0  -9   4  168.78   12.20
   0  -9   4  198.78   12.80
   0  -9  -4  198.78    7.80
   0  -9  -4  186.88   12.20
   0  -9   4  192.88   13.60
   0  -9   4  195.98   12.20
   0  -9  -4  219.88   12.90
   0  -9   4  186.68    9.80
   0   9   4  208.88   12.10
   0   9  -4  201.88   12.60
   0   9   4  203.08   14.10
   0   9   4  202.18   14.90
   0   9  -4  173.58   11.70
   0   9   4  169.28   13.00
   0   9   4  182.78   11.70
   0   9   4  204.88   11.60
   0   9  -4  185.28    7.60
  -1  -9  -4    8.80    6.50
   1  -9   4    2.70    6.00
  -1  -9  -4   12.80    5.10
  -1  -9  -4   10.80    4.40
   1  -9   4    5.10    6.80
   1  -9   4    6.70    6.70
  -1  -9  -4    7.20    7.10
   1  -9   4    7.20    6.80
   1  -9   4   12.20    5.80
   1   9   4   26.00    6.60
  -1   9  -4    9.80    6.10
   1   9   4    3.50    6.80
   1   9   4    2.80    6.90
   1   9   4   22.50    6.40
  -1   9  -4    6.40    6.30
   1   9   4    3.00    8.00
  -1   9  -4   12.70    3.50
   1   9   4    7.20    8.00
   1   9   4    5.70    5.60
  -2  -9  -4   92.89    9.00
   2  -9   4   80.49    8.50
   2  -9   4   73.09    8.40
  -2  -9  -4   72.19    6.80
  -2  -9  -4   75.09    8.60
   2  -9   4   76.29    8.60
   2  -9   4   64.79    8.70
   2  -9   4   75.89    8.10
   2   9   4   62.89    9.70
  -2   9  -4   79.69    8.30
   2   9   4   85.19    8.30
   2   9   4   72.59    8.30
  -2   9  -4   74.09    5.20
   2   9   4   68.49    8.10
  -2   9  -4   69.59    6.00
   2   9   4   64.89   10.00
   2   9   4   81.09    7.80
  -2   9  -4   71.99    8.00
   2   9   4   79.69    9.30
  -3  -9  -4   10.90    6.80
  -3  -9  -4   23.30    7.80
  -3  -9  -4   31.30    7.90
   3  -9   4   16.80    7.90
   3  -9   4   15.70    7.50
   3  -9   4   14.20    7.70
   3  -9   4    7.50    9.00
  -3   9  -4   14.70    3.30
   3   9   4    9.00    6.70
   3   9   4   32.90   10.80
   3   9   4   12.70    7.40
   3   9   4   16.90    7.30
   3   9   4   29.50    7.00
  -3   9  -4   19.50    7.70
   3   9   4   16.20    7.90
  -3   9  -4   17.10    3.80
  -4  -9  -4   85.39   10.30
  -4  -9  -4   71.29    8.50
  -4  -9  -4   32.10    9.00
   4  -9   4   66.79    9.60
   4  -9   4   68.29   10.30
  -4  -9  -4   70.99   10.10
  -4   9  -4   64.19    9.20
   4   9   4   58.69    9.60
  -4   9  -4   68.59    9.50
   4   9   4   62.99   10.60
   4   9   4   69.19    8.80
   4   9   4   60.19    8.70
   4   9   4   76.19    8.70
   4   9   4   68.89   11.20
  -4   9  -4   65.49    5.00
  -5  -9  -4  139.49   12.10
  -5  -9  -4  132.59   12.90
  -5  -9  -4  139.99   13.80
   5  -9   4  151.38   12.50
   5   9   4  123.19   12.20
   5   9   4  146.39   13.40
   5   9   4  125.39   11.00
  -5   9  -4  143.79   12.30
   5   9   4  130.39   11.10
  -5   9  -4  126.09   11.40
   5   9   4  132.29   15.90
   5   9   4  111.79   11.70
   6  -9   4   25.90   11.50
  -6  -9  -4   35.30   11.60
  -6  -9  -4   34.00    9.10
   6   9   4   48.30   10.30
   6   9   4   58.29   11.40
   6   9   4   40.20    9.30
  -6   9  -4   45.20   10.30
   6   9   4   26.90   11.00
  -7 -10   4    9.60   11.00
  -7 -10   4   19.70   15.90
  -7 -10   4    3.30   10.80
   7  10  -4   -9.60   10.90
  -7  10   4   14.60   11.10
  -7  10   4   -4.40   10.10
  -7  10   4   -0.40   12.00
  -6 -10   4   24.80   10.00
  -6 -10   4   35.00   11.00
  -6 -10   4   24.10   10.20
   6  10  -4   21.00    9.60
  -6  10   4   21.20    9.50
  -6  10   4   23.80   10.00
  -6  10   4   34.70   10.60
  -6  10   4   24.70    9.90
  -5 -10   4   19.20    7.90
  -5 -10   4   -0.80    9.10
  -5 -10   4   25.70    9.40
  -5  10   4   22.10    9.20
  -5  10   4   23.90    9.60
  -5  10   4   19.00    8.70
  -4 -10   4   47.50    8.90
  -4 -10   4   58.99    9.30
  -4 -10   4   65.09   10.50
  -4 -10   4   71.59    9.90
  -4  10   4   57.59    9.40
  -4  10   4   56.19    9.50
   4  10  -4   68.19    9.20
  -4  10   4   44.10    9.30
  -3 -10   4   93.89    9.90
  -3 -10   4  123.59   11.40
  -3 -10   4   95.99   10.40
  -3 -10   4   80.99    9.10
  -3  10   4   88.09    9.60
  -3  10   4  136.19   13.80
   3  10  -4  111.89   10.80
  -3  10   4   86.39   11.00
   3  10  -4  101.99   10.40
  -3  10   4  109.99   10.00
   3  10  -4   96.99    9.60
  -2 -10   4   -1.50    7.60
  -2 -10   4    2.60    7.80
   2 -10  -4    6.00    4.30
  -2 -10   4   11.70    8.90
  -2 -10   4   16.60    8.10
   2  10  -4   -4.40    6.00
  -2  10   4    0.70    7.50
   2  10  -4    4.10    7.50
  -2  10   4    2.70    7.30
  -2  10   4    3.90   10.00
  -2  10   4   -4.50    7.30
   2  10  -4    5.80    7.90
  -1 -10   4   41.10    9.60
  -1 -10   4   34.00    6.20
   1 -10  -4   18.50    7.80
  -1 -10   4   32.20    9.80
  -1 -10   4   22.90    7.80
   1 -10  -4   30.40    4.80
  -1 -10   4   14.80    8.20
  -1  10   4   25.10    8.00
   1  10  -4   28.40    8.00
   1  10  -4   11.10    8.10
  -1  10   4   29.30   10.30
  -1  10   4   23.30    7.90
  -1  10   4   30.90    8.40
   0 -10  -4    6.80    6.90
   0 -10  -4    8.80    4.70
   0 -10   4   10.20    7.30
   0 -10   4    2.30    9.80
   0 -10  -4    6.30    7.70
   0 -10   4    7.60    6.70
   0 -10   4   22.60    8.30
   0 -10   4   -6.10    9.20
   0  10   4    0.50    7.70
   0  10   4  -10.50   10.00
   0  10   4    2.50    7.40
   0  10  -4    5.50    8.00
   0  10   4    5.00    7.30
   1 -10   4   90.29   10.00
   1 -10   4  110.69   11.40
  -1 -10  -4   85.89   10.50
  -1 -10  -4   98.89   11.00
   1 -10   4   84.19   12.00
   1 -10   4   86.19    9.50
  -1 -10  -4   93.39    9.20
   1  10   4   80.09    8.90
  -1  10  -4   90.29   10.80
  -1  10  -4   88.49    9.20
   1  10   4  102.59   12.50
   1  10   4  101.79   10.10
   1  10   4   91.19   10.10
  -2 -10  -4   64.59    9.80
   2 -10   4   84.39   10.10
   2 -10   4   96.19   11.40
  -2 -10  -4  101.29   10.40
  -2 -10  -4  102.09   10.20
   2 -10   4   93.19   12.20
  -2 -10  -4  127.49   11.50
  -2  10  -4   84.59   10.40
   2  10   4   78.79   14.10
  -2  10  -4   81.89    9.60
   2  10   4   83.49    9.30
   2  10   4   86.19   10.20
   2  10   4   71.49    9.80
  -3 -10  -4   -5.50    8.40
  -3 -10  -4   -4.10    9.10
  -3 -10  -4   11.80    9.90
   3 -10   4    0.50    9.20
   3  10   4    7.60    8.60
  -3  10  -4  -15.80    8.50
   3  10   4   -9.40    7.40
   3  10   4   12.80    8.80
   3  10   4  -11.30    8.20
  -3  10  -4   17.40   12.40
  -4 -10  -4   24.60   10.90
  -4 -10  -4   26.00    9.50
  -4 -10  -4   35.20   11.50
   4 -10   4   19.30   10.50
   4  10   4   28.20    8.90
  -4  10  -4   31.30   10.70
   4  10   4   10.00   10.30
   4  10   4   24.10   10.00
   4  10   4   32.50   10.30
  -5 -10  -4   15.50   12.30
  -5 -10  -4   31.50   10.80
   5 -10   4   33.30   12.20
  -5  10  -4   45.80   12.10
   5  10   4   33.60   11.40
   5  10   4   48.10   10.70
   5  10   4   18.50   10.50
  -4 -11   4   11.70   11.00
  -4 -11   4   17.60   12.30
  -4 -11   4    1.50   12.30
  -4 -11   4   10.10   11.20
   4  11  -4   23.10   11.10
  -4  11   4    0.20   11.40
  -4  11   4    7.10   11.50
  -4  11   4   29.20   11.50
  -3 -11   4   16.90   11.00
  -3 -11   4   21.50   10.90
  -3 -11   4   37.10   10.70
  -3  11   4    8.80    9.90
   3  11  -4   25.80   11.10
  -3  11   4   18.70   10.20
  -3  11   4   -5.70   10.40
  -2 -11   4   40.20   10.80
  -2 -11   4   33.20   11.00
  -2  11   4   34.90   10.30
  -2  11   4   44.80   11.20
   2  11  -4   18.60   10.50
  -2  11   4   22.10   10.00
  -1 -11   4  111.39   12.00
  -1 -11   4  110.29   13.30
  -1  11   4  107.19   12.40
   1  11  -4   92.59   11.70
  -1  11   4   87.89   11.50
  -1  11   4  100.29   11.70
   0 -11   4    6.70   11.20
   0 -11  -4    4.50   10.40
   0 -11   4   -6.80    9.70
   0  11   4   -0.80    9.80
   0  11   4   -0.60    9.70
   0  11   4   -6.40    9.60
   0  11  -4   -1.70    9.80
   1 -11   4  -10.10    9.80
   1 -11   4   17.20   11.20
  -1 -11  -4  -23.70    9.70
   1  11   4  -12.40   10.50
   1  11   4  -12.60    9.70
   1  11   4  -19.40    9.40
  -1  11  -4   -9.90    9.60
   2 -11   4   62.69   13.40
  -2 -11  -4   35.60   10.80
   2 -11   4   43.40   11.50
   2  11   4   49.60   11.50
  -2  11  -4   27.10   11.50
   2  11   4   46.40   10.80
   2  11   4   41.60   12.20
 -13   0   5   64.19    9.50
 -13   0   5   50.29    9.90
 -13   0   5   80.99   10.90
 -12   0   5   73.19    7.90
 -12   0   5   72.49    8.50
 -12   0   5   83.99    9.30
 -11   0   5   -6.00    7.90
 -11   0   5    8.90    5.00
 -11   0   5    3.10    5.80
 -11   0   5   -2.80    4.90
  11   0  -5    2.50    5.20
 -10   0   5   46.40    6.80
 -10   0   5   44.40    5.20
  10   0  -5   38.10    5.40
  10   0  -5   31.00    5.20
 -10   0   5   46.20    6.30
  10   0  -5   44.90    6.50
 -10   0   5   50.69    5.30
  10   0  -5   36.70    5.20
  -9   0   5  313.07   12.10
   9   0  -5  283.87    9.70
  -9   0   5  305.37    9.90
  -9   0   5  317.37   10.00
  -9   0   5  326.17   11.10
   9   0  -5  300.27    9.70
  -9   0   5  311.27    9.30
   8   0  -5   31.80    3.50
   8   0  -5   35.40    3.70
  -8   0   5   34.80    3.80
  -8   0   5   40.10    3.90
   8   0  -5   31.20    4.70
  -8   0   5   31.20    4.80
   8   0  -5   32.40    3.90
  -8   0   5   32.70    3.70
  -8   0   5   36.60    4.30
   7   0  -5    0.10    2.10
  -7   0   5    1.10    2.10
  -7   0   5    1.80    2.30
   7   0  -5    5.60    2.20
   7   0  -5    2.10    2.40
  -7   0   5    6.10    2.50
  -7   0   5    2.80    2.50
  -6   0   5   53.99    3.70
  -6   0   5   53.69    3.90
   6   0  -5   51.79    3.40
   6   0  -5   48.60    3.90
  -6   0   5   48.90    3.60
   6   0  -5   55.09    3.20
  -6   0   5   53.19    4.60
  -5   0   5 1285.27   25.40
  -5   0   5 1269.57   24.60
   5   0  -5 1310.77   23.70
  -5   0   5 1343.57   23.30
   5   0  -5 1271.57   23.90
  -5   0   5 1283.77   24.20
  -5   0   5 1264.17   24.00
   5   0  -5 1293.57   24.70
  -4   0   5  728.93   15.20
   4   0  -5  715.83   13.40
  -4   0   5  732.53   13.80
  -4   0   5  716.53   13.70
  -4   0   5  737.73   13.80
  -4   0   5  740.73   14.80
  -3   0   5  624.64   12.30
  -3   0   5  616.54   11.40
  -3   0   5  621.14   13.00
  -3   0   5  631.54   12.80
  -2   0   5  885.21   17.40
  -2   0   5  892.51   17.30
  -2   0   5  869.21   17.10
  -1   0   5    2.30    1.40
  -1   0   5    2.60    0.80
  -1   0   5    4.20    1.60
  -1   0   5    4.90    1.30
  -1   0   5    4.10    0.90
   0   0   5 1336.17   24.90
   0   0  -5 1356.86   24.80
   0   0   5 1369.86   24.60
   0   0   5 1334.37   25.80
   0   0   5 1343.07   26.00
   0   0   5 1373.96   25.00
   0   0  -5 1391.96   25.90
   1   0   5  775.02   15.20
   1   0   5  764.12   15.80
   1   0   5  777.42   15.10
   1   0   5  737.23   15.90
  -1   0  -5  759.32   15.10
   1   0   5  776.92   15.20
  -1   0  -5  763.62   15.80
  -1   0  -5  776.52   15.10
  -2   0  -5    8.80    2.00
  -2   0  -5   11.10    2.20
   2   0   5    9.90    2.00
   2   0   5    5.60    2.10
   2   0   5    9.40    2.00
   2   0   5   13.00    2.00
  -2   0  -5   16.40    2.60
   2   0   5   14.30    2.70
  -3   0  -5  527.85   12.20
   3   0   5  523.35   11.50
   3   0   5  532.35   12.20
  -3   0  -5  524.05   12.20
   3   0   5  533.55   12.30
   3   0   5  524.75   12.50
   3   0   5  544.05   13.00
  -3   0  -5  534.85   12.80
   4   0   5   42.40    3.80
   4   0   5   53.99    4.70
  -4   0  -5   47.10    2.60
  -4   0  -5   59.89    4.90
   4   0   5   42.50    4.30
  -4   0  -5   50.29    4.10
  -4   0  -5   47.50    4.90
   4   0   5   47.90    4.00
   4   0   5   49.50    4.10
   5   0   5 1438.06   30.10
  -5   0  -5 1513.45   30.20
   5   0   5 1474.05   31.00
  -5   0  -5 1491.75   27.60
  -5   0  -5 1494.25   30.30
   5   0   5 1508.85   30.30
  -5   0  -5 1479.35   30.70
   5   0   5 1499.95   30.30
   5   0   5 1482.85   30.00
   6   0   5  470.05   13.20
   6   0   5  492.55   14.80
  -6   0  -5  479.95   11.00
  -6   0  -5  482.45   14.40
   6   0   5  478.25   12.40
  -6   0  -5  495.45   13.90
  -6   0  -5  492.35   13.70
   6   0   5  496.05   13.90
   6   0   5  478.65   13.80
  -7   0  -5   50.29    6.60
  -7   0  -5   75.09    6.80
   7   0   5   71.49    5.80
  -7   0  -5   73.59    6.00
   7   0   5   81.59   10.50
  -7   0  -5   76.99    6.90
   7   0   5   77.19    7.50
  -7   0  -5   62.19    5.40
   7   0   5   83.89    7.30
   7   0   5   80.79    7.30
   8   0   5  242.58   13.10
   8   0   5  230.78   11.40
  -8   0  -5  258.27   12.20
   8   0   5  287.07   14.00
  -8   0  -5  261.47    9.50
   8   0   5  254.87   11.20
  -8   0  -5  242.38   12.60
   8   0   5  270.17   14.30
  -8   0  -5  273.87   11.50
   9   0   5  109.89   10.90
  -9   0  -5  101.19    7.70
   9   0   5  108.89   10.80
  -9   0  -5  112.49    9.70
  -9   0  -5   99.79    8.50
   9   0   5  103.19    9.90
  -9   0  -5  123.89   12.20
   9   0   5   79.59   11.40
  -9   0  -5  114.09    9.60
   9   0   5   87.79    9.00
 -10   0  -5   12.80    8.90
 -10   0  -5   -1.40    7.50
 -10   0  -5    7.70    5.80
  10   0   5   -2.30    7.50
 -10   0  -5   10.40    9.00
  11   0   5   -4.20    9.60
 -11   0  -5  -11.60   10.80
 -13  -1   5   84.09    9.90
 -13  -1   5   66.89   10.90
 -13  -1   5   81.89   10.50
 -13  -1   5   88.89   11.60
 -13   1   5   91.69    9.90
 -13   1   5   67.69   11.10
 -13   1   5   78.59   10.10
 -12  -1   5   53.09    7.80
  12  -1  -5   62.79    9.10
 -12  -1   5   52.99    7.80
 -12  -1   5   76.29    9.10
 -12  -1   5   78.49    9.50
  12   1  -5   51.29    7.90
 -12   1   5   52.99    8.70
 -12   1   5   58.29    7.80
 -12   1   5   66.49    8.30
 -11  -1   5   56.39    7.70
 -11  -1   5   59.59    6.60
 -11  -1   5   51.59    6.50
 -11  -1   5   54.89    7.20
 -11   1   5   64.79    7.60
 -11   1   5   58.09    6.60
  11   1  -5   56.79    6.00
 -11   1   5   62.79    8.90
 -11   1   5   57.49    6.50
  10  -1  -5  456.15   14.00
 -10  -1   5  493.65   14.00
 -10  -1   5  498.45   17.70
 -10  -1   5  502.15   15.20
  10  -1  -5  510.15   16.20
 -10  -1   5  495.25   14.00
  10  -1  -5  484.35   14.40
 -10   1   5  515.05   15.30
  10   1  -5  479.25   13.40
  10   1  -5  455.15   15.70
  10   1  -5  458.25   14.00
 -10   1   5  497.65   14.10
 -10   1   5  495.75   13.80
 -10   1   5  485.55   15.90
 -10   1   5  512.95   14.30
  10   1  -5  481.05   14.80
  -9  -1   5  716.43   19.30
   9  -1  -5  735.63   17.50
  -9  -1   5  722.73   17.30
  -9  -1   5  726.23   18.00
  -9  -1   5  720.33   17.10
  -9   1   5  723.93   17.20
   9   1  -5  733.73   16.30
  -9   1   5  751.12   17.30
  -9   1   5  720.93   18.30
  -9   1   5  710.93   18.10
  -9   1   5  728.73   17.00
  -8  -1   5  194.78    8.10
   8  -1  -5  190.38    7.00
   8  -1  -5  194.48    7.70
  -8  -1   5  184.28    7.20
   8  -1  -5  181.18    6.90
  -8  -1   5  179.78    7.10
  -8   1   5  187.28    8.30
   8   1  -5  186.38    6.90
   8   1  -5  190.18    6.90
  -8   1   5  193.38    7.60
  -8   1   5  198.48    8.20
   8   1  -5  197.58    8.50
   8   1  -5  192.68    6.50
  -8   1   5  173.48    7.10
  -8   1   5  190.98    7.30
   7  -1  -5  769.32   16.10
  -7  -1   5  757.82   16.40
  -7  -1   5  777.92   17.30
  -7  -1   5  747.13   16.20
   7  -1  -5  790.42   17.10
  -7  -1   5  745.83   15.60
   7  -1  -5  780.72   16.10
   7   1  -5  785.12   17.60
   7   1  -5  767.62   15.90
   7   1  -5  762.92   15.80
  -7   1   5  783.92   17.30
   7   1  -5  779.22   16.10
  -7   1   5  739.73   16.30
  -7   1   5  783.72   16.40
  -7   1   5  772.62   16.90
  -7   1   5  770.22   17.40
   6  -1  -5  188.48    5.60
  -6  -1   5  189.18    5.70
   6  -1  -5  184.78    6.60
  -6  -1   5  179.78    4.60
   6  -1  -5  184.88    5.40
  -6  -1   5  182.28    6.60
  -6  -1   5  181.38    5.70
  -6  -1   5  185.18    5.40
  -6   1   5  172.78    6.40
   6   1  -5  192.08    5.30
   6   1  -5  192.18    6.90
  -6   1   5  187.68    5.70
  -6   1   5  177.98    6.80
   6   1  -5  180.68    5.30
   6   1  -5  187.68    5.50
  -6   1   5  186.38    5.80
  -6   1   5  188.98    6.60
   5  -1  -5  720.73   14.20
  -5  -1   5  728.53   14.40
  -5  -1   5  735.93   14.30
  -5  -1   5  707.53   14.30
   5  -1  -5  746.53   14.20
   5  -1  -5  730.63   15.50
  -5  -1   5  713.93   15.40
   5   1  -5  739.33   15.60
  -5   1   5  722.13   15.40
   5   1  -5  739.43   13.90
  -5   1   5  718.73   14.40
  -5   1   5  723.93   14.50
   5   1  -5  716.03   14.00
  -5   1   5  713.83   15.70
   4  -1  -5   18.20    1.40
   4  -1  -5   17.00    1.50
  -4  -1   5   17.70    2.30
   4  -1  -5   21.30    2.40
  -4  -1   5   12.80    2.20
  -4  -1   5   19.20    1.90
  -4  -1   5   18.70    1.90
  -4  -1   5   19.60    2.00
  -4   1   5   17.90    1.60
   4   1  -5   17.20    1.20
  -4   1   5   18.60    1.60
  -4   1   5   20.90    2.40
   4   1  -5   15.90    1.60
  -4   1   5   13.10    2.20
  -4   1   5   19.30    1.60
   4   1  -5   17.40    1.30
   4   1  -5   15.70    1.70
  -3  -1   5  502.55    9.40
   3  -1  -5  474.35    9.40
  -3  -1   5  499.65   10.20
  -3  -1   5  494.05    9.20
  -3  -1   5  495.25   10.60
  -3  -1   5  494.35   11.20
  -3   1   5  496.05    9.60
  -3   1   5  496.55   10.20
  -3   1   5  517.35    9.80
  -3   1   5  496.45    9.60
  -3   1   5  502.05   11.10
  -3   1   5  517.65    9.70
  -2  -1   5 4012.90   72.19
  -2  -1   5 4053.49   72.69
  -2  -1   5 3948.51   71.69
  -2   1   5 4033.60   71.59
  -2   1   5 4021.30   70.99
  -2   1   5 3965.80   72.59
  -2   1   5 4019.20   71.09
  -2   1   5 3994.10   71.99
  -2   1   5 4123.79   71.19
  -1  -1   5 3008.80   52.69
   1  -1  -5 3023.40   52.59
  -1  -1   5 2999.40   52.59
   1  -1  -5 2947.41   52.79
  -1  -1   5 2942.91   54.19
  -1  -1   5 2970.40   53.39
  -1   1   5 2854.51   52.79
   1   1  -5 2959.50   52.39
  -1   1   5 2974.30   52.99
  -1   1   5 2961.20   53.19
  -1   1   5 2906.11   52.79
  -1   1   5 3050.29   52.89
  -1   1   5 2993.10   53.89
   1   1  -5 2936.41   52.39
   0  -1   5  298.27    6.50
   0  -1   5  299.77    7.70
   0  -1   5  299.77    6.50
   0  -1  -5  294.97    6.60
   0  -1  -5  298.87    7.50
   0  -1   5  302.07    6.60
   0  -1  -5  292.87    6.70
   0  -1  -5  295.47    7.00
   0   1  -5  307.87    6.40
   0   1  -5  281.67    7.60
   0   1   5  300.87    6.70
   0   1   5  296.07    7.60
   0   1   5  305.47    7.10
   0   1   5  297.47    6.80
   0   1  -5  290.97    6.60
   0   1   5  297.37    5.90
  -1  -1  -5  173.68    5.10
   1  -1   5  179.58    5.00
  -1  -1  -5  179.68    5.40
   1  -1   5  180.38    5.00
   1  -1   5  176.18    6.00
   1  -1   5  176.78    4.40
  -1  -1  -5  175.68    5.10
   1  -1   5  173.98    5.70
   1  -1   5  175.68    4.50
  -1  -1  -5  173.18    5.70
   1   1   5  178.78    5.50
  -1   1  -5  168.78    4.90
   1   1   5  170.98    5.10
  -1   1  -5  180.08    5.90
   1   1   5  185.38    5.20
   1   1   5  175.48    5.80
  -1   1  -5  170.78    4.30
  -1   1  -5  170.28    4.90
   2  -1   5  724.73   15.90
   2  -1   5  760.22   15.50
   2  -1   5  754.42   14.50
  -2  -1  -5  761.42   15.60
   2  -1   5  763.92   15.50
  -2  -1  -5  754.92   15.80
   2  -1   5  733.93   16.20
  -2   1  -5  733.93   15.60
  -2   1  -5  753.82   15.30
  -2   1  -5  757.42   16.30
   2   1   5  738.83   15.90
   2   1   5  750.22   15.60
   2   1   5  740.73   15.50
   2   1   5  730.63   15.40
   2   1   5  740.93   16.00
  -2   1  -5  740.83   14.10
   3  -1   5 1138.99   21.70
  -3  -1  -5 1124.69   22.90
   3  -1   5 1161.28   22.90
   3  -1   5 1125.89   23.80
   3  -1   5 1159.78   23.00
   3  -1   5 1116.19   23.20
  -3  -1  -5 1171.28   23.40
  -3  -1  -5 1148.89   23.00
   3   1   5 1162.78   23.40
  -3   1  -5 1147.59   22.90
   3   1   5 1145.19   23.00
  -3   1  -5 1158.88   23.70
   3   1   5 1140.89   23.60
  -3   1  -5 1131.49   21.30
  -3   1  -5 1149.29   22.90
   3   1   5 1129.89   22.70
   3   1   5 1140.19   23.00
  -4  -1  -5   33.80    4.90
  -4  -1  -5   33.50    3.90
   4  -1   5   24.00    3.70
   4  -1   5   34.00    2.80
   4  -1   5   33.60    3.50
   4  -1   5   29.00    3.50
   4  -1   5   28.90    3.30
  -4  -1  -5   30.80    3.60
   4   1   5   32.50    3.40
  -4   1  -5   33.50    4.20
   4   1   5   28.00    3.90
  -4   1  -5   35.00    3.50
   4   1   5   29.30    3.60
   4   1   5   28.70    3.40
   4   1   5   28.50    3.50
  -4   1  -5   32.90    3.20
  -4   1  -5   37.30    3.70
   5  -1   5  369.16   10.90
   5  -1   5  360.26   11.70
  -5  -1  -5  348.37    7.70
   5  -1   5  357.46    9.30
  -5  -1  -5  363.16   10.80
  -5  -1  -5  372.46   10.80
  -5  -1  -5  361.66   11.20
   5  -1   5  363.36   10.40
   5  -1   5  363.56   10.90
  -5   1  -5  347.37   10.60
   5   1   5  346.47   10.00
  -5   1  -5  362.56   10.80
   5   1   5  337.07   10.50
   5   1   5  360.06   10.90
  -5   1  -5  352.16    8.80
   5   1   5  356.36   10.80
  -5   1  -5  354.46   11.40
   5   1   5  351.76   11.60
  -6  -1  -5  497.15   10.50
  -6  -1  -5  486.35   14.60
   6  -1   5  493.95   13.40
   6  -1   5  495.75   14.20
  -6  -1  -5  514.05   14.10
  -6  -1  -5  521.05   14.20
  -6  -1  -5  489.75   10.90
   6  -1   5  511.85   12.40
   6  -1   5  507.35   14.20
   6  -1   5  510.25   15.30
  -6   1  -5  522.65   14.10
  -6   1  -5  504.35   12.80
   6   1   5  508.25   13.30
   6   1   5  494.45   13.70
   6   1   5  508.45   15.10
  -6   1  -5  506.75   14.00
   6   1   5  493.45   14.20
   6   1   5  500.95   14.30
  -6   1  -5  503.85   11.70
  -7  -1  -5  111.69    5.10
   7  -1   5  103.79    9.90
  -7  -1  -5  101.09   10.30
   7  -1   5  101.49    7.30
  -7  -1  -5  112.09    8.70
  -7  -1  -5  116.69    9.00
   7  -1   5  110.79    7.80
   7  -1   5  108.09    9.70
   7  -1   5  112.89    9.50
   7   1   5  103.79    9.50
   7   1   5  105.89    8.20
   7   1   5  108.39    9.70
  -7   1  -5  109.99    6.40
   7   1   5  111.59    8.30
  -7   1  -5  108.79    7.60
  -7   1  -5  109.79    8.60
  -7   1  -5  113.09   10.50
  -7   1  -5  102.39    8.60
   8  -1   5  270.27   13.80
  -8  -1  -5  291.67   12.80
  -8  -1  -5  264.77    8.30
  -8  -1  -5  278.37   13.10
   8  -1   5  277.37   11.50
   8  -1   5  276.67   14.40
  -8  -1  -5  255.37    8.90
   8  -1   5  281.27   11.10
   8  -1   5  297.47   14.30
   8   1   5  289.37   14.10
   8   1   5  296.07   12.10
  -8   1  -5  303.27   13.20
  -8   1  -5  266.57   12.90
  -8   1  -5  229.58   11.80
   8   1   5  264.77   12.60
   8   1   5  265.17   14.40
  -8   1  -5  276.37   11.40
   9  -1   5   37.00    7.20
  -9  -1  -5   43.10    7.90
  -9  -1  -5   45.70    4.90
  -9  -1  -5   43.80    7.90
  -9  -1  -5   39.50    5.70
   9  -1   5   44.90   11.70
   9  -1   5   25.60    8.90
   9  -1   5   42.70    6.80
   9  -1   5   42.70    9.00
  -9   1  -5   39.20    8.10
  -9   1  -5   32.70    8.10
  -9   1  -5   56.19    6.40
   9   1   5   41.60    8.70
   9   1   5   48.60    7.20
 -10  -1  -5   67.79    9.90
  10  -1   5  102.49   13.20
 -10  -1  -5   66.39    9.30
  10  -1   5   75.89    9.40
 -10  -1  -5  101.79   11.60
 -10   1  -5   68.39   10.30
  10   1   5   90.69   10.00
 -10   1  -5   87.69   11.20
 -10   1  -5   74.69    9.00
 -11  -1  -5   63.09   12.70
  11  -1   5   91.29   11.00
 -11   1  -5   60.19   12.10
  11   1   5   60.79   11.00
 -13  -2   5   21.50    9.80
 -13  -2   5   14.40    8.70
 -13  -2   5   12.30    8.90
 -13  -2   5   31.00   10.80
 -13   2   5   29.80    8.90
 -13   2   5   18.30    9.00
 -13   2   5   20.80   10.10
 -12  -2   5  349.47   18.10
 -12  -2   5  321.07   16.90
 -12  -2   5  326.27   15.50
 -12  -2   5  330.67   15.30
 -12   2   5  361.86   16.40
 -12   2   5  343.57   15.20
 -12   2   5  355.66   15.60
 -11  -2   5   77.49    8.00
 -11  -2   5   59.89    7.00
 -11  -2   5   64.59    6.80
 -11  -2   5   63.89    8.20
  11  -2  -5   55.29    8.30
 -11   2   5   77.09    7.40
 -11   2   5   52.89    8.30
 -11   2   5   65.29    7.70
 -11   2   5   58.89    6.70
  11   2  -5   64.19    6.40
 -11   2   5   66.29    7.10
 -10  -2   5  103.79   10.10
 -10  -2   5   99.29    9.50
  10  -2  -5   86.79    8.80
 -10  -2   5   99.19    8.30
 -10  -2   5   85.09    7.40
 -10  -2   5   87.69    8.10
  10   2  -5   94.09    8.90
 -10   2   5  101.09    9.90
 -10   2   5   93.69    8.40
  10   2  -5   91.19    6.10
  10   2  -5  103.89   10.20
 -10   2   5   89.99    8.20
 -10   2   5   91.79    8.00
 -10   2   5   95.69    7.70
  -9  -2   5  347.27   10.80
   9  -2  -5  341.47   11.60
  -9  -2   5  346.77   12.00
  -9   2   5  351.06   11.60
  -9   2   5  360.06   11.60
   9   2  -5  340.67    8.90
  -9   2   5  324.07   10.80
  -8  -2   5   46.00    4.20
  -8  -2   5   39.80    3.10
  -8  -2   5   43.90    4.60
  -8  -2   5   46.40    5.00
   8  -2  -5   49.00    4.30
   8  -2  -5   50.19    5.10
  -8  -2   5   51.99    5.30
  -8   2   5   43.60    4.90
   8   2  -5   46.60    3.80
   8   2  -5   43.10    3.90
  -8   2   5   34.40    4.20
  -8   2   5   43.50    4.60
  -8   2   5   51.39    5.40
   8   2  -5   44.80    5.00
   8   2  -5   49.00    5.00
  -8   2   5   43.30    4.10
   7  -2  -5  420.96   10.20
  -7  -2   5  417.36   11.30
   7  -2  -5  427.06   10.40
  -7  -2   5  419.46    9.10
  -7  -2   5  406.76   10.40
  -7  -2   5  389.56   10.30
  -7  -2   5  401.56   11.80
   7  -2  -5  407.16   11.40
  -7   2   5  405.46   11.50
  -7   2   5  416.96   10.50
   7   2  -5  417.46   10.10
  -7   2   5  403.36   10.70
  -7   2   5  406.56   11.30
   7   2  -5  421.46    8.90
   7   2  -5  419.76   11.50
  -7   2   5  396.46   10.40
   7   2  -5  421.46   10.10
  -6  -2   5  699.53   14.70
   6  -2  -5  705.93   14.70
   6  -2  -5  705.33   14.60
  -6  -2   5  699.43   16.30
  -6  -2   5  710.73   14.30
  -6  -2   5  701.03   14.80
   6  -2  -5  631.34   17.10
  -6  -2   5  696.73   15.50
   6   2  -5  727.63   14.40
   6   2  -5  715.63   14.40
  -6   2   5  690.13   16.00
  -6   2   5  689.83   15.70
  -6   2   5  697.43   14.80
   6   2  -5  698.83   15.60
  -6   2   5  700.13   14.80
  -6   2   5  679.53   14.80
  -5  -2   5  940.91   18.40
  -5  -2   5  919.51   18.50
   5  -2  -5  955.10   18.50
   5  -2  -5  954.50   19.80
  -5  -2   5  943.61   17.40
  -5  -2   5  940.41   19.20
  -5  -2   5  950.50   20.00
   5  -2  -5  963.90   18.40
  -5   2   5  942.71   18.60
  -5   2   5  931.61   19.60
  -5   2   5  928.71   18.60
   5   2  -5  954.00   18.20
  -5   2   5  908.21   19.80
   5   2  -5  930.31   18.10
  -5   2   5  951.10   17.50
  -5   2   5  926.61   18.50
   5   2  -5  971.00   19.40
   5   2  -5  953.40   18.30
  -4  -2   5 2718.13   50.89
   4  -2  -5 2761.82   49.30
  -4  -2   5 2612.34   48.80
  -4  -2   5 2676.63   49.40
   4  -2  -5 2829.42   50.99
  -4  -2   5 2713.83   49.40
  -4  -2   5 2684.43   49.99
   4  -2  -5 2741.03   49.50
   4  -2  -5 2777.72   49.10
   4   2  -5 2778.62   50.19
   4   2  -5 2787.12   48.90
   4   2  -5 2745.93   48.90
  -4   2   5 2754.82   49.50
  -4   2   5 2817.32   49.70
  -4   2   5 2740.13   50.79
  -4   2   5 2708.43   49.60
  -4   2   5 2740.43   49.70
   4   2  -5 2717.83   49.00
  -4   2   5 2681.03   50.79
  -4   2   5 2730.63   49.30
  -4   2   5 2757.22   49.30
   3  -2  -5  578.14   11.70
  -3  -2   5  587.94   12.10
  -3  -2   5  602.14   13.10
   3  -2  -5  604.14   12.00
  -3  -2   5  587.44   11.60
  -3  -2   5  597.74   11.50
  -3  -2   5  589.94   11.70
   3  -2  -5  597.04   11.60
  -3   2   5  612.04   12.20
  -3   2   5  585.84   13.10
  -3   2   5  583.74   11.80
  -3   2   5  581.94   11.20
  -3   2   5  591.34   12.00
   3   2  -5  586.44   11.30
  -3   2   5  600.94   12.00
   3   2  -5  599.04   11.30
  -3   2   5  585.74   11.90
   3   2  -5  599.74   11.00
   3   2  -5  583.64   11.00
  -2  -2   5 1322.47   25.30
   2  -2  -5 1392.56   26.10
  -2  -2   5 1420.36   25.20
  -2  -2   5 1418.86   26.60
  -2  -2   5 1411.66   25.30
  -2  -2   5 1404.96   27.20
  -2  -2   5 1382.16   25.50
   2   2  -5 1394.16   25.10
   2   2  -5 1365.56   24.80
  -2   2   5 1356.26   26.20
  -2   2   5 1353.56   24.90
   2   2  -5 1407.26   25.00
  -2   2   5 1353.86   25.60
   2   2  -5 1461.85   24.80
  -2   2   5 1348.07   25.60
  -2   2   5 1389.76   25.80
  -2   2   5 1373.06   25.70
  -2   2   5 1375.56   26.90
  -1  -2   5  498.25   12.30
   1  -2  -5  571.14   11.30
  -1  -2   5  546.05   12.50
  -1  -2   5  560.14   10.60
  -1  -2   5  568.54   11.00
   1  -2  -5  565.64   12.00
  -1  -2   5  579.04   12.00
   1  -2  -5  554.94   11.40
   1   2  -5  578.34   12.00
   1   2  -5  572.04   10.80
  -1   2   5  527.25   10.90
  -1   2   5  574.64   12.20
  -1   2   5  566.24   11.40
  -1   2   5  552.04   11.40
  -1   2   5  571.54   11.60
  -1   2   5  564.04   12.60
  -1   2   5  562.84   11.50
   1   2  -5  563.14   11.00
   1   2  -5  575.34   10.80
   0  -2   5    5.20    1.50
   0  -2  -5    6.20    1.70
   0  -2   5    7.90    1.50
   0  -2  -5    8.70    2.10
   0  -2  -5    8.40    1.50
   0  -2   5    3.70    1.70
   0  -2  -5    9.20    1.70
   0  -2   5    6.20    2.20
   0   2  -5    7.30    1.50
   0   2  -5    5.10    1.40
   0   2   5    4.50    1.60
   0   2   5    6.10    1.70
   0   2   5    4.50    1.60
   0   2  -5    5.90    1.40
   0   2   5    6.50    1.70
   0   2   5    3.90    1.90
   0   2  -5    4.20    1.60
   0   2  -5    5.90    1.30
   0   2   5    8.10    1.30
   1  -2   5 1838.72   34.00
   1  -2   5 1790.22   35.10
  -1  -2  -5 1823.62   34.30
   1  -2   5 1819.02   33.80
  -1  -2  -5 1859.71   34.90
  -1  -2  -5 1829.42   34.00
   1  -2   5 1803.62   34.00
  -1  -2  -5 1823.12   34.30
   1   2   5 1841.02   34.40
  -1   2  -5 1885.51   33.80
   1   2   5 1828.92   34.10
  -1   2  -5 1849.31   35.20
  -1   2  -5 1841.92   33.90
  -1   2  -5 1825.12   33.90
   1   2   5 1802.12   34.90
   1   2   5 1835.52   34.30
  -2  -2  -5  584.94   13.10
  -2  -2  -5  601.84   13.60
  -2  -2  -5  585.84   13.10
   2  -2   5  594.74   11.30
   2  -2   5  611.34   14.10
   2  -2   5  595.54   13.00
  -2  -2  -5  580.74   13.00
   2  -2   5  595.94   12.40
   2  -2   5  599.64   13.00
   2   2   5  602.94   13.70
  -2   2  -5  595.64   12.90
  -2   2  -5  615.54   12.40
   2   2   5  587.04   13.20
   2   2   5  610.34   13.30
   2   2   5  594.14   13.50
   2   2   5  591.24   13.30
  -3  -2  -5   98.29    5.40
  -3  -2  -5   92.69    5.20
  -3  -2  -5   95.99    5.20
  -3  -2  -5   98.19    5.50
   3  -2   5   93.69    3.40
   3  -2   5   88.99    5.20
   3  -2   5   93.99    5.00
   3  -2   5   99.79    6.10
   3   2   5   96.19    6.10
   3   2   5   99.79    5.40
  -3   2  -5  109.19    6.10
   3   2   5   93.39    5.40
  -3   2  -5   96.59    5.00
   3   2   5   96.69    5.40
   3   2   5   92.49    5.60
  -3   2  -5  103.89    4.30
  -3   2  -5   96.69    5.10
   4  -2   5  710.23   16.90
   4  -2   5  683.83   15.90
   4  -2   5  695.43   15.80
  -4  -2  -5  693.63   16.00
  -4  -2  -5  685.63   16.00
  -4  -2  -5  687.73   16.00
   4  -2   5  709.43   15.90
   4  -2   5  683.73   16.40
  -4  -2  -5  680.93   16.10
   4  -2   5  680.83   13.90
   4   2   5  691.93   15.80
  -4   2  -5  697.13   16.60
   4   2   5  686.33   16.40
   4   2   5  692.03   16.10
   4   2   5  662.73   15.90
  -4   2  -5  685.63   16.00
   4   2   5  680.93   16.10
  -4   2  -5  693.03   15.70
  -4   2  -5  691.03   14.50
   5  -2   5  325.47   11.30
  -5  -2  -5  358.86   11.00
   5  -2   5  354.46   11.00
   5  -2   5  359.46   10.60
  -5  -2  -5  375.66   11.40
  -5  -2  -5  383.26   11.10
   5  -2   5  352.96   11.00
   5  -2   5  343.77    8.70
   5  -2   5  351.36   11.80
  -5  -2  -5  367.86   11.10
  -5   2  -5  368.36   11.00
   5   2   5  343.87   10.80
  -5   2  -5  364.56   10.80
  -5   2  -5  364.76    9.30
   5   2   5  353.56   11.30
   5   2   5  358.26   10.60
  -5   2  -5  335.07   11.20
   5   2   5  360.56   11.70
  -5   2  -5  361.16    9.40
   6  -2   5  783.92   19.20
  -6  -2  -5  822.42   19.40
  -6  -2  -5  779.72   15.50
  -6  -2  -5  762.62   19.60
   6  -2   5  802.72   20.30
  -6  -2  -5  794.82   19.30
   6  -2   5  782.02   17.10
   6  -2   5  815.62   18.80
   6  -2   5  795.92   19.30
   6   2   5  802.02   18.90
   6   2   5  785.82   19.50
   6   2   5  775.12   19.40
  -6   2  -5  798.52   17.60
  -6   2  -5  807.52   19.20
  -6   2  -5  824.82   19.30
  -6   2  -5  805.52   17.50
   6   2   5  820.62   19.20
  -7  -2  -5   51.19    4.50
  -7  -2  -5   37.70    6.60
   7  -2   5   50.59    5.70
   7  -2   5   50.69    4.80
  -7  -2  -5   55.09    6.40
   7  -2   5   40.80    5.70
   7  -2   5   44.90    6.30
   7  -2   5   51.69    7.10
  -7  -2  -5   47.80    6.20
   7   2   5   53.49    7.00
  -7   2  -5   73.09    6.70
  -7   2  -5   41.00    6.80
   7   2   5   46.40    6.10
  -7   2  -5   51.89    5.90
  -7   2  -5   52.09    5.70
   7   2   5   44.10    6.40
  -7   2  -5   59.89    5.30
   8  -2   5   11.50    5.20
  -8  -2  -5    7.70    3.30
  -8  -2  -5    5.60    5.90
   8  -2   5    5.80    6.90
   8  -2   5   19.80    6.90
  -8  -2  -5    8.70    5.90
   8  -2   5   21.10    7.40
   8   2   5   16.00    6.90
  -8   2  -5   14.50    4.80
  -8   2  -5    6.70    6.10
  -8   2  -5   15.30    5.00
   8   2   5    0.40    7.00
  -8   2  -5   12.20    5.80
   8   2   5   14.40    5.70
   8   2   5   15.00    6.50
   9  -2   5  207.08   12.20
   9  -2   5  219.88   16.60
   9  -2   5  192.68   15.90
  -9  -2  -5  209.78   14.50
  -9  -2  -5  186.68    8.60
   9  -2   5  192.48   12.30
  -9  -2  -5  204.88   14.10
  -9   2  -5  204.18   12.00
  -9   2  -5  207.68   11.90
   9   2   5  217.28   13.20
  -9   2  -5  198.68   14.10
   9   2   5  199.18   17.60
  -9   2  -5  190.98   14.10
 -10  -2  -5   12.50    8.50
  10  -2   5   22.40   11.20
  10  -2   5    7.40    7.40
 -10  -2  -5   10.30    9.60
  10   2   5    4.70    8.50
 -10   2  -5   10.10    7.40
 -10   2  -5   11.80    9.40
 -10   2  -5   30.40   10.10
 -13  -3   5   36.10   11.80
 -13  -3   5   16.50   10.70
 -13  -3   5   54.99   12.20
 -13  -3   5   47.20   10.70
 -13   3   5   51.59   10.30
 -13   3   5   42.40   10.50
 -13   3   5   42.30   11.30
 -12  -3   5   75.09   10.50
 -12  -3   5   95.69   10.20
 -12  -3   5   84.59    9.40
 -12  -3   5   78.99    9.60
 -12   3   5   78.89    9.00
 -12   3   5   78.29    8.70
 -12   3   5   94.89   10.10
 -11  -3   5   81.09    8.60
 -11  -3   5   86.59    8.10
 -11  -3   5   79.19    8.80
 -11  -3   5   97.49    8.40
 -11   3   5   85.59    9.10
 -11   3   5   91.29    8.60
 -11   3   5   89.69    9.00
 -11   3   5   93.59    8.10
 -11   3   5  101.99    8.10
  11   3  -5   79.29    6.50
 -10  -3   5   29.30    6.10
 -10  -3   5   31.70    6.00
 -10  -3   5   33.70    3.20
  10  -3  -5   23.30    6.60
 -10  -3   5   39.10    5.70
 -10  -3   5   24.80    5.30
 -10   3   5   36.60    6.30
 -10   3   5   41.20    6.20
 -10   3   5   33.20    5.40
 -10   3   5   31.00    5.60
 -10   3   5   29.40    5.30
  10   3  -5   39.20    3.50
  -9  -3   5  110.09    5.30
  -9  -3   5  114.89   11.20
   9  -3  -5  123.09    8.70
  -9  -3   5  106.39    8.80
  -9  -3   5  110.09   11.20
  -9  -3   5  110.39    7.70
  -9   3   5  123.29    8.80
  -9   3   5  114.79    7.60
  -9   3   5  119.09    8.50
   9   3  -5  125.79   10.10
  -9   3   5   93.49    9.40
   9   3  -5  114.19    4.40
  -9   3   5  112.19    7.90
  -8  -3   5   83.29    4.90
  -8  -3   5   96.39    7.60
  -8  -3   5   97.89    6.30
   8  -3  -5   89.49    7.40
   8  -3  -5   83.89    6.50
  -8  -3   5   88.39    6.50
  -8  -3   5   89.29    7.00
  -8   3   5   90.09    6.30
   8   3  -5   93.09    7.50
  -8   3   5   89.79    6.20
   8   3  -5   85.19    6.20
  -8   3   5   80.79    7.00
  -8   3   5   78.69    6.20
   8   3  -5   92.89    6.00
  -8   3   5   91.19    7.30
  -7  -3   5   68.49    5.90
   7  -3  -5   74.69    6.40
  -7  -3   5   89.49    6.60
  -7  -3   5   70.89    5.40
  -7  -3   5   76.39    5.30
  -7  -3   5   69.99    4.70
   7  -3  -5   85.39    5.40
   7   3  -5   73.89    6.00
   7   3  -5   75.19    5.10
  -7   3   5   84.89    5.40
   7   3  -5   76.29    5.10
  -7   3   5   91.19    6.50
  -7   3   5   69.19    5.20
   7   3  -5   72.39    5.10
  -7   3   5   69.69    6.20
  -7   3   5   72.59    5.00
   7   3  -5   78.19    5.30
   6  -3  -5   79.09    2.80
  -6  -3   5   83.39    4.90
   6  -3  -5   85.09    4.70
  -6  -3   5   82.99    4.90
  -6  -3   5   88.59    4.80
  -6  -3   5   87.69    5.40
   6  -3  -5   94.69    6.10
   6  -3  -5   90.99    4.90
  -6  -3   5   76.49    6.00
   6   3  -5   82.09    4.50
  -6   3   5   87.99    5.90
  -6   3   5   79.99    4.90
   6   3  -5   77.89    4.60
  -6   3   5   82.69    4.40
   6   3  -5   86.59    5.40
   6   3  -5   83.39    4.50
  -6   3   5   83.49    5.30
  -6   3   5   92.89    5.00
   5  -3  -5  276.57    6.30
  -5  -3   5  270.87    7.50
  -5  -3   5  267.07    7.80
  -5  -3   5  275.37    7.50
   5  -3  -5  274.17    7.30
   5  -3  -5  285.27    8.70
   5  -3  -5  276.67    7.50
  -5  -3   5  256.47    8.60
  -5  -3   5  267.07    7.80
   5   3  -5  278.77    7.10
  -5   3   5  271.17    8.60
   5   3  -5  274.77    7.10
   5   3  -5  286.87    7.90
   5   3  -5  275.77    7.30
   5   3  -5  268.47    6.90
  -5   3   5  272.37    6.50
  -5   3   5  275.17    7.70
  -5   3   5  268.97    7.70
  -5   3   5  281.77    7.60
  -5   3   5  272.97    7.60
  -5   3   5  267.47    8.70
  -4  -3   5  360.56    8.50
   4  -3  -5  369.76    8.10
  -4  -3   5  358.26    8.60
   4  -3  -5  352.66   10.30
   4  -3  -5  357.26    8.50
   4  -3  -5  352.76    8.30
  -4  -3   5  355.96    9.70
  -4  -3   5  351.46    8.50
  -4   3   5  357.36    8.60
  -4   3   5  366.86    8.80
   4   3  -5  353.96    8.20
  -4   3   5  348.67    8.70
   4   3  -5  327.87    8.60
  -4   3   5  354.76    6.90
   4   3  -5  351.26    8.60
   4   3  -5  362.36    8.20
  -4   3   5  356.16    8.40
  -4   3   5  362.56    9.80
   4   3  -5  357.16    8.10
  -4   3   5  346.07    8.50
  -3  -3   5  116.19    4.20
  -3  -3   5  114.19    4.20
  -3  -3   5  114.69    3.10
  -3  -3   5  116.19    4.10
   3  -3  -5  112.19    4.60
   3  -3  -5  111.29    4.30
   3  -3  -5  112.69    5.40
  -3  -3   5  111.69    5.40
   3  -3  -5  123.59    4.50
  -3  -3   5  114.69    3.00
   3   3  -5  114.49    5.40
   3   3  -5  109.89    3.90
  -3   3   5  114.19    4.60
   3   3  -5  113.79    3.80
  -3   3   5  117.99    4.50
   3   3  -5  115.09    4.10
  -3   3   5  112.89    4.60
   3   3  -5  117.79    3.80
  -3   3   5  109.89    4.30
  -3   3   5  116.89    5.30
   3   3  -5  113.99    3.90
  -3   3   5  116.99    4.30
  -2  -3   5  543.85   10.90
   2  -3  -5  558.24   12.10
  -2  -3   5  566.74   11.40
   2  -3  -5  551.24   11.70
  -2  -3   5  548.75   11.50
  -2  -3   5  549.85   12.50
   2  -3  -5  557.04   11.80
  -2  -3   5  553.74   11.40
  -2  -3   5  542.55   13.20
   2   3  -5  559.34   12.60
  -2   3   5  548.25   12.00
   2   3  -5  549.54   11.20
  -2   3   5  558.04   12.00
  -2   3   5  557.74   11.70
  -2   3   5  558.84   12.30
   2   3  -5  553.64   11.10
  -2   3   5  546.45   12.80
   2   3  -5  558.14   11.20
  -2   3   5  558.84   11.80
   2   3  -5  546.65   11.30
  -2   3   5  542.55   11.90
  -1  -3   5  654.63   14.80
  -1  -3   5  666.03   14.20
  -1  -3   5  659.03   12.00
   1  -3  -5  669.43   14.20
  -1  -3   5  659.13   13.30
   1  -3  -5  630.24   13.80
  -1  -3   5  662.63   13.40
   1  -3  -5  645.84   13.50
  -1   3   5  646.54   13.60
   1   3  -5  654.63   13.30
  -1   3   5  651.03   14.20
  -1   3   5  660.33   13.80
  -1   3   5  655.33   13.60
  -1   3   5  650.63   13.40
  -1   3   5  637.84   14.60
   1   3  -5  679.43   14.20
   1   3  -5  666.53   13.20
  -1   3   5  665.53   13.90
   1   3  -5  665.93   13.20
   1   3  -5  661.43   13.10
   0  -3  -5  186.18    5.90
   0  -3  -5  194.98    4.90
   0  -3   5  190.48    5.80
   0  -3   5  198.18    7.00
   0  -3  -5  196.38    6.10
   0  -3   5  198.88    5.70
   0  -3   5  196.58    5.70
   0  -3   5  200.88    6.30
   0  -3  -5  197.88    6.50
   0   3   5  203.28    5.90
   0   3   5  199.68    6.20
   0   3   5  190.48    5.90
   0   3  -5  197.38    5.60
   0   3   5  196.38    5.20
   0   3  -5  195.58    5.50
   0   3  -5  201.18    6.10
   0   3  -5  195.68    5.70
   0   3   5  200.38    6.60
   0   3  -5  191.78    5.50
   0   3   5  192.28    6.50
   0   3   5  200.38    6.20
   1  -3   5  431.36   10.10
  -1  -3  -5  432.06    9.60
   1  -3   5  425.96   10.40
   1  -3   5  439.76   10.10
   1  -3   5  418.56   11.10
  -1  -3  -5  448.86   13.00
   1  -3   5  416.26   10.20
  -1  -3  -5  439.56   10.50
  -1  -3  -5  456.85   11.40
  -1   3  -5  438.46   10.10
   1   3   5  436.26   10.30
   1   3   5  417.86    8.70
  -1   3  -5  431.16    9.90
   1   3   5  443.16   10.50
   1   3   5  426.66   10.50
  -1   3  -5  444.06   10.10
  -1   3  -5  427.16   11.20
   1   3   5  427.16   10.90
   1   3   5  436.86   10.20
  -1   3  -5  427.56    9.90
  -1   3  -5  437.86   10.10
   2  -3   5  396.36    9.90
   2  -3   5  398.36   11.00
  -2  -3  -5  405.16    9.80
   2  -3   5  359.76   13.60
   2  -3   5  397.56    9.90
  -2  -3  -5  395.36   10.30
  -2  -3  -5  405.96   10.40
   2  -3   5  402.86    9.80
  -2  -3  -5  393.46   10.50
  -2   3  -5  407.16   11.00
  -2   3  -5  405.16    9.80
  -2   3  -5  407.46    9.70
   2   3   5  390.76   10.60
   2   3   5  393.46   10.60
   2   3   5  401.66   10.40
  -2   3  -5  357.66   11.10
   2   3   5  408.06   10.40
  -3  -3  -5  826.12   18.40
  -3  -3  -5  824.52   19.00
  -3  -3  -5  818.22   18.20
   3  -3   5  835.12   18.00
   3  -3   5  841.52   18.60
   3  -3   5  846.22   19.10
  -3  -3  -5  844.52   18.10
   3  -3   5  828.52   18.00
   3   3   5  830.52   18.70
   3   3   5  828.02   18.40
  -3   3  -5  835.32   18.90
  -3   3  -5  824.42   17.30
   3   3   5  872.71   18.70
  -3   3  -5  823.32   17.90
  -3   3  -5  835.82   18.00
   3   3   5  836.22   18.40
   4  -3   5  496.85   12.80
  -4  -3  -5  495.25   13.10
   4  -3   5  485.25   12.60
   4  -3   5  501.45   13.30
   4  -3   5  492.55   13.90
  -4  -3  -5  493.65   13.00
  -4  -3  -5  498.65   13.10
  -4  -3  -5  495.45   13.00
   4  -3   5  475.25   10.20
  -4   3  -5  492.05   11.90
   4   3   5  506.65   13.30
   4   3   5  496.95   13.10
  -4   3  -5  503.75   12.80
   4   3   5  515.05   13.40
  -4   3  -5  512.15   13.70
   4   3   5  485.85   13.30
  -4   3  -5  474.65   14.20
  -5  -3  -5  127.99    7.60
   5  -3   5  125.09    8.60
   5  -3   5  130.49    8.40
   5  -3   5  131.39    5.10
  -5  -3  -5  128.79    4.50
  -5  -3  -5  124.49    8.00
  -5  -3  -5  138.99    7.90
   5  -3   5  141.49    7.70
   5  -3   5  130.39    7.10
   5  -3   5  135.89    7.80
  -5  -3  -5  137.19    7.90
   5   3   5  143.29    8.30
  -5   3  -5  128.89    6.70
   5   3   5  129.59    7.70
  -5   3  -5  127.39    7.60
   5   3   5  130.79    7.90
  -5   3  -5  133.09    5.50
   5   3   5  129.29    8.00
  -5   3  -5  137.29    7.40
   6  -3   5  179.68    6.80
  -6  -3  -5  168.18    9.60
  -6  -3  -5  193.48    9.70
   6  -3   5  178.78   10.50
   6  -3   5  193.58    9.80
  -6  -3  -5  176.38   10.40
   6  -3   5  193.38    9.60
  -6  -3  -5  193.08    5.80
  -6  -3  -5  194.38    9.70
   6  -3   5  203.78    8.90
  -6   3  -5  195.08    7.20
  -6   3  -5  200.28    9.60
   6   3   5  191.38   10.20
  -6   3  -5  201.18    9.70
   6   3   5  191.98    9.50
   6   3   5  169.78   10.20
   6   3   5  186.38    9.50
  -6   3  -5  181.28    8.40
   7  -3   5   29.90    4.40
   7  -3   5   19.80    5.60
  -7  -3  -5   30.80    5.80
   7  -3   5   31.30    7.30
  -7  -3  -5   24.30    7.20
   7  -3   5   30.00    6.70
  -7  -3  -5   38.70    6.60
   7  -3   5   27.90    6.40
  -7  -3  -5   23.70    5.70
  -7  -3  -5   34.70    3.40
  -7   3  -5   33.60    5.60
  -7   3  -5   42.50    5.40
  -7   3  -5   28.00    5.60
   7   3   5   36.10    6.70
   7   3   5   30.10    6.30
   7   3   5   24.10    5.40
  -7   3  -5   37.90    4.70
   7   3   5   36.00    6.80
  -8  -3  -5   63.89    6.10
   8  -3   5   74.29    6.30
   8  -3   5   84.89    9.50
  -8  -3  -5   63.89    8.10
   8  -3   5   66.99    8.70
   8  -3   5   76.79    8.80
   8  -3   5   78.09    7.00
   8   3   5   64.79    7.50
   8   3   5   74.99    9.20
   8   3   5   67.29    9.40
  -8   3  -5   81.39    6.60
  -8   3  -5   81.99    8.20
  -8   3  -5   78.49    7.40
  -8   3  -5   75.09    8.00
  -9  -3  -5  143.99   15.10
   9  -3   5  108.79   11.30
  -9  -3  -5  114.79   10.90
   9  -3   5  162.48   16.60
   9  -3   5  148.39   11.80
   9  -3   5  146.49   11.70
  -9  -3  -5  135.89    8.60
  -9   3  -5  154.08   14.80
   9   3   5  125.89   12.30
  -9   3  -5  131.19   11.00
  -9   3  -5  158.28   13.90
   9   3   5  150.18   13.00
  -9   3  -5  147.99   13.20
 -10  -3  -5   35.10   11.20
 -10  -3  -5   41.50   11.00
  10  -3   5   41.10   12.30
  10  -3   5   45.50    8.80
  10   3   5   34.90    9.70
 -10   3  -5   46.00   10.90
 -10   3  -5   55.89    9.00
 -12  -4   5   35.40    9.90
 -12  -4   5   20.40    8.20
 -12  -4   5   33.10    9.10
 -12  -4   5   21.20    8.90
 -12   4   5   20.30    9.30
 -12   4   5   15.60    8.80
 -12   4   5   12.80    8.20
 -12   4   5   14.80    8.10
 -11  -4   5   88.19    8.60
 -11  -4   5   97.19    8.60
 -11  -4   5  111.89   10.00
 -11  -4   5  116.39    9.90
 -11   4   5  110.99    9.00
 -11   4   5   94.29    9.00
 -11   4   5  100.29    9.60
 -11   4   5  101.69    8.80
 -11   4   5   97.19    9.30
 -10  -4   5  161.18   10.50
 -10  -4   5  176.78   11.50
 -10  -4   5  168.28   12.00
 -10  -4   5  167.48   10.60
 -10  -4   5  150.88    7.60
 -10   4   5  180.58   12.00
  10   4  -5  175.18   10.50
 -10   4   5  183.78   10.80
 -10   4   5  165.68   10.40
 -10   4   5  134.99   10.40
 -10   4   5  151.88   11.20
  -9  -4   5   38.00    5.40
   9  -4  -5   25.90    5.10
  -9  -4   5   34.00    5.70
  -9  -4   5   32.60    5.20
   9  -4  -5   37.60    6.90
  -9  -4   5   26.10    5.80
  -9  -4   5   29.50    4.40
  -9   4   5   23.40    5.50
   9   4  -5   32.00    5.40
   9   4  -5   34.30    5.90
  -9   4   5   29.70    5.80
   9   4  -5   31.00    6.50
  -9   4   5   25.80    4.80
  -9   4   5   38.90    5.20
   9   4  -5   26.10    5.10
  -9   4   5   26.60    4.90
  -8  -4   5   27.70    4.10
  -8  -4   5   36.00    4.60
  -8  -4   5   31.00    4.80
  -8   4   5   27.80    4.20
   8   4  -5   23.50    5.00
  -8   4   5   32.60    4.10
   8   4  -5   30.30    4.20
   8   4  -5   36.00    4.50
  -8   4   5   33.70    5.50
  -7  -4   5   52.39    4.70
  -7  -4   5   41.10    4.80
   7  -4  -5   49.20    5.40
   7  -4  -5   62.39    5.90
   7  -4  -5   49.60    3.00
  -7  -4   5   53.09    4.80
  -7  -4   5   62.59    5.80
  -7  -4   5   52.09    4.50
   7   4  -5   59.89    5.30
  -7   4   5   52.49    4.60
  -7   4   5   60.89    5.70
   7   4  -5   54.89    4.60
   7   4  -5   54.79    5.40
  -7   4   5   51.89    4.70
  -7   4   5   50.79    4.60
  -7   4   5   59.29    5.70
  -7   4   5   63.09    6.30
   7   4  -5   57.39    5.30
  -7   4   5   61.39    5.20
  -6  -4   5  581.74   14.90
  -6  -4   5  578.44   13.90
  -6  -4   5  573.74   13.80
   6  -4  -5  571.74   15.00
  -6  -4   5  560.04   13.90
  -6  -4   5  574.34   13.90
   6  -4  -5  581.14   12.00
   6  -4  -5  592.74   13.80
  -6   4   5  589.34   12.10
   6   4  -5  585.64   13.60
   6   4  -5  589.14   14.10
   6   4  -5  579.94   13.40
   6   4  -5  570.94   13.30
  -6   4   5  570.74   14.00
  -6   4   5  598.34   15.10
  -6   4   5  592.14   14.00
  -6   4   5  592.84   14.20
   6   4  -5  580.04   13.30
  -6   4   5  580.74   13.80
  -6   4   5  591.64   14.90
   5  -4  -5 1220.98   23.30
  -5  -4   5 1181.58   24.40
   5  -4  -5 1222.38   24.30
  -5  -4   5 1217.48   24.90
   5  -4  -5 1226.58   25.70
  -5  -4   5 1208.48   25.50
   5  -4  -5 1194.98   24.30
  -5  -4   5 1211.68   24.40
  -5  -4   5 1223.38   24.40
  -5   4   5 1215.88   24.50
   5   4  -5 1220.08   24.00
   5   4  -5 1244.28   24.40
   5   4  -5 1219.98   23.90
   5   4  -5 1223.68   24.00
  -5   4   5 1212.88   25.60
  -5   4   5 1212.08   24.60
  -5   4   5 1204.98   24.40
  -5   4   5 1225.38   22.30
  -5   4   5 1220.18   24.70
   5   4  -5 1226.18   24.10
   4  -4  -5  330.37    8.50
  -4  -4   5  316.77    9.60
   4  -4  -5  315.07    8.10
   4  -4  -5  324.47    8.60
  -4  -4   5  318.37    8.30
  -4  -4   5  316.87    8.60
  -4  -4   5  318.57    8.60
   4  -4  -5  332.07    9.80
  -4   4   5  322.67    8.70
   4   4  -5  305.97    8.70
   4   4  -5  324.37    8.30
   4   4  -5  326.07    8.50
  -4   4   5  331.37    9.80
  -4   4   5  327.47    8.70
   4   4  -5  318.47    8.20
  -4   4   5  320.17    9.00
  -4   4   5  329.67    8.60
   4   4  -5  318.27    8.10
  -4   4   5  313.47    8.90
   3  -4  -5  255.47    7.20
   3  -4  -5  249.68    7.10
  -3  -4   5  249.88    7.00
   3  -4  -5  247.58    7.20
  -3  -4   5  248.28    6.50
  -3  -4   5  254.17    8.20
  -3  -4   5  249.48    7.20
  -3  -4   5  238.48    7.10
   3  -4  -5  247.78    8.20
  -3   4   5  253.47    7.30
  -3   4   5  251.27    7.60
  -3   4   5  256.27    7.90
   3   4  -5  239.38    6.90
  -3   4   5  253.07    7.60
   3   4  -5  254.07    6.90
  -3   4   5  238.48    7.40
   3   4  -5  248.28    6.70
   3   4  -5  243.38    8.10
  -3   4   5  247.68    8.10
  -3   4   5  250.87    7.30
   3   4  -5  258.67    6.50
   3   4  -5  249.68    6.80
   2  -4  -5   65.19    4.30
  -2  -4   5   70.69    5.10
  -2  -4   5   58.39    3.90
  -2  -4   5   55.39    5.40
  -2  -4   5   55.79    2.90
  -2  -4   5   63.89    3.00
  -2  -4   5   60.79    3.90
   2  -4  -5   65.39    4.50
  -2  -4   5   55.49    3.80
   2  -4  -5   55.69    4.50
  -2  -4   5   60.49    3.90
   2  -4  -5   57.69    4.90
  -2   4   5   56.09    4.40
  -2   4   5   62.09    4.10
  -2   4   5   66.79    4.90
   2   4  -5   59.89    3.60
   2   4  -5   61.79    3.60
  -2   4   5   62.79    4.70
  -2   4   5   62.99    4.60
   2   4  -5   60.09    3.80
   2   4  -5   56.79    2.80
  -2   4   5   58.49    4.00
  -2   4   5   58.99    4.30
   2   4  -5   54.99    3.80
   1  -4  -5 1289.37   25.40
  -1  -4   5 1289.87   24.70
  -1  -4   5 1260.17   24.10
  -1  -4   5 1246.78   25.40
  -1  -4   5 1249.18   26.10
   1  -4  -5 1277.57   25.10
  -1  -4   5 1266.07   24.70
  -1   4   5 1252.47   24.90
   1   4  -5 1269.77   24.50
  -1   4   5 1269.17   25.00
   1   4  -5 1286.07   24.40
  -1   4   5 1270.17   25.80
  -1   4   5 1251.27   25.20
   1   4  -5 1290.57   25.50
  -1   4   5 1274.57   25.30
   1   4  -5 1279.77   24.70
  -1   4   5 1264.27   24.60
  -1   4   5 1269.47   25.60
   0  -4  -5  182.88    6.40
   0  -4   5  180.68    6.80
   0  -4   5  189.18    6.10
   0  -4   5  190.18    6.20
   0  -4  -5  186.78    6.90
   0  -4   5  181.48    5.80
   0  -4   5  197.88    7.40
   0  -4  -5  185.88    6.60
   0  -4  -5  184.28    4.70
   0   4   5  186.08    5.80
   0   4   5  181.58    6.30
   0   4   5  190.08    7.10
   0   4   5  191.68    6.80
   0   4  -5  179.08    5.90
   0   4   5  187.28    6.40
   0   4   5  193.98    6.80
   0   4  -5  170.08    7.10
   0   4   5  177.98    6.90
   0   4  -5  193.88    6.10
   0   4  -5  196.78    6.80
   0   4  -5  193.58    6.10
  -1  -4  -5    0.30    2.40
   1  -4   5    1.00    2.30
  -1  -4  -5    1.70    2.40
   1  -4   5    1.50    2.20
  -1  -4  -5    1.10    2.60
   1  -4   5   -0.70    2.50
   1  -4   5    7.00    2.90
  -1  -4  -5    6.40    2.10
   1  -4   5    3.10    2.40
   1   4   5    3.30    2.50
  -1   4  -5    1.80    2.20
  -1   4  -5    1.50    2.10
   1   4   5    4.00    2.90
  -1   4  -5    2.70    2.50
   1   4   5    2.70    1.80
   1   4   5   -0.50    2.60
   1   4   5    2.00    2.60
  -1   4  -5    0.70    2.10
   1   4   5    1.60    2.30
   1   4   5    3.10    2.30
  -2  -4  -5  820.82   18.40
  -2  -4  -5  831.22   18.20
   2  -4   5  801.82   17.70
   2  -4   5  839.12   18.90
   2  -4   5  823.12   17.70
  -2  -4  -5  825.02   17.20
   2  -4   5  831.12   17.90
  -2  -4  -5  794.42   18.10
   2  -4   5  822.82   18.00
  -2   4  -5  817.02   17.60
   2   4   5  798.22   16.00
  -2   4  -5  815.82   18.70
   2   4   5  798.22   17.90
   2   4   5  834.82   18.30
  -2   4  -5  846.62   17.80
  -2   4  -5  812.72   17.60
  -2   4  -5  833.52   17.90
  -2   4  -5  837.22   17.70
   2   4   5  816.52   18.70
   2   4   5  821.32   17.90
   2   4   5  836.32   18.30
   2   4   5  810.12   18.50
   3  -4   5  708.33   16.40
  -3  -4  -5  701.73   16.80
   3  -4   5  733.23   16.40
  -3  -4  -5  719.63   16.90
  -3  -4  -5  706.63   14.40
   3  -4   5  686.43   17.20
  -3  -4  -5  704.03   16.80
   3  -4   5  705.33   16.50
  -3  -4  -5  713.33   16.20
   3   4   5  706.83   16.40
  -3   4  -5  693.73   17.30
   3   4   5  705.03   17.10
  -3   4  -5  709.73   16.30
   3   4   5  709.03   17.00
   3   4   5  736.73   17.00
  -3   4  -5  716.03   16.30
  -3   4  -5  727.03   16.10
   3   4   5  716.83   17.00
   4  -4   5  376.06   12.20
  -4  -4  -5  361.46   11.60
  -4  -4  -5  366.16    8.70
  -4  -4  -5  377.46   11.70
  -4  -4  -5  367.16   11.20
   4  -4   5  376.16   11.30
   4  -4   5  350.86   11.40
   4  -4   5  380.96   11.40
  -4   4  -5  373.16   11.10
   4   4   5  357.16   11.60
   4   4   5  381.06   11.70
  -4   4  -5  361.06   11.10
  -4   4  -5  364.16   10.60
   4   4   5  385.56   12.10
   4   4   5  362.26   11.70
   5  -4   5   85.39    7.90
  -5  -4  -5   89.19    8.00
  -5  -4  -5   90.29    8.00
  -5  -4  -5   82.59    8.00
   5  -4   5   87.89    8.60
  -5  -4  -5   82.19    4.70
  -5  -4  -5   78.19    7.70
   5  -4   5   75.79    7.80
   5  -4   5   77.69    7.40
   5   4   5   90.09    7.70
   5   4   5   70.39    6.20
  -5   4  -5   73.89    7.10
   5   4   5   84.29    6.70
   5   4   5   84.89    8.50
  -5   4  -5   79.59    6.70
  -5   4  -5   85.69    4.60
  -5   4  -5   73.39    5.90
   6  -4   5    7.00    5.00
  -6  -4  -5   16.50    5.10
  -6  -4  -5    7.60    4.80
   6  -4   5   13.50    4.70
   6  -4   5   10.70    5.30
   6  -4   5   19.80    5.70
  -6  -4  -5   12.90    5.20
  -6  -4  -5   15.10    5.50
  -6  -4  -5   15.90    3.00
   6  -4   5   15.10    5.50
  -6   4  -5   10.40    4.90
   6   4   5    6.80    5.20
   6   4   5    8.40    5.00
  -6   4  -5    6.40    5.90
   6   4   5   19.40    5.90
  -6   4  -5   10.10    4.40
  -6   4  -5   14.10    3.30
   6   4   5   12.50    5.70
  -6   4  -5   20.80    5.10
  -7  -4  -5  399.96   15.00
   7  -4   5  384.66   15.30
  -7  -4  -5  405.66   10.50
   7  -4   5  398.76   16.10
  -7  -4  -5  399.56   14.90
  -7  -4  -5  339.17   16.10
   7  -4   5  424.66   16.10
   7  -4   5  403.76   13.50
   7   4   5  407.46   16.30
  -7   4  -5  404.36   13.50
   7   4   5  400.06   14.70
   7   4   5  388.96   16.30
  -7   4  -5  422.76   14.80
  -7   4  -5  392.66   11.40
  -7   4  -5  424.36   14.90
   8  -4   5   44.80    6.70
   8  -4   5   53.49    8.70
   8  -4   5   44.40    8.50
  -8  -4  -5   37.90    4.80
   8  -4   5   29.00    8.60
  -8  -4  -5   43.80    8.00
  -8  -4  -5   42.80    8.20
  -8   4  -5   32.20    7.20
   8   4   5   38.20    9.60
   8   4   5   42.40    7.40
  -8   4  -5   49.60    7.90
  -8   4  -5   52.59    5.90
  -8   4  -5   30.20    7.20
   9  -4   5   27.70    7.70
  -9  -4  -5   21.60    9.20
  -9  -4  -5   26.20    9.50
   9  -4   5   29.30   10.20
  -9   4  -5   13.70    9.00
  -9   4  -5   26.50    6.60
   9   4   5   24.40    8.40
  -9   4  -5   12.50    7.80
 -10  -4  -5   24.10   11.30
  10  -4   5   23.80    8.70
  10  -4   5   41.00   14.50
  10   4   5   34.10   11.70
 -10   4  -5   23.80   10.60
 -12  -5   5   -2.80   10.00
 -12  -5   5   -3.00    9.90
 -12  -5   5    2.90    9.50
 -12  -5   5    3.20    9.20
 -12   5   5    3.80    9.70
 -12   5   5    2.90    8.80
 -12   5   5   -2.40    9.00
 -12   5   5    9.90   10.40
 -11  -5   5  154.18   11.70
 -11  -5   5  148.09   13.80
 -11  -5   5  139.79   10.90
 -11  -5   5  155.58   14.70
 -11   5   5  152.98   13.90
 -11   5   5  129.59   10.60
 -11   5   5  154.38   13.90
  11   5  -5  143.59   13.90
 -11   5   5  167.68   15.10
 -10  -5   5    3.80    6.00
 -10  -5   5   -0.20    5.30
 -10  -5   5    7.00    6.60
 -10  -5   5   13.90    6.50
 -10  -5   5    0.90    5.90
 -10   5   5    2.20    5.90
  10   5  -5    1.60    5.60
 -10   5   5   -8.70    5.60
 -10   5   5  -12.00    7.40
  10   5  -5    2.10    5.90
 -10   5   5   -2.60    5.60
 -10   5   5   -8.60    5.60
 -10   5   5    3.70    6.90
  -9  -5   5  146.79   10.00
  -9  -5   5  138.89    9.80
  -9  -5   5  122.09    8.70
  -9  -5   5  139.49    9.80
  -9  -5   5  115.39   10.70
  -9   5   5  129.69    9.80
   9   5  -5  161.78   12.20
  -9   5   5  129.09    8.30
   9   5  -5  147.29    9.40
  -9   5   5  144.39   11.10
  -9   5   5  124.59   10.40
  -9   5   5  139.19   11.30
  -9   5   5  133.39    9.60
  -9   5   5  137.59   11.60
  -8  -5   5 1006.60   22.60
   8  -5  -5  953.00   18.60
  -8  -5   5  976.90   21.60
   8  -5  -5  899.21   22.10
  -8  -5   5  994.20   22.50
  -8  -5   5 1013.30   22.70
   8  -5  -5  970.00   24.10
  -8  -5   5 1003.90   23.60
   8  -5  -5  925.81   22.60
  -8   5   5  985.30   22.50
  -8   5   5  995.60   22.80
   8   5  -5  857.71   22.40
   8   5  -5 1008.40   22.10
  -8   5   5 1011.70   23.10
  -8   5   5  958.50   20.30
  -8   5   5  969.00   25.20
  -8   5   5 1003.20   23.90
  -8   5   5  994.10   23.40
   8   5  -5  999.70   22.60
  -7  -5   5   31.10    4.50
  -7  -5   5   32.30    4.50
  -7  -5   5   26.50    5.80
  -7  -5   5   33.00    5.90
  -7  -5   5   26.90    4.60
   7  -5  -5   29.40    3.10
  -7   5   5   32.20    5.50
   7   5  -5   37.30    4.90
  -7   5   5   34.80    5.30
  -7   5   5   30.70    5.00
  -7   5   5   29.70    3.20
  -7   5   5   19.30    4.20
   7   5  -5   31.70    4.30
  -7   5   5   28.00    4.70
  -7   5   5   34.50    5.10
   7   5  -5   23.30    4.20
   6  -5  -5   32.90    3.50
   6  -5  -5   31.20    5.30
  -6  -5   5   28.60    4.80
  -6  -5   5   27.90    4.00
  -6  -5   5   29.50    4.50
  -6  -5   5   29.90    4.10
  -6  -5   5   29.10    4.00
   6  -5  -5   34.90    4.40
  -6   5   5   27.10    2.50
  -6   5   5   28.70    4.60
  -6   5   5   18.80    4.80
  -6   5   5   31.80    4.70
  -6   5   5   25.20    4.30
  -6   5   5   28.30    4.10
   6   5  -5   27.60    3.60
   6   5  -5   32.80    4.10
   6   5  -5   27.80    4.10
  -6   5   5   25.70    4.00
  -6   5   5   19.60    3.90
   6   5  -5   32.30    3.90
  -5  -5   5  333.67    9.90
  -5  -5   5  335.87   10.80
   5  -5  -5  332.07    9.10
  -5  -5   5  325.47   10.50
   5  -5  -5  335.77    9.90
   5  -5  -5  327.07   11.00
  -5  -5   5  330.67    9.40
  -5  -5   5  332.87    9.80
  -5   5   5  345.07   11.10
   5   5  -5  326.77    9.40
  -5   5   5  318.97   11.00
   5   5  -5  330.07    9.60
  -5   5   5  330.37   10.30
  -5   5   5  327.87   10.20
   5   5  -5  334.87    9.50
  -5   5   5  323.77    9.80
  -5   5   5  327.17    9.90
   5   5  -5  329.57    9.30
  -4  -5   5   55.69    5.20
  -4  -5   5   50.79    4.70
  -4  -5   5   48.90    4.60
   4  -5  -5   56.79    4.90
  -4  -5   5   53.69    4.30
  -4  -5   5   55.79    4.50
   4  -5  -5   66.49    5.70
   4  -5  -5   49.50    5.00
   4  -5  -5   54.69    4.90
   4   5  -5   51.69    5.20
  -4   5   5   52.69    4.80
  -4   5   5   54.59    5.00
   4   5  -5   46.10    4.70
   4   5  -5   47.30    4.60
  -4   5   5   62.49    5.00
   4   5  -5   51.79    4.30
  -4   5   5   55.79    5.50
   4   5  -5   51.09    4.60
   4   5  -5   47.70    4.80
  -4   5   5   56.79    5.20
  -4   5   5   54.89    5.10
  -4   5   5   54.69    5.50
  -3  -5   5 1629.94   32.00
  -3  -5   5 1648.24   33.10
   3  -5  -5 1681.93   32.30
   3  -5  -5 1663.33   33.50
  -3  -5   5 1642.54   31.10
  -3  -5   5 1634.04   32.30
   3  -5  -5 1685.03   32.50
  -3  -5   5 1645.14   32.30
   3  -5  -5 1682.83   32.40
   3   5  -5 1668.03   32.00
  -3   5   5 1608.24   32.30
  -3   5   5 1639.64   33.40
   3   5  -5 1704.33   32.10
  -3   5   5 1647.54   32.80
   3   5  -5 1657.63   31.90
  -3   5   5 1640.54   32.70
  -3   5   5 1672.33   32.80
  -3   5   5 1679.73   32.80
   3   5  -5 1669.53   31.10
   3   5  -5 1686.53   33.30
  -3   5   5 1645.44   32.50
   3   5  -5 1653.23   31.80
  -2  -5   5   77.19    5.20
   2  -5  -5   99.79    5.60
   2  -5  -5   84.39    5.20
  -2  -5   5   86.79    6.10
   2  -5  -5   88.39    5.50
   2  -5  -5   93.59    5.50
  -2  -5   5   90.49    5.20
  -2  -5   5   89.19    3.70
  -2  -5   5   93.19    5.30
  -2  -5   5   89.59    6.50
  -2  -5   5   90.49    5.00
   2  -5  -5   81.29    5.20
   2   5  -5   79.79    4.90
  -2   5   5   88.59    5.30
   2   5  -5   81.19    4.90
   2   5  -5   93.49    5.10
  -2   5   5   94.99    6.00
  -2   5   5   85.49    5.40
  -2   5   5  104.49    5.80
  -2   5   5   80.49    5.80
   2   5  -5   93.09    4.90
   2   5  -5  100.89    6.20
  -2   5   5   97.99    5.90
  -2   5   5   92.89    6.00
   2   5  -5   93.99    3.60
   1  -5  -5  532.35   13.20
  -1  -5   5  550.14   13.40
  -1  -5   5  519.35   12.40
  -1  -5   5  508.45   13.70
  -1  -5   5  525.85   11.50
  -1  -5   5  519.75   12.50
   1  -5  -5  518.45   12.70
   1  -5  -5  530.95   13.00
  -1   5   5  523.75   12.80
  -1   5   5  520.15   13.20
  -1   5   5  523.45   12.40
  -1   5   5  529.15   13.50
   1   5  -5  534.95   12.50
  -1   5   5  513.05   13.40
   1   5  -5  507.25   12.20
  -1   5   5  539.05   13.20
  -1   5   5  519.75   12.70
   1   5  -5  547.75   13.30
   1   5  -5  532.75   12.40
   1   5  -5  526.45   12.30
   0  -5   5 1515.65   31.50
   0  -5  -5 1530.85   30.90
   0  -5  -5 1571.34   30.90
   0  -5  -5 1585.84   31.20
   0  -5   5 1546.15   30.30
   0  -5   5 1545.55   31.00
   0  -5  -5 1532.65   28.20
   0  -5   5 1583.44   30.40
   0  -5   5 1504.75   29.70
   0   5  -5 1575.84   30.40
   0   5  -5 1551.74   30.90
   0   5  -5 1546.85   30.30
   0   5   5 1515.85   31.30
   0   5   5 1534.85   30.70
   0   5   5 1567.64   31.10
   0   5   5 1540.75   30.90
   0   5   5 1535.15   29.70
   0   5   5 1522.95   31.20
   0   5  -5 1615.74   30.60
   0   5   5 1532.35   30.60
   1  -5   5  136.89    6.40
  -1  -5  -5  147.29    7.10
  -1  -5  -5  131.89    5.20
   1  -5   5  135.99    7.10
  -1  -5  -5  125.09    7.00
   1  -5   5  137.49    7.30
   1  -5   5  131.69    6.10
   1  -5   5  128.59    6.40
   1   5   5  134.79    5.40
   1   5   5  139.49    7.30
   1   5   5  119.49    6.30
  -1   5  -5  136.99    6.50
  -1   5  -5  139.19    6.30
   1   5   5  139.49    7.00
   1   5   5  133.89    6.90
  -1   5  -5  133.79    6.20
   1   5   5  133.29    6.50
  -1   5  -5  132.49    6.70
   1   5   5  133.69    7.30
  -1   5  -5  138.89    6.40
  -2  -5  -5  423.66   12.30
   2  -5   5  434.46   11.60
   2  -5   5  439.16   12.70
  -2  -5  -5  413.56   10.80
  -2  -5  -5  432.46   12.20
   2  -5   5  433.86   12.20
  -2  -5  -5  425.16   10.50
  -2  -5  -5  434.86   12.30
   2  -5   5  436.26   11.80
   2  -5   5  427.36   11.70
   2   5   5  419.76   12.50
  -2   5  -5  426.96   11.80
   2   5   5  443.16   12.00
   2   5   5  444.46   12.10
   2   5   5  412.26   10.00
  -2   5  -5  444.36   11.90
  -2   5  -5  433.66   11.60
   2   5   5  428.66   11.90
  -2   5  -5  401.96   11.40
   2   5   5  434.86   12.50
  -2   5  -5  414.86   11.60
   2   5   5  441.46   12.50
   2   5   5  434.26   12.70
   3  -5   5  132.69    7.30
   3  -5   5  134.59    8.30
  -3  -5  -5  119.29    7.00
   3  -5   5  139.59    7.70
   3  -5   5  121.39    7.30
  -3  -5  -5  129.99    7.80
  -3  -5  -5  124.19    5.80
  -3  -5  -5  135.99    7.60
   3   5   5  124.89    7.30
   3   5   5  127.29    7.20
  -3   5  -5  139.09    7.30
  -3   5  -5  121.99    7.20
   3   5   5  131.29    7.20
   3   5   5  126.09    5.40
   3   5   5  121.19    8.00
   3   5   5  123.19    7.90
  -3   5  -5  118.89    7.30
   3   5   5  129.99    8.10
   3   5   5  140.09    8.20
  -3   5  -5  133.39    7.40
  -3   5  -5  124.29    6.90
   4  -5   5   63.79    5.90
  -4  -5  -5   65.19    6.00
   4  -5   5   58.19    5.70
  -4  -5  -5   54.89    5.40
   4  -5   5   60.39    6.10
   4  -5   5   51.59    6.00
  -4  -5  -5   48.90    4.90
  -4  -5  -5   60.59    5.70
  -4   5  -5   56.39    5.40
   4   5   5   63.89    5.70
  -4   5  -5   49.90    5.20
  -4   5  -5   60.99    5.70
  -4   5  -5   62.39    5.40
   4   5   5   39.70    5.60
   4   5   5   44.90    5.70
   4   5   5   60.99    6.30
   4   5   5   53.49    5.70
   4   5   5   66.19    5.80
  -5  -5  -5  460.25   14.70
  -5  -5  -5  485.65   11.60
  -5  -5  -5  490.55   14.90
  -5  -5  -5  491.15   15.00
  -5  -5  -5  473.05   15.10
   5  -5   5  483.15   14.90
   5  -5   5  491.05   15.50
   5  -5   5  463.65   15.00
   5  -5   5  455.05   14.30
   5   5   5  478.05   15.70
  -5   5  -5  464.55   10.20
  -5   5  -5  488.35   14.60
   5   5   5  482.55   14.40
   5   5   5  463.05   15.30
  -5   5  -5  479.55   15.80
   5   5   5  475.55   15.60
  -5   5  -5  470.35   14.00
  -5   5  -5  502.05   14.50
   5   5   5  475.75   15.20
  -6  -5  -5   25.00    6.20
  -6  -5  -5   24.60    3.90
   6  -5   5   23.60    6.20
  -6  -5  -5   17.20    5.90
   6  -5   5   27.00    7.00
   6  -5   5   13.90    6.20
  -6   5  -5   29.60    6.10
  -6   5  -5   32.40    6.00
   6   5   5   24.50    7.00
   6   5   5   29.30    7.30
   6   5   5   29.40    6.70
  -6   5  -5   25.20    5.80
  -6   5  -5   29.30    3.40
  -7  -5  -5   61.09    8.90
  -7  -5  -5   54.29    5.10
  -7  -5  -5   55.29    9.30
   7  -5   5   51.79    9.00
   7  -5   5   51.89    8.00
   7  -5   5   57.99    8.50
   7  -5   5   58.69    7.10
  -7  -5  -5   63.39    8.20
  -7   5  -5   57.19    7.30
   7   5   5   48.30    8.80
   7   5   5   37.10    7.50
  -7   5  -5   53.69    8.00
   7   5   5   37.80    8.40
  -7   5  -5   59.99    5.10
   8  -5   5   62.29   10.00
  -8  -5  -5   65.69    9.50
   8  -5   5   43.00    9.70
  -8  -5  -5   55.69    5.90
  -8  -5  -5   56.99    9.50
   8  -5   5   64.49    8.20
  -8   5  -5   60.59    6.20
   8   5   5   65.59    9.20
  -8   5  -5   48.40    8.20
  -8   5  -5   63.99    9.40
  -8   5  -5   68.09    9.50
   8   5   5   59.99   11.30
  -9  -5  -5   53.09   11.60
  -9  -5  -5   56.39   11.20
   9  -5   5   49.20    9.30
   9  -5   5   64.09   12.30
  -9   5  -5   66.29   10.70
   9   5   5   56.29   10.70
 -11  -6   5   79.49   10.70
 -11  -6   5   66.99   10.10
 -11  -6   5   75.49   10.60
 -11  -6   5   68.99   10.10
 -11   6   5   52.29   11.20
 -11   6   5   60.79    9.70
 -11   6   5   62.49    9.90
 -11   6   5   59.99   10.00
 -10  -6   5   60.69    8.70
 -10  -6   5   71.29    9.00
 -10  -6   5   77.39    8.40
 -10  -6   5   76.79    9.00
 -10  -6   5   94.59    9.30
 -10   6   5   66.59    8.60
 -10   6   5   64.49    7.90
 -10   6   5   68.49   10.20
  10   6  -5   78.09    8.90
 -10   6   5   88.19    9.80
 -10   6   5   74.19   10.10
   9  -6  -5    0.10    3.20
  -9  -6   5    0.20    5.80
  -9  -6   5    2.10    5.90
  -9  -6   5   -2.40    5.80
  -9  -6   5    4.10    6.50
  -9  -6   5   -2.10    6.10
   9   6  -5   -7.50    5.40
  -9   6   5    1.80    4.80
   9   6  -5   -4.30    5.40
  -9   6   5   -0.30    6.90
  -9   6   5   -5.60    7.10
  -9   6   5    2.60    7.10
  -9   6   5    2.00    5.70
  -9   6   5    2.60    5.70
  -9   6   5   -2.30    5.40
  -8  -6   5   75.19    8.80
   8  -6  -5   93.79    6.00
  -8  -6   5   83.79    7.60
  -8  -6   5   89.89    9.10
  -8  -6   5   99.39    8.40
  -8  -6   5   96.89    9.70
   8   6  -5  100.19    8.40
  -8   6   5   93.49    6.70
  -8   6   5   95.39    8.20
  -8   6   5   85.29    8.40
  -8   6   5   93.19    9.50
  -8   6   5   99.19    9.80
   8   6  -5  103.19    8.90
  -8   6   5   94.59    9.40
  -8   6   5  101.49    8.60
  -7  -6   5    2.70    4.40
  -7  -6   5    3.20    4.90
  -7  -6   5    4.00    5.40
   7  -6  -5   -1.90    3.40
   7  -6  -5   -3.20    5.00
  -7  -6   5    2.80    4.10
   7  -6  -5    3.60    4.60
  -7  -6   5    8.70    4.60
   7  -6  -5   -4.80    5.60
  -7   6   5    2.10    4.90
  -7   6   5   -1.90    6.00
  -7   6   5    4.70    4.80
  -7   6   5   -1.20    5.00
   7   6  -5    6.00    4.70
  -7   6   5   -1.10    4.10
  -7   6   5   -1.10    5.10
   7   6  -5    0.40    4.00
  -7   6   5   -5.70    2.90
  -7   6   5   -2.10    4.40
   7   6  -5   -0.50    4.80
   7   6  -5    4.00    5.00
  -6  -6   5  253.77   12.60
  -6  -6   5  326.47   11.60
  -6  -6   5  316.17   11.00
   6  -6  -5  301.77    9.50
   6  -6  -5  306.57   11.60
  -6  -6   5  271.87   13.10
  -6  -6   5  322.77   10.30
  -6   6   5  278.67   16.00
   6   6  -5  289.87   10.30
  -6   6   5  305.27   11.50
   6   6  -5  329.87   10.40
  -6   6   5  299.37   16.90
  -6   6   5  300.07   12.90
  -6   6   5  294.17   13.00
  -5  -6   5   87.59    6.80
  -5  -6   5   77.19    7.80
   5  -6  -5   66.99    6.10
  -5  -6   5   80.09    7.60
  -5  -6   5   78.99    6.10
  -5  -6   5   79.49    6.90
  -5   6   5   88.29    6.80
  -5   6   5   81.09    7.70
   5   6  -5   78.69    6.50
   5   6  -5   78.69    6.10
  -5   6   5   96.09    8.10
  -5   6   5   78.49    6.70
  -5   6   5   88.09    7.60
   5   6  -5   71.99    6.70
  -5   6   5   86.49    6.90
   4  -6  -5   17.20    3.80
  -4  -6   5   11.30    4.40
  -4  -6   5    4.80    3.40
  -4  -6   5    8.00    3.40
  -4  -6   5    9.70    3.90
   4  -6  -5   13.20    3.70
   4   6  -5    7.60    3.30
  -4   6   5    6.00    3.80
   4   6  -5    5.90    3.40
  -4   6   5    6.60    3.50
  -4   6   5    4.40    3.80
   4   6  -5    6.80    3.90
  -4   6   5    1.50    3.10
  -4   6   5   10.60    4.20
   4   6  -5   11.00    3.20
  -4   6   5    7.30    4.20
  -3  -6   5   81.39    6.10
  -3  -6   5   77.79    6.10
   3  -6  -5   87.49    6.40
  -3  -6   5   85.49    7.20
  -3  -6   5   81.69    6.10
   3  -6  -5   89.29    6.40
  -3  -6   5   85.69    7.50
  -3   6   5   88.89    6.60
  -3   6   5   97.69    7.00
  -3   6   5   92.59    7.20
  -3   6   5   89.39    7.00
   3   6  -5   82.19    7.20
  -3   6   5   82.49    6.10
   3   6  -5   80.59    6.20
  -3   6   5   93.79    6.30
   3   6  -5   78.79    6.10
  -3   6   5   80.99    6.80
   3   6  -5   79.29    4.70
   2  -6  -5  307.27    9.80
  -2  -6   5  302.77    9.60
  -2  -6   5  301.47    7.30
  -2  -6   5  301.67    9.50
   2  -6  -5  299.57    9.70
  -2  -6   5  300.47   10.80
  -2  -6   5  286.97    9.40
   2  -6  -5  303.87    9.90
  -2  -6   5  298.47    9.30
   2  -6  -5  298.67   10.10
  -2  -6   5  301.87   10.50
   2  -6  -5  264.27    9.30
  -2   6   5  299.87    9.80
  -2   6   5  310.97   10.50
  -2   6   5  306.77   10.30
   2   6  -5  292.77    9.30
   2   6  -5  293.27   10.50
   2   6  -5  273.17    9.30
  -2   6   5  298.77   10.30
  -2   6   5  313.67    9.70
  -2   6   5  300.77    9.70
  -2   6   5  292.87   10.30
   2   6  -5  297.17    7.30
  -1  -6   5  414.86   12.50
  -1  -6   5  397.06    9.80
   1  -6  -5  409.86   11.90
  -1  -6   5  417.26   11.30
  -1  -6   5  419.16   12.30
  -1  -6   5  421.76   11.40
   1  -6  -5  415.06   12.10
  -1   6   5  397.56   12.00
  -1   6   5  408.56   11.20
   1   6  -5  423.06   11.50
  -1   6   5  418.76   12.30
  -1   6   5  410.36   11.60
   1   6  -5  409.06    8.40
   1   6  -5  411.86   11.20
   1   6  -5  416.46   12.30
  -1   6   5  413.06   12.30
   1   6  -5  421.26   11.30
  -1   6   5  407.96   12.20
  -1   6   5  412.96   11.70
   0  -6  -5  120.09    7.20
   0  -6   5  115.09    6.80
   0  -6   5  121.09    7.80
   0  -6   5  111.79    6.70
   0  -6  -5  117.59    7.40
   0  -6   5  115.29    7.50
   0  -6  -5  115.89    7.50
   0  -6   5  121.89    6.00
   0  -6  -5  120.39    4.40
   0   6   5  113.49    7.80
   0   6  -5  120.59    6.70
   0   6   5  123.19    6.80
   0   6   5  128.69    7.10
   0   6   5  122.19    7.80
   0   6   5  119.39    7.60
   0   6  -5  116.69    6.90
   0   6   5  130.49    7.40
   0   6  -5  112.79    7.50
   0   6  -5  115.19    6.60
   0   6   5  115.29    7.60
  -1  -6  -5  144.89    7.90
  -1  -6  -5  148.49    8.40
   1  -6   5  148.19    8.40
  -1  -6  -5  135.09    5.80
  -1  -6  -5  137.49    8.10
   1  -6   5  135.09    7.60
   1  -6   5  149.19    6.90
   1  -6   5  150.18    8.20
   1  -6   5  131.29    7.40
   1   6   5  147.09    6.60
   1   6   5  146.89    7.70
  -1   6  -5  138.39    7.70
  -1   6  -5  146.69    8.00
   1   6   5  144.59    7.40
   1   6   5  144.69    8.50
  -1   6  -5  151.68    7.40
   1   6   5  139.59    8.60
   1   6   5  138.19    7.30
  -1   6  -5  140.49    7.40
  -2  -6  -5  477.75   12.40
   2  -6   5  473.75   12.80
   2  -6   5  469.45   14.20
  -2  -6  -5  467.25   12.00
   2  -6   5  475.85   13.50
  -2  -6  -5  483.35   13.90
   2  -6   5  485.55   13.90
   2  -6   5  501.15   13.40
  -2  -6  -5  473.85   13.70
  -2   6  -5  487.35   13.80
   2   6   5  493.65   13.50
   2   6   5  466.15   14.10
   2   6   5  472.95   11.90
   2   6   5  480.65   14.60
  -2   6  -5  487.15   13.40
  -2   6  -5  427.86   14.50
   2   6   5  486.85   14.50
   2   6   5  488.05   13.60
   2   6   5  482.45   13.50
  -3  -6  -5   31.40    5.30
   3  -6   5   38.60    5.20
   3  -6   5   31.70    5.30
   3  -6   5   31.80    5.30
  -3  -6  -5   27.20    5.00
   3  -6   5   33.40    5.80
  -3  -6  -5   34.80    4.40
   3  -6   5   32.70    5.20
  -3  -6  -5   43.40    5.80
  -3   6  -5   35.60    5.10
   3   6   5   40.30    5.30
   3   6   5   36.70    5.20
  -3   6  -5   36.90    5.00
   3   6   5   29.80    5.10
   3   6   5   30.60    5.90
   3   6   5   28.90    5.60
   3   6   5   33.70    4.00
  -3   6  -5   24.60    4.90
  -3   6  -5   15.30    4.70
   3   6   5   34.10    5.30
   4  -6   5  101.69    8.80
  -4  -6  -5   78.19    8.10
   4  -6   5   85.19    7.10
  -4  -6  -5   84.69   11.00
   4  -6   5   92.59    7.40
  -4  -6  -5   99.49    9.30
  -4  -6  -5   83.19    6.70
  -4  -6  -5   92.59    8.90
   4  -6   5   98.09    8.00
  -4   6  -5   84.19    8.50
  -4   6  -5   92.29    8.80
   4   6   5   72.39    6.80
   4   6   5   87.09    8.50
  -4   6  -5  108.79    8.90
   4   6   5   86.59    7.60
   4   6   5   88.99    8.60
   4   6   5   84.69    8.20
  -4   6  -5   84.19    8.40
   4   6   5  103.29   10.50
  -4   6  -5   87.39    7.10
  -4   6  -5   93.49    8.30
   4   6   5   71.29    7.60
   5  -6   5    4.40    5.80
   5  -6   5    3.00    6.00
  -5  -6  -5    3.90    5.70
  -5  -6  -5    3.90    3.90
  -5  -6  -5    9.90    5.50
  -5  -6  -5   14.80    5.90
   5  -6   5   11.70    6.10
   5  -6   5   -1.10    5.40
   5   6   5   -1.20    5.00
   5   6   5   10.20    5.30
   5   6   5    8.30    6.70
   5   6   5    6.20    5.10
   5   6   5    6.40    5.80
  -5   6  -5    4.70    4.80
  -5   6  -5    4.40    5.10
   5   6   5    4.90    6.70
  -6  -6  -5  200.38   13.10
  -6  -6  -5  202.08   16.80
  -6  -6  -5  195.68    9.10
   6  -6   5  206.08   14.80
   6  -6   5  211.58   13.70
  -6  -6  -5  232.18   17.00
   6  -6   5  234.78   13.90
  -6   6  -5  223.28   12.50
   6   6   5  179.38   15.80
   6   6   5  190.48   12.10
  -6   6  -5  188.48   13.10
   6   6   5  213.68   15.10
   6   6   5  218.78   12.70
  -6   6  -5  197.98   12.50
  -6   6  -5  193.68    6.60
   6   6   5  214.08   13.40
  -7  -6  -5  205.78   15.30
   7  -6   5  196.08   17.90
   7  -6   5  248.78   16.00
  -7  -6  -5  217.98   10.10
   7  -6   5  222.48   16.00
  -7  -6  -5  201.48   15.40
   7   6   5  194.78   14.50
  -7   6  -5  211.28   14.50
  -7   6  -5  180.58   13.90
  -7   6  -5  179.18   15.20
   7   6   5  187.18   15.20
   7   6   5  172.38   13.90
  -7   6  -5  179.58    8.30
   7   6   5  231.38   18.00
   8  -6   5   37.50    8.30
  -8  -6  -5   43.40   10.80
  -8  -6  -5   34.90   10.20
   8  -6   5   40.00   11.20
   8   6   5   33.00   10.20
  -8   6  -5   40.40   10.20
   8   6   5   42.60    9.40
   8   6   5   45.80   10.30
  -8   6  -5   63.29   10.00
   9  -6   5    9.60   13.90
  -9  -6  -5   -8.90   11.10
   9  -6   5   25.40   10.00
   9   6   5    2.00   11.60
  -9   6  -5    2.30   10.70
   9   6   5    4.40   11.70
 -10  -7   5   11.20    8.60
 -10  -7   5    4.10    8.50
 -10  -7   5   -9.10    8.40
 -10  -7   5   13.40    9.30
 -10   7   5   -4.30    9.90
 -10   7   5    7.90    8.50
 -10   7   5    2.60    8.80
 -10   7   5   15.90    8.20
  10   7  -5    1.00    8.10
  -9  -7   5   63.39    9.40
  -9  -7   5   62.29    8.60
  -9  -7   5   54.99    9.30
  -9  -7   5   61.09    8.40
  -9  -7   5   64.39    8.80
  -9   7   5   69.39   10.20
  -9   7   5   67.19    9.00
  -9   7   5   58.59    8.30
   9   7  -5   60.09    7.90
  -9   7   5   55.59    9.30
  -9   7   5   62.59    9.10
  -8  -7   5  143.69   13.00
  -8  -7   5  162.28   13.30
  -8  -7   5  149.09   11.80
  -8  -7   5  153.18   11.50
  -8  -7   5  165.98   11.40
   8  -7  -5  121.89   11.50
  -8   7   5  148.19   11.90
   8   7  -5  148.19   13.00
  -8   7   5  139.59   13.00
  -8   7   5  124.19   13.00
  -8   7   5  175.68   12.40
  -8   7   5  134.79   11.50
   8   7  -5  149.69   11.30
   8   7  -5  148.09   11.00
  -8   7   5  141.09   13.90
  -7  -7   5   11.90    5.40
  -7  -7   5   22.60    6.30
  -7  -7   5    6.80    5.00
  -7  -7   5   15.00    5.50
  -7  -7   5   14.70    7.20
   7  -7  -5    7.30    4.70
   7   7  -5   13.90    5.50
  -7   7   5    7.90    5.40
  -7   7   5    7.20    6.30
  -7   7   5   14.00    6.00
   7   7  -5   15.00    5.30
  -7   7   5   13.10    6.40
  -7   7   5   15.40    5.80
  -7   7   5   12.90    6.90
  -6  -7   5  152.78   10.70
  -6  -7   5  142.89    9.40
   6  -7  -5  144.49    8.40
  -6  -7   5  126.69   10.70
  -6  -7   5  142.69    9.70
  -6   7   5  157.18   10.00
   6   7  -5  125.59   10.30
  -6   7   5  144.89    9.60
  -6   7   5  145.19   10.90
   6   7  -5  144.29    9.40
   6   7  -5  143.49    9.10
  -6   7   5  151.58   10.80
   6   7  -5  159.98    9.40
  -6   7   5  145.59    9.60
  -6   7   5  160.38   12.80
  -6   7   5  143.19   10.70
  -5  -7   5    8.70    4.60
   5  -7  -5    6.90    5.00
   5  -7  -5    6.90    4.40
  -5  -7   5   16.10    5.40
   5  -7  -5   10.10    4.30
  -5  -7   5    7.70    5.60
  -5  -7   5   15.20    4.60
   5   7  -5   15.30    4.70
  -5   7   5   16.20    4.70
  -5   7   5   21.00    4.60
  -5   7   5   17.50    6.30
   5   7  -5   12.40    5.20
  -5   7   5   14.50    5.40
   5   7  -5   17.00    4.70
  -5   7   5   17.50    5.20
   5   7  -5    6.70    4.00
  -5   7   5   15.10    5.50
  -4  -7   5  160.68   10.50
   4  -7  -5  162.68    9.30
   4  -7  -5  174.48    9.70
  -4  -7   5  142.89    9.30
  -4  -7   5  156.98    9.80
   4  -7  -5  149.29    8.60
  -4  -7   5  170.38   10.70
   4   7  -5  177.48   12.50
  -4   7   5  160.88   10.10
  -4   7   5  158.38   10.10
   4   7  -5  139.59    8.60
  -4   7   5  144.19    9.90
   4   7  -5  166.68    8.50
  -4   7   5  159.58    9.80
  -4   7   5  156.38   10.10
  -4   7   5  139.59   12.20
   4   7  -5  168.78    8.50
  -3  -7   5  117.69    9.20
   3  -7  -5  116.19    8.10
  -3  -7   5  117.89    9.00
   3  -7  -5   96.19    9.00
  -3  -7   5  114.79    7.70
  -3  -7   5  121.89    8.00
  -3  -7   5  121.19    7.80
  -3  -7   5  112.89    9.70
   3  -7  -5  110.69    8.00
  -3   7   5  116.89    8.90
  -3   7   5  114.69    9.00
  -3   7   5  112.59    8.30
   3   7  -5  110.69    7.60
   3   7  -5  114.99    7.70
  -3   7   5  122.29    7.90
  -3   7   5  129.09    9.20
   3   7  -5  109.59    5.90
  -3   7   5  110.69    7.80
  -2  -7   5   52.19    6.40
  -2  -7   5   44.10    5.60
  -2  -7   5   50.79    4.30
  -2  -7   5   39.00    5.30
   2  -7  -5   59.29    6.20
   2  -7  -5   57.19    5.40
  -2  -7   5   46.70    5.10
   2  -7  -5   50.09    5.40
  -2  -7   5   49.90    5.50
  -2  -7   5   45.50    5.10
   2   7  -5   52.49    5.20
  -2   7   5   47.90    5.70
  -2   7   5   43.80    5.10
  -2   7   5   44.80    5.50
  -2   7   5   50.49    5.70
   2   7  -5   48.20    4.50
   2   7  -5   56.29    5.50
  -2   7   5   55.89    5.50
  -2   7   5   45.40    5.50
  -2   7   5   53.39    5.90
  -1  -7   5  238.98    7.60
  -1  -7   5  223.38    9.40
  -1  -7   5  243.08   10.60
  -1  -7   5  251.57   10.20
  -1  -7   5  244.78   10.60
   1  -7  -5  260.37   10.00
   1  -7  -5  264.37   10.40
   1  -7  -5  222.38   10.50
  -1   7   5  253.57    9.80
  -1   7   5  237.98   10.60
  -1   7   5  252.77   11.00
   1   7  -5  240.38    9.70
   1   7  -5  242.98    6.30
   1   7  -5  244.88    9.50
  -1   7   5  241.98   10.80
  -1   7   5  249.38   10.40
  -1   7   5  252.17    9.70
  -1   7   5  248.88    9.80
   0  -7   5  200.38    9.90
   0  -7   5  197.18   10.00
   0  -7  -5  199.68    5.70
   0  -7  -5  201.48    6.10
   0  -7  -5  207.58    9.50
   0  -7   5  194.18    9.30
   0  -7  -5  204.08    9.70
   0  -7   5  189.38    9.50
   0   7   5  188.28    9.20
   0   7   5  194.08    9.10
   0   7   5  174.58    8.60
   0   7   5  173.78   10.30
   0   7   5  204.08   10.50
   0   7  -5  198.98    9.30
   0   7   5  199.68   10.20
   0   7   5  199.48    9.40
   0   7  -5  208.98    9.10
   1  -7   5   50.49    5.80
  -1  -7  -5   58.29    5.60
   1  -7   5   67.39    6.70
   1  -7   5   72.59    6.70
   1  -7   5   81.99    6.70
  -1  -7  -5   70.59    6.50
  -1  -7  -5   55.59    9.80
   1  -7   5   76.39    6.30
  -1  -7  -5   78.69    6.80
  -1   7  -5   71.29    7.50
  -1   7  -5   60.99    6.10
  -1   7  -5   72.39    7.10
  -1   7  -5   73.29    6.00
   1   7   5   74.29    7.10
   1   7   5   69.89    7.10
   1   7   5   68.29    5.40
   1   7   5   66.79    6.10
   1   7   5   76.79    7.00
   1   7   5   84.79    7.80
  -2  -7  -5   45.70    6.10
   2  -7   5   52.09    6.00
   2  -7   5   44.90    5.60
   2  -7   5   52.09    6.50
   2  -7   5   45.80    6.30
  -2  -7  -5   49.70    4.80
  -2  -7  -5   49.70    6.90
  -2  -7  -5   51.59    6.10
   2  -7   5   48.00    6.20
  -2  -7  -5   55.79    5.40
  -2   7  -5   52.39    5.80
   2   7   5   52.39    5.90
   2   7   5   52.29    6.80
   2   7   5   53.29    6.40
   2   7   5   50.79    6.60
  -2   7  -5   38.80    6.00
   2   7   5   45.60    5.90
  -2   7  -5   58.69    6.10
   2   7   5   43.60    4.90
  -2   7  -5   46.60    6.00
   2   7   5   49.90    5.80
  -3  -7  -5  105.79    8.40
  -3  -7  -5   92.29    7.60
   3  -7   5  107.09   10.20
  -3  -7  -5  113.69   10.10
   3  -7   5  101.09    9.80
  -3  -7  -5   87.49    9.60
   3  -7   5  107.69   10.10
   3  -7   5  108.49    9.50
   3  -7   5  108.39    9.60
  -3  -7  -5  115.39    8.10
  -3   7  -5   94.09    7.80
  -3   7  -5   98.29    9.20
   3   7   5  108.39    8.90
   3   7   5  105.29   12.50
   3   7   5  111.59    7.90
   3   7   5  105.89   10.50
   3   7   5   92.19    8.20
   3   7   5  107.79    8.90
   3   7   5   98.59   10.10
  -3   7  -5   72.19    7.50
  -3   7  -5  108.39    9.00
  -4  -7  -5  257.57   10.50
  -4  -7  -5  242.98   11.70
   4  -7   5  274.97   13.50
   4  -7   5  244.88   13.10
  -4  -7  -5  242.68   13.10
  -4  -7  -5  259.67   12.80
   4  -7   5  255.27   13.20
   4  -7   5  248.28   13.10
   4   7   5  272.67   15.00
  -4   7  -5  273.37   12.30
   4   7   5  254.07   11.80
   4   7   5  288.67   13.00
   4   7   5  259.67   13.50
   4   7   5  253.27   10.50
  -4   7  -5  246.58   13.60
   4   7   5  265.57   14.30
   4   7   5  268.97   12.30
  -4   7  -5  257.27   12.50
  -5  -7  -5   60.69    7.90
  -5  -7  -5   59.69    5.90
   5  -7   5   47.10    7.70
   5  -7   5   50.69    8.90
  -5  -7  -5   47.40    7.70
   5  -7   5   46.10    9.50
  -5   7  -5   49.99    7.00
  -5   7  -5   43.20    7.90
   5   7   5   55.69    7.00
  -5   7  -5   65.59    7.90
   5   7   5   52.69    7.70
   5   7   5   27.30    9.10
   5   7   5   46.10    9.10
   5   7   5   62.39    7.80
   5   7   5   40.70    7.90
  -6  -7  -5    8.70    5.50
  -6  -7  -5   19.00    8.30
   6  -7   5   21.90   10.30
   6  -7   5    7.70    8.10
  -6  -7  -5   16.30    9.10
   6  -7   5    7.30    8.50
  -6  -7  -5   12.10    8.00
   6   7   5   17.30    7.00
   6   7   5    3.00    8.00
  -6   7  -5    5.90    7.40
   6   7   5   24.60    7.90
   6   7   5   17.10   10.10
   6   7   5    8.90    7.20
  -6   7  -5   -4.60    6.80
   7  -7   5    8.50    9.50
  -7  -7  -5   -3.40    9.10
  -7  -7  -5   20.80    6.60
  -7  -7  -5   -1.80    9.20
  -7   7  -5    2.50    8.50
   7   7   5   16.50    9.30
   7   7   5    5.40    7.80
  -7   7  -5   10.60    8.60
   7   7   5  -10.10    8.40
   7   7   5   -2.50    7.60
  -8  -7  -5   20.20   11.80
   8  -7   5   41.20   12.40
   8   7   5    6.00   11.00
   8   7   5   34.10   12.50
   8   7   5   32.00   10.10
  -8   7  -5   30.50   10.70
   8   7   5   30.80   10.70
  -9  -8   5   49.99    9.90
  -9  -8   5   44.10   10.50
  -9  -8   5   56.19    9.80
  -9   8   5   57.69    9.60
   9   8  -5   49.80   10.10
  -9   8   5   54.09    9.90
  -9   8   5   66.19   10.20
  -9   8   5   54.49   12.10
  -8  -8   5    2.00    7.50
  -8  -8   5   11.90    8.30
  -8  -8   5   -4.90    7.40
  -8   8   5  -17.90    7.10
  -8   8   5    7.10   10.20
  -8   8   5   15.40    7.90
   8   8  -5   -2.20    7.10
  -8   8   5    0.30    7.30
  -8   8   5    8.60    8.30
  -7  -8   5  130.49   12.60
   7  -8  -5  134.49   10.90
  -7  -8   5  136.19   12.70
  -7  -8   5  127.89   10.30
   7   8  -5  138.69   12.00
  -7   8   5  150.98   12.60
  -7   8   5  140.39   14.40
  -7   8   5  112.59   10.50
  -7   8   5  137.89   12.50
   7   8  -5  143.99   13.60
  -7   8   5  149.39   12.80
  -7   8   5  130.19   11.20
   7   8  -5  111.59    9.30
  -6  -8   5  162.08   12.90
   6  -8  -5  155.28   10.80
  -6  -8   5  159.08   11.70
  -6  -8   5  159.08   11.60
   6   8  -5  149.49   11.20
  -6   8   5  187.88   14.20
  -6   8   5  174.98   13.20
  -6   8   5  156.88   13.20
  -6   8   5  166.28   11.60
  -6   8   5  157.48   11.70
   6   8  -5  170.48   11.50
  -5  -8   5  220.58   13.00
  -5  -8   5  192.98   14.80
  -5  -8   5  206.28   11.30
  -5  -8   5  213.18   11.60
   5  -8  -5  191.88   11.00
  -5   8   5  201.88   12.70
  -5   8   5  217.18   11.70
  -5   8   5  217.08   14.10
  -5   8   5  213.18   11.70
   5   8  -5  197.78   11.30
  -5   8   5  204.58   12.60
   5   8  -5  190.18   10.10
   5   8  -5  222.18   11.00
  -4  -8   5  187.28   11.00
  -4  -8   5  185.28   11.80
  -4  -8   5  176.78   13.20
  -4  -8   5  180.68   12.20
  -4  -8   5  177.88   10.40
  -4   8   5  173.08   12.70
  -4   8   5  167.08   11.60
   4   8  -5  179.48   10.30
   4   8  -5  171.68   10.40
   4   8  -5  167.88    8.60
  -4   8   5  183.28   11.90
  -4   8   5  183.58   10.60
  -4   8   5  159.38   13.20
  -4   8   5  198.98   11.00
  -3  -8   5   87.79    8.90
   3  -8  -5   89.29   11.10
  -3  -8   5  100.09    9.10
  -3  -8   5   86.09    7.60
  -3  -8   5  128.79   10.80
  -3  -8   5   75.49    8.30
  -3   8   5   96.79    8.90
   3   8  -5  108.39    9.20
   3   8  -5  109.59   10.10
  -3   8   5  117.39   11.60
  -3   8   5  102.29    8.50
   3   8  -5  112.39    9.00
   3   8  -5  104.69    6.70
  -3   8   5   96.49    8.10
  -3   8   5  100.19    9.40
  -3   8   5   93.29    9.60
   2  -8  -5   50.49    8.00
  -2  -8   5   45.30    7.80
  -2  -8   5   60.79    6.70
  -2  -8   5   50.89    4.00
  -2  -8   5   49.90    7.00
  -2  -8   5   53.39    7.10
  -2  -8   5   53.49    6.30
  -2  -8   5   51.99    6.10
  -2   8   5   46.80    6.70
   2   8  -5   46.20    6.00
   2   8  -5   42.40    6.30
  -2   8   5   47.40    7.10
   2   8  -5   23.40    6.60
   2   8  -5   53.19    5.20
  -2   8   5   44.20    5.90
  -2   8   5   45.70    6.00
  -2   8   5   67.39    7.20
   2   8  -5   48.10    6.00
  -2   8   5   50.39    7.10
  -1  -8   5  143.29    7.30
  -1  -8   5  168.58   13.10
  -1  -8   5  161.58   10.50
  -1  -8   5  156.68    9.80
  -1  -8   5  162.88   10.60
  -1  -8   5  157.78   10.80
   1  -8  -5  139.69   11.60
   1  -8  -5  147.69   10.20
   1  -8  -5  159.78   10.30
  -1   8   5  135.59   11.70
   1   8  -5  156.08    5.80
   1   8  -5  135.59   10.30
  -1   8   5  156.08    9.90
   1   8  -5  159.88    9.60
  -1   8   5  163.18   10.40
  -1   8   5  158.78   10.10
  -1   8   5  144.59   11.30
   1   8  -5  125.19   11.40
  -1   8   5  161.48    9.80
  -1   8   5  135.09   11.10
   1   8  -5  156.78   10.50
   1   8  -5  158.28   11.30
   0  -8   5   77.19    7.30
   0  -8   5   82.69    7.20
   0  -8  -5   71.39    7.80
   0  -8   5   80.39    7.20
   0  -8  -5   66.29    6.90
   0  -8  -5   77.99    5.40
   0  -8  -5   83.79    7.30
   0  -8   5   64.09    6.40
   0  -8   5   82.69    8.00
   0  -8  -5   77.39    4.60
   0   8  -5   75.19    8.00
   0   8  -5   74.39    7.00
   0   8  -5   61.19    8.00
   0   8   5  101.59    8.90
   0   8   5   74.79    7.00
   0   8  -5   85.59    7.10
   0   8   5   81.19    8.30
   0   8  -5   74.09   10.90
   0   8   5   75.89    6.90
   0   8   5   80.59    8.10
   0   8   5   77.69    6.90
   0   8   5   87.89    7.20
   1  -8   5  243.38   12.10
   1  -8   5  221.38   10.00
   1  -8   5  230.68   12.50
  -1  -8  -5  220.98   11.90
  -1  -8  -5  201.58   11.70
  -1  -8  -5  204.38    8.40
   1  -8   5  226.08   12.00
   1  -8   5  210.58   11.60
  -1   8  -5  232.88   11.10
   1   8   5  211.58   11.20
   1   8   5  214.58   13.30
   1   8   5  216.98   11.20
   1   8   5  209.48   12.70
  -1   8  -5  230.28   13.20
   1   8   5  218.88   11.10
   1   8   5  212.68   10.80
   1   8   5  206.38   13.40
  -1   8  -5  231.28   11.10
  -2  -8  -5  197.28   12.20
  -2  -8  -5  191.48    9.40
   2  -8   5  155.48   10.50
  -2  -8  -5  172.28   12.10
   2  -8   5  178.38   11.70
   2  -8   5  195.78   12.30
  -2  -8  -5  165.18   10.40
   2  -8   5  164.98   11.70
   2  -8   5  162.68   11.40
  -2   8  -5  176.68   11.20
   2   8   5  163.28   13.40
   2   8   5  165.78   10.70
   2   8   5  152.88   10.50
   2   8   5  155.68   11.10
  -2   8  -5  164.18   12.70
   2   8   5  182.28   10.80
   2   8   5  178.18   12.40
   2   8   5  164.48   15.60
  -2   8  -5  157.88   11.10
   3  -8   5  112.89    9.80
   3  -8   5   88.69    8.50
  -3  -8  -5   98.99    9.10
   3  -8   5   68.09    7.90
  -3  -8  -5   97.69    8.90
  -3  -8  -5   99.89    9.70
   3  -8   5  118.09    9.80
  -3  -8  -5   92.09    7.50
   3   8   5   89.89    8.40
  -3   8  -5   75.69    7.70
   3   8   5   86.79    9.80
   3   8   5  102.69    9.80
   3   8   5   89.29    9.80
  -3   8  -5   87.99    8.60
   3   8   5   96.69    8.40
   3   8   5   90.29    7.60
   3   8   5   90.49    8.30
  -4  -8  -5  113.89    8.90
   4  -8   5  119.59   10.40
  -4  -8  -5  116.09   10.10
  -4  -8  -5  139.49   13.70
   4  -8   5  108.89   10.30
  -4  -8  -5  125.79   10.50
   4  -8   5  105.89   10.40
   4   8   5  108.69    8.40
   4   8   5  100.39   10.80
  -4   8  -5  125.69   12.40
   4   8   5  120.29    9.70
   4   8   5  120.29   11.80
   4   8   5  107.89    8.90
  -4   8  -5  131.69   12.30
   4   8   5   86.19   10.80
   4   8   5  115.49   10.90
  -5  -8  -5   -0.40    8.00
  -5  -8  -5    7.70    8.00
   5  -8   5   -9.50    7.90
   5  -8   5   -0.90   10.00
  -5  -8  -5    4.80    6.60
  -5   8  -5   -0.20    6.90
  -5   8  -5    0.70    7.70
   5   8   5   15.30   10.50
   5   8   5   -3.30    7.20
   5   8   5    5.20    7.90
   5   8   5    9.60    7.90
   5   8   5   10.80    7.50
  -6  -8  -5   33.10    7.70
  -6  -8  -5   17.40   10.20
   6  -8   5   30.80   10.20
  -6  -8  -5   13.40    9.20
  -6   8  -5   33.10    9.10
   6   8   5   29.80   10.20
   6   8   5   24.70    9.30
   6   8   5   26.70    8.60
   6   8   5   33.60    9.20
   7  -8   5   36.50   12.70
  -7  -8  -5   42.00   12.60
   7   8   5   36.00   12.20
   7   8   5   43.00   10.50
   7   8   5   31.20   11.10
   7   8   5   43.60   11.40
  -7   8  -5   65.09   11.60
  -8  -9   5   48.40   10.50
  -8  -9   5   42.40   11.10
  -8  -9   5   40.60   10.40
  -8   9   5   56.29   10.60
  -8   9   5   56.69   10.30
  -8   9   5   58.49   10.90
  -8   9   5   36.20    9.80
  -7  -9   5   45.40    9.70
  -7  -9   5   44.10    9.30
  -7  -9   5   47.00    9.30
  -7   9   5   71.79   11.40
  -7   9   5   48.60    9.10
   7   9  -5   57.99    9.80
  -7   9   5   49.60    9.70
  -7   9   5   68.99   10.20
  -6  -9   5   37.10    8.30
  -6  -9   5   32.40    8.60
  -6  -9   5   32.40    8.30
   6  -9  -5   44.80    8.90
  -6   9   5   49.99    9.80
   6   9  -5   41.40    7.90
  -6   9   5   54.49   11.90
  -6   9   5   43.30    8.10
  -6   9   5   28.50    8.20
   6   9  -5   37.60    8.60
  -5  -9   5   30.30    7.70
  -5  -9   5   31.60    7.00
  -5  -9   5   10.80    7.60
   5  -9  -5    9.30    8.40
  -5   9   5   29.80    9.90
   5   9  -5   19.50    7.10
  -5   9   5   36.70    8.90
  -5   9   5   25.00    7.20
   5   9  -5   15.60    7.00
  -5   9   5   16.80    7.20
   5   9  -5   15.30    7.10
  -4  -9   5    6.70    6.50
  -4  -9   5   -4.40    6.80
   4  -9  -5   -8.20    7.30
  -4  -9   5   -3.70    6.00
  -4  -9   5   -8.70    6.70
   4   9  -5   10.00    6.00
  -4   9   5   -1.90    6.50
  -4   9   5   -2.90    8.80
  -4   9   5    9.40    8.90
  -4   9   5    0.10    7.30
   4   9  -5    1.80    6.50
  -4   9   5   -9.50    6.00
   4   9  -5    0.40    5.20
  -3  -9   5  135.99   11.50
  -3  -9   5  108.99    9.50
   3  -9  -5  129.39   12.90
  -3  -9   5  142.49   11.80
  -3  -9   5  130.29   13.20
   3   9  -5  121.89    8.40
   3   9  -5  164.98   12.00
  -3   9   5  127.29   11.60
  -3   9   5  129.09   12.60
  -3   9   5  132.59   11.10
  -3   9   5  133.09   11.70
   3   9  -5  124.69   11.40
  -3   9   5  128.99   11.60
  -2  -9   5   95.39    8.70
  -2  -9   5   88.39    6.80
  -2  -9   5  101.39    9.60
  -2  -9   5  103.39    9.40
  -2  -9   5  109.99    9.60
   2   9  -5   97.39    7.20
   2   9  -5   93.79    8.40
   2   9  -5   97.69    8.60
  -2   9   5   84.79    9.60
  -2   9   5  105.99    9.30
  -2   9   5  115.69   10.60
  -2   9   5  107.09   11.30
  -2   9   5  120.79   11.60
  -1  -9   5    2.80    6.40
   1  -9  -5    0.40    0.40
   1  -9  -5    9.80    6.80
   1  -9  -5    4.80    5.80
  -1  -9   5   -4.70    6.20
  -1  -9   5   -3.10    4.60
  -1  -9   5    7.40    7.20
  -1  -9   5   10.50    6.40
  -1   9   5    4.00    6.10
  -1   9   5    5.90    6.10
   1   9  -5   -1.30    5.90
  -1   9   5   -3.10    7.10
  -1   9   5   11.80    8.00
  -1   9   5    0.80    6.00
   1   9  -5   -1.70    5.70
  -1   9   5   -4.10    7.60
   1   9  -5    0.10    3.40
   0  -9   5   32.00    7.30
   0  -9   5   40.30    7.10
   0  -9  -5   31.20    7.50
   0  -9  -5   42.70    4.50
   0  -9   5   26.90    8.10
   0  -9   5   36.40    6.00
   0  -9  -5   33.10    6.90
   0  -9  -5   42.30    3.70
   0  -9   5   41.50    7.50
   0   9   5   36.90    7.00
   0   9  -5   39.80    7.20
   0   9  -5   42.50    3.30
   0   9   5   45.30    9.60
   0   9   5   28.00    7.20
   0   9   5   43.20    7.30
   0   9   5   45.70    7.20
   0   9   5   34.40    7.70
   0   9   5   40.00    8.90
   0   9  -5   32.40    6.40
  -1  -9  -5   75.69    7.10
  -1  -9  -5   67.59    8.80
   1  -9   5   75.79    8.70
   1  -9   5   75.29    9.30
   1  -9   5   76.19    9.70
  -1  -9  -5   72.09    8.90
   1  -9   5   72.59    9.00
   1  -9   5   60.59    7.20
  -1  -9  -5   71.19    5.90
   1   9   5   66.29    8.00
   1   9   5   54.89    7.70
  -1   9  -5   64.19    7.60
   1   9   5   63.79   10.00
   1   9   5   47.10    8.30
   1   9   5   70.99    9.30
   1   9   5   47.60   10.10
   1   9   5   72.79    8.60
  -1   9  -5   69.69    8.10
  -2  -9  -5  136.69   13.90
   2  -9   5  138.59   13.50
   2  -9   5  134.39   12.50
   2  -9   5  131.39   10.80
   2  -9   5  101.49    9.40
  -2  -9  -5  140.79   13.40
   2  -9   5  111.69   10.20
   2   9   5   96.19    9.10
  -2   9  -5  126.99   12.90
   2   9   5  126.89   12.40
   2   9   5  110.29    9.40
   2   9   5  130.09   12.30
   2   9   5   93.39   11.30
  -2   9  -5  139.69   12.70
   2   9   5  138.69   11.90
   2   9   5  137.39   13.00
  -3  -9  -5   52.49    8.00
   3  -9   5   45.90    9.10
  -3  -9  -5   46.20    9.50
   3  -9   5   41.90   10.60
  -3  -9  -5   55.89    9.40
  -3   9  -5   56.79    8.80
   3   9   5   60.69   10.20
   3   9   5   54.89    9.00
   3   9   5   64.59    8.90
   3   9   5   61.09    9.10
   3   9   5   64.59   11.20
  -3   9  -5   51.09    9.30
   3   9   5   56.29    8.60
  -4  -9  -5   11.00    9.30
  -4  -9  -5   12.60    8.60
  -4  -9  -5   22.40   10.20
   4  -9   5   24.50    9.70
   4   9   5   11.30    8.20
   4   9   5   19.50    9.30
   4   9   5    6.50    7.80
   4   9   5    9.40    8.60
  -4   9  -5   19.10    8.80
  -5  -9  -5   85.49   14.80
   5  -9   5   70.59   11.80
  -5  -9  -5  100.69   11.90
  -5  -9  -5   86.49   12.10
  -5   9  -5   71.19   11.00
   5   9   5   70.89   10.50
   5   9   5   75.19   11.00
   5   9   5   68.89   10.20
   5   9   5  102.89   13.50
  -6  -9  -5   27.20   12.60
   6  -9   5    6.30   12.10
   6   9   5    4.60   10.20
   6   9   5   34.50   12.40
  -6   9  -5   38.40   11.80
  -6 -10   5   20.50   10.40
  -6 -10   5   22.60   10.60
  -6 -10   5   20.70    9.00
   6  10  -5   37.10   11.90
  -6  10   5   32.50   11.40
  -6  10   5   18.40   10.00
  -6  10   5   18.80    9.40
  -6  10   5    9.00   10.10
  -5 -10   5   26.20   10.50
  -5 -10   5   18.40    9.40
  -5 -10   5   11.60    9.10
  -5 -10   5   21.20    9.50
  -5  10   5   12.00    9.60
  -5  10   5   10.60    8.30
   5  10  -5   19.80    9.20
  -5  10   5   30.90    9.50
  -4 -10   5   30.50    9.70
  -4 -10   5   11.30    8.20
  -4 -10   5   13.20    9.50
  -4 -10   5   33.70    8.80
  -4  10   5   40.60    9.20
  -4  10   5   25.90    9.10
  -4  10   5   25.70    9.20
   4  10  -5   24.70    8.60
  -3 -10   5   11.90    8.80
  -3 -10   5    4.60    9.00
  -3 -10   5    1.70    8.60
  -3  10   5   -9.70    7.20
  -3  10   5   -5.90    8.50
  -3  10   5    3.00    8.10
   3  10  -5    6.40    7.90
  -2 -10   5   -0.20   10.10
  -2 -10   5   20.40    8.90
  -2 -10   5    7.80    8.90
  -2  10   5   16.50    8.90
  -2  10   5   20.30    7.60
  -2  10   5   17.70    8.20
   2  10  -5    7.00    8.30
  -1 -10   5   13.60    9.00
   1 -10  -5   -2.70    8.00
  -1 -10   5   -6.90    8.40
  -1 -10   5   14.70   10.40
   1  10  -5    4.40    7.80
  -1  10   5   13.00    7.80
  -1  10   5    0.90    7.70
  -1  10   5    0.60    7.70
   0 -10   5   90.39   10.40
   0 -10  -5   71.59   10.70
   0 -10   5   77.49   12.60
   0 -10  -5   93.79   10.60
   0 -10   5   79.39   10.70
   0  10  -5  108.39   10.10
   0  10   5   86.29   10.20
   0  10   5   95.89   10.20
   0  10   5   94.99   10.30
   1 -10   5   66.59   12.60
   1 -10   5   66.59   11.20
  -1 -10  -5   49.10   10.40
   1 -10   5   54.19    9.90
  -1 -10  -5   73.89   10.30
   1  10   5   65.39   10.10
   1  10   5   72.19    9.70
  -1  10  -5   73.19   11.40
   1  10   5   59.39    9.30
  -2 -10  -5   12.80    9.20
  -2 -10  -5    9.50   10.60
   2 -10   5   39.40   10.20
   2 -10   5   19.30    9.30
   2  10   5   18.60    9.50
   2  10   5   20.20    9.20
  -2  10  -5   23.80    9.30
   2  10   5   18.80   10.90
   2  10   5    9.90    9.10
   3 -10   5   12.40   10.60
  -3 -10  -5   17.30   10.10
   3  10   5   11.70   10.20
   3  10   5    7.10    9.10
   3  10   5   20.60   11.20
   3  10   5    7.00    9.30
  -3  10  -5   10.60    9.80
  -4 -10  -5  -17.50    9.70
   4 -10   5  -19.50   11.20
  -4 -10  -5   -3.50   11.60
   4  10   5  -11.40   10.40
  -4  10  -5   10.70   11.40
   4  10   5    6.50   10.20
   4  10   5    0.60   11.40
  -3 -11   5  -14.90   10.80
  -3  11   5   -5.90   11.20
  -3  11   5    9.70   11.10
   3  11  -5   23.80   11.90
  -2 -11   5   54.39   12.30
  -2 -11   5   62.09   13.30
  -2  11   5   63.39   12.30
   2  11  -5   66.69   12.20
  -2  11   5   73.69   11.80
  -2  11   5   73.49   12.70
  -1 -11   5   34.80   11.70
  -1 -11   5   63.19   12.90
  -1  11   5   42.80   11.30
  -1  11   5   50.79   11.60
  -1  11   5   60.59   11.90
   1  11  -5   56.99   11.80
   0 -11   5    0.00   12.00
   0 -11  -5    2.70   10.50
   0 -11   5   10.90   11.30
   0  11   5    1.80   10.90
   0  11  -5    3.70   10.90
   0  11   5   17.10   11.00
   0  11   5   -8.30   12.70
   1 -11   5   -4.90   11.40
  -1 -11  -5  -11.20   11.40
   1 -11   5    0.40   14.20
  -1  11  -5  -27.80   11.20
   1  11   5   12.20   10.80
   1  11   5   10.50   11.30
 -13   0   6  309.37   17.00
 -13   0   6  326.37   16.90
 -13   0   6  365.26   19.80
 -12   0   6   46.40    8.60
  12   0  -6   30.70    8.10
 -12   0   6   41.80    7.50
 -12   0   6   47.00    7.40
  11   0  -6    3.10    5.60
 -11   0   6   -4.30    7.90
 -11   0   6    2.40    4.90
 -11   0   6    8.70    6.10
 -11   0   6    3.80    5.10
  10   0  -6  375.76   11.60
 -10   0   6  349.57   11.70
 -10   0   6  369.26   13.10
  10   0  -6  361.26   11.90
 -10   0   6  370.76   11.20
 -10   0   6  367.46   15.00
 -10   0   6  352.86   11.70
  -9   0   6    1.30    4.30
   9   0  -6    3.80    3.40
   9   0  -6    7.60    3.80
  -9   0   6    6.90    3.40
  -9   0   6    8.40    5.30
  -9   0   6    2.00    3.30
   9   0  -6   -1.30    3.60
  -9   0   6    9.00    4.90
  -8   0   6   52.39    5.40
  -8   0   6   58.39    5.00
   8   0  -6   61.79    5.40
   8   0  -6   65.19    4.80
   8   0  -6   53.39    4.60
  -8   0   6   53.09    5.20
  -8   0   6   68.89    5.60
  -8   0   6   57.99    5.00
   7   0  -6  352.66    8.40
  -7   0   6  344.97    9.00
   7   0  -6  360.16    8.60
  -7   0   6  363.96    9.10
  -7   0   6  357.66    9.40
  -7   0   6  358.06   10.40
   7   0  -6  361.46    9.50
  -6   0   6    1.50    1.80
  -6   0   6    3.70    2.70
   6   0  -6    0.90    1.60
  -6   0   6    1.90    1.80
   6   0  -6    1.50    1.40
  -6   0   6    3.70    2.40
   6   0  -6    1.50    2.30
  -5   0   6 2558.64   47.70
  -5   0   6 2623.74   46.60
  -5   0   6 2502.75   46.40
  -5   0   6 2667.13   48.50
  -5   0   6 2605.74   46.50
   5   0  -6 2582.44   46.10
  -4   0   6   72.09    3.90
  -4   0   6   73.19    4.10
  -4   0   6   75.69    3.30
  -4   0   6   71.09    2.30
  -3   0   6 1167.78   22.80
  -3   0   6 1155.68   22.70
  -3   0   6 1180.78   22.80
  -3   0   6 1168.18   22.30
  -2   0   6   71.09    3.80
  -2   0   6   76.39    3.60
  -2   0   6   75.19    3.70
  -2   0   6   75.69    3.90
  -1   0   6  485.65   10.00
  -1   0   6  478.55   10.70
  -1   0   6  490.95    9.40
  -1   0   6  482.65    9.30
  -1   0   6  479.85   10.90
   0   0   6 1502.65   27.10
   0   0   6 1401.46   26.70
   0   0   6 1453.95   28.40
   0   0   6 1471.55   27.10
   0   0  -6 1487.05   26.80
   0   0  -6 1487.95   28.30
   0   0   6 1471.95   28.20
   1   0   6  454.95   10.00
   1   0   6  451.55   10.90
  -1   0  -6  455.85    9.90
  -1   0  -6  455.45   10.90
   1   0   6  449.66   10.10
   1   0   6  463.05   10.10
   1   0   6  441.86   10.90
  -1   0  -6  452.15    9.80
  -2   0  -6   35.00    3.50
   2   0   6   31.70    3.40
   2   0   6   31.00    3.10
   2   0   6   33.90    3.10
  -2   0  -6   38.30    3.00
   2   0   6   47.60    4.00
  -2   0  -6   34.40    3.00
   2   0   6   36.10    3.50
  -3   0  -6  838.62   17.90
   3   0   6  840.02   18.90
   3   0   6  831.12   17.90
   3   0   6  827.32   18.40
   3   0   6  869.91   18.10
  -3   0  -6  847.92   18.60
   3   0   6  821.02   17.20
  -4   0  -6  418.06   12.00
   4   0   6  421.76   11.60
   4   0   6  434.16   11.40
   4   0   6  406.56   12.30
   4   0   6  416.46   10.50
   4   0   6  416.36   11.50
  -4   0  -6  413.46   11.30
  -4   0  -6  420.96   11.30
   5   0   6 1858.71   36.00
  -5   0  -6 1869.91   37.30
   5   0   6 1892.81   37.40
  -5   0  -6 1878.81   38.10
  -5   0  -6 1860.71   37.20
   5   0   6 1906.41   37.60
   5   0   6 1844.42   38.30
   5   0   6 1876.91   37.50
  -6   0  -6    0.10    4.20
  -6   0  -6    1.70    2.10
   6   0   6   -0.50    4.80
  -6   0  -6   -1.50    3.80
   6   0   6   -1.30    4.70
   6   0   6   -0.90    4.50
  -6   0  -6    0.40    1.90
   6   0   6   -1.10    4.00
   6   0   6    4.30    3.70
   7   0   6   52.09    5.90
   7   0   6   45.00    6.30
   7   0   6   59.89    7.40
  -7   0  -6   56.79    6.90
   7   0   6   47.80    7.30
  -7   0  -6   59.29    4.20
  -7   0  -6   57.69   11.20
   7   0   6   61.79    6.40
  -7   0  -6   62.69    6.70
  -7   0  -6   55.89    5.00
  -8   0  -6  295.47   14.70
   8   0   6  272.37   13.30
   8   0   6  310.47   16.30
   8   0   6  297.27   15.30
  -8   0  -6  292.77    8.30
   8   0   6  289.97   13.00
   8   0   6  269.27   16.50
  -8   0  -6  322.57   14.00
  -8   0  -6  283.97    9.40
  -9   0  -6   56.69    9.30
   9   0   6   79.39   11.40
   9   0   6   55.99    8.40
  -9   0  -6   81.19   10.30
 -10   0  -6   46.20   11.00
  10   0   6   28.40    9.90
 -13  -1   6    0.70    9.20
 -13  -1   6    5.90   10.10
 -13  -1   6   10.90    8.50
 -13  -1   6   -2.60    8.10
 -13   1   6   17.40    8.70
 -13   1   6   17.30    9.60
 -13   1   6   14.40    8.70
  12  -1  -6   44.70    9.00
 -12  -1   6   53.89    9.60
 -12  -1   6   55.59    7.60
 -12  -1   6   61.79    8.00
 -12  -1   6   54.69    9.10
 -12   1   6   56.99    7.70
 -12   1   6   52.89    7.50
 -12   1   6   64.29    9.20
 -11  -1   6   60.99    6.70
 -11  -1   6   59.39    6.60
 -11  -1   6   68.69    8.10
 -11  -1   6   79.99    8.90
 -11   1   6   71.49    9.10
  11   1  -6   63.29    5.90
 -11   1   6   58.79    6.70
 -11   1   6   65.69    7.30
 -11   1   6   81.59    7.00
 -11   1   6   63.49    6.50
  10  -1  -6  134.19    8.70
 -10  -1   6  140.69   10.90
 -10  -1   6  137.39    8.50
 -10  -1   6  139.59   10.10
  10  -1  -6  133.49    9.20
 -10  -1   6  131.89   13.30
 -10  -1   6  142.39    8.50
  10   1  -6  128.99    7.50
 -10   1   6  126.89   10.70
 -10   1   6  133.39    8.30
 -10   1   6  143.99    8.50
 -10   1   6  135.59    8.30
  10   1  -6  137.09    8.70
 -10   1   6  134.49    9.80
  -9  -1   6   85.59    6.70
   9  -1  -6   88.59    6.50
   9  -1  -6   92.39    7.20
  -9  -1   6   79.19    6.30
   9  -1  -6   71.69    6.10
  -9  -1   6   65.99    6.10
  -9  -1   6   79.99    7.20
   9   1  -6   80.79    5.70
  -9   1   6   72.49    6.80
  -9   1   6   78.49    6.50
  -9   1   6   82.29    8.40
  -9   1   6   63.19    6.50
   9   1  -6   81.69    6.30
   9   1  -6   88.69    6.60
  -9   1   6   86.89    6.50
   9   1  -6   81.39    8.60
  -8  -1   6  402.66   11.70
   8  -1  -6  411.26   11.50
   8  -1  -6  400.86   10.30
   8  -1  -6  390.46   10.00
  -8  -1   6  411.66   10.70
  -8  -1   6  393.76    9.70
  -8  -1   6  403.56   10.50
   8   1  -6  389.76    9.90
  -8   1   6  388.96   10.60
  -8   1   6  396.76   12.00
   8   1  -6  412.36   10.20
  -8   1   6  401.16   10.60
   8   1  -6  393.36    9.90
   8   1  -6  417.36   12.50
  -8   1   6  396.96   12.00
  -8   1   6  412.86   11.30
  -7  -1   6  168.78    6.00
  -7  -1   6  174.28    6.10
   7  -1  -6  174.28    5.60
   7  -1  -6  172.38    5.80
  -7  -1   6  172.38    5.80
  -7  -1   6  170.18    7.40
   7   1  -6  172.58    5.40
  -7   1   6  175.58    6.10
   7   1  -6  165.88    5.50
  -7   1   6  173.18    6.10
   7   1  -6  180.08    5.80
  -7   1   6  169.78    6.90
  -7   1   6  173.68    7.60
  -7   1   6  168.38    7.40
  -6  -1   6  849.02   17.00
  -6  -1   6  865.01   19.20
   6  -1  -6  881.01   18.40
  -6  -1   6  860.11   17.10
   6  -1  -6  863.31   16.90
  -6  -1   6  852.81   18.40
   6  -1  -6  866.91   16.60
  -6  -1   6  862.91   16.60
  -6  -1   6  865.51   17.00
   6   1  -6  848.12   16.60
  -6   1   6  849.91   18.20
  -6   1   6  852.51   17.20
  -6   1   6  851.11   18.80
   6   1  -6  866.61   16.30
  -6   1   6  853.31   17.10
   6   1  -6  863.11   16.30
   5  -1  -6  505.45    9.60
  -5  -1   6  491.05   11.70
  -5  -1   6  502.55   10.70
  -5  -1   6  506.85   10.10
   5  -1  -6  511.65   11.80
   5  -1  -6  498.55   10.00
  -5  -1   6  495.45   10.20
  -5  -1   6  478.55   12.30
  -5   1   6  486.35   11.70
   5   1  -6  483.45    9.60
   5   1  -6  519.35    9.70
  -5   1   6  480.85   12.00
  -5   1   6  498.45   10.20
  -5   1   6  505.35   10.00
  -5   1   6  491.25   10.30
  -4  -1   6  114.89    5.30
  -4  -1   6  118.99    4.30
   4  -1  -6  108.19    2.90
  -4  -1   6  111.89    3.10
  -4  -1   6  122.59    4.80
  -4  -1   6  113.49    2.80
  -4   1   6  110.49    3.40
  -4   1   6  113.29    3.50
  -4   1   6  114.39    5.20
  -4   1   6  118.89    3.90
  -4   1   6  120.99    5.10
  -4   1   6  110.49    3.20
  -4   1   6  114.19    3.40
  -3  -1   6 1206.58   23.00
  -3  -1   6 1199.48   23.60
  -3  -1   6 1216.58   23.90
  -3  -1   6 1209.78   23.10
  -3   1   6 1185.18   21.80
  -3   1   6 1182.28   21.70
  -3   1   6 1243.78   23.90
  -3   1   6 1231.68   23.00
  -3   1   6 1206.98   22.00
  -3   1   6 1163.78   21.70
  -3   1   6 1203.68   22.80
  -2  -1   6 1455.85   28.30
  -2  -1   6 1448.16   27.30
  -2  -1   6 1446.16   27.70
  -2   1   6 1466.45   28.40
  -2   1   6 1447.46   26.50
  -2   1   6 1492.45   27.30
  -2   1   6 1439.56   26.30
  -2   1   6 1497.05   26.30
  -2   1   6 1474.85   26.50
  -2   1   6 1467.35   27.80
  -1  -1   6  508.75    9.80
   1  -1  -6  512.65    9.90
   1  -1  -6  499.35    9.40
  -1  -1   6  495.05   10.60
  -1  -1   6  506.85   11.70
  -1  -1   6  507.15    9.70
  -1   1   6  490.35   10.60
  -1   1   6  518.15   10.20
  -1   1   6  475.05    9.90
  -1   1   6  499.75   10.00
   1   1  -6  485.25    9.30
   1   1  -6  524.45    9.40
  -1   1   6  503.25   11.40
   0  -1   6  238.78    5.70
   0  -1   6  223.78    6.90
   0  -1  -6  241.68    5.70
   0  -1  -6  232.38    6.30
   0  -1   6  238.08    7.20
   0  -1   6  233.28    5.70
   0  -1  -6  228.48    6.40
   0  -1   6  238.78    5.80
   0   1   6  233.98    4.80
   0   1  -6  238.78    5.40
   0   1   6  232.38    5.90
   0   1   6  237.68    6.50
   0   1   6  207.88    6.40
   0   1   6  223.98    7.00
   0   1  -6  229.28    7.20
   1  -1   6    9.50    2.60
   1  -1   6    8.90    1.60
  -1  -1  -6    8.90    2.00
   1  -1   6    7.30    2.30
   1  -1   6   10.00    2.00
  -1  -1  -6   10.50    2.10
   1  -1   6    8.00    2.00
   1  -1   6    9.70    1.70
   1   1   6    7.80    2.50
   1   1   6    8.80    2.00
   1   1   6    9.00    2.40
  -1   1  -6   11.30    2.00
  -1   1  -6   13.30    2.00
  -1   1  -6   10.70    2.60
   1   1   6   12.50    2.20
  -2  -1  -6 1708.43   32.80
  -2  -1  -6 1709.93   32.40
   2  -1   6 1691.33   33.40
  -2  -1  -6 1722.13   32.40
   2  -1   6 1681.23   33.20
   2  -1   6 1675.03   31.30
   2  -1   6 1741.43   32.40
   2  -1   6 1716.33   32.30
   2   1   6 1682.33   33.20
   2   1   6 1720.43   32.40
  -2   1  -6 1711.93   33.40
   2   1   6 1682.83   32.40
  -2   1  -6 1683.53   30.70
  -2   1  -6 1693.73   32.10
   2   1   6 1661.33   32.90
   2   1   6 1703.33   32.50
  -2   1  -6 1683.83   32.10
  -3  -1  -6  234.58    8.70
   3  -1   6  255.17    8.10
   3  -1   6  245.28    6.70
  -3  -1  -6  264.57    8.10
  -3  -1  -6  258.07    8.50
   3  -1   6  254.17    9.10
   3  -1   6  259.17    8.40
   3  -1   6  254.07    7.90
  -3   1  -6  265.47    7.90
   3   1   6  263.57    8.90
  -3   1  -6  243.48    8.80
   3   1   6  250.77    8.40
  -3   1  -6  250.57    5.70
   3   1   6  246.08    7.80
   3   1   6  255.17    8.20
   3   1   6  256.87    8.10
  -4  -1  -6   56.99    5.70
  -4  -1  -6   74.79    5.60
   4  -1   6   59.29    5.70
   4  -1   6   61.49    5.80
  -4  -1  -6   61.59    5.60
   4  -1   6   64.69    6.60
   4  -1   6   55.59    5.40
   4  -1   6   67.39    4.20
   4   1   6   62.19    6.40
   4   1   6   63.59    5.90
  -4   1  -6   59.09    5.70
  -4   1  -6   58.59    5.50
  -4   1  -6   63.99    3.30
  -4   1  -6   55.29    5.10
   4   1   6   69.49    5.90
   4   1   6   59.29    5.30
   4   1   6   59.09    5.60
   5  -1   6  134.79    8.00
  -5  -1  -6  135.19    8.50
   5  -1   6  130.69    8.20
  -5  -1  -6  132.29    7.80
  -5  -1  -6  133.79    7.70
   5  -1   6  123.69    7.50
   5  -1   6  130.59    6.10
   5  -1   6  134.09    8.70
   5   1   6  145.59    8.20
  -5   1  -6  137.89    4.90
   5   1   6  146.79    7.30
  -5   1  -6  126.69    8.50
   5   1   6  147.19    8.80
  -5   1  -6  133.79    7.80
   5   1   6  132.89    7.60
   5   1   6  121.29    7.90
  -5   1  -6  118.49    7.50
   6  -1   6  113.69    8.30
  -6  -1  -6  116.39    8.60
  -6  -1  -6  134.89    8.80
   6  -1   6  122.69    6.80
   6  -1   6  129.69    9.40
   6  -1   6  131.29    9.10
  -6   1  -6  129.09    8.30
   6   1   6  113.99    9.00
   6   1   6  100.09    9.60
   6   1   6  117.09    9.60
  -6   1  -6  119.99    8.60
   6   1   6  118.49    8.00
  -6   1  -6  110.99   10.30
  -6   1  -6  119.69    5.60
   6   1   6  119.99    9.20
  -7  -1  -6  181.78   10.80
   7  -1   6  177.68   11.70
   7  -1   6  193.28   12.00
   7  -1   6  202.28   12.50
   7  -1   6  169.18    9.10
  -7  -1  -6  177.68   12.80
   7  -1   6  171.38   10.00
  -7  -1  -6  186.68   11.00
   7   1   6  172.68   11.70
   7   1   6  182.58   12.20
  -7   1  -6  192.78   10.90
   7   1   6  185.48   12.60
  -7   1  -6  188.78   10.70
   7   1   6  180.88   10.50
   7   1   6  174.68   10.20
  -7   1  -6  171.58    7.20
  -8  -1  -6   16.90    3.60
   8  -1   6   17.90    7.90
  -8  -1  -6   11.30    2.80
  -8  -1  -6    1.80    6.80
  -8  -1  -6   11.40    6.40
   8  -1   6   15.10    8.10
   8  -1   6   15.60    7.60
   8  -1   6   19.30    6.20
   8  -1   6   18.20    5.70
   8   1   6   14.50    8.60
   8   1   6   12.70    6.10
   8   1   6   20.40    7.70
  -8   1  -6   19.70    6.80
   8   1   6   15.80    7.10
  -8   1  -6   14.00    4.60
  -8   1  -6   17.70    6.80
   8   1   6   18.00    7.10
   9  -1   6   -3.70    9.50
  -9  -1  -6    5.60    9.00
  -9  -1  -6   13.10    7.90
   9  -1   6    9.00    8.10
   9  -1   6    1.60    7.10
  -9   1  -6   11.80    8.30
  -9   1  -6    7.70    7.70
   9   1   6   11.60    7.50
 -10  -1  -6  105.19   12.10
  10  -1   6   93.19   14.50
  10  -1   6   90.79   10.70
 -10   1  -6   81.19   10.90
  10   1   6   97.49   11.50
 -13  -2   6   48.00   12.00
 -13  -2   6   61.79   11.40
 -13  -2   6   61.09    9.90
 -13  -2   6   77.49   10.90
 -13   2   6   63.39    9.80
 -13   2   6   40.40    9.80
 -13   2   6   69.19   12.50
 -12  -2   6   83.99    9.60
 -12  -2   6   77.69    8.30
 -12  -2   6   77.29   10.10
 -12  -2   6   59.69    8.00
 -12   2   6   75.29    9.30
 -12   2   6   55.99    8.00
 -12   2   6   80.39    8.60
 -11  -2   6   26.80    5.70
 -11  -2   6   27.60    5.90
  11  -2  -6   24.30    7.60
 -11  -2   6   18.00    6.90
 -11  -2   6   21.50    7.10
  11   2  -6   21.30    4.80
 -11   2   6   13.60    6.60
 -11   2   6   29.80    6.40
 -11   2   6   24.70    5.90
 -11   2   6   34.80    6.00
 -11   2   6   19.10    8.10
 -10  -2   6   72.39    7.60
 -10  -2   6   83.19    7.30
 -10  -2   6   75.99    7.90
 -10  -2   6   72.19    9.50
 -10  -2   6   83.29    6.50
  10  -2  -6   72.59    6.50
 -10   2   6   89.09    7.90
  10   2  -6   75.49    6.30
 -10   2   6   72.39    6.30
 -10   2   6   88.19    7.40
 -10   2   6   76.89    6.80
 -10   2   6   72.99    7.50
  10   2  -6   77.99    5.70
   9  -2  -6   49.30    5.80
  -9  -2   6   39.10    5.80
  -9  -2   6   45.70    6.20
  -9  -2   6   41.10    4.60
   9  -2  -6   55.39    5.00
  -9  -2   6   48.40    4.70
   9   2  -6   41.20    4.50
  -9   2   6   50.59    4.90
  -9   2   6   62.39    6.10
  -9   2   6   47.10    5.90
  -9   2   6   46.40    4.90
   9   2  -6   46.70    3.70
   9   2  -6   35.20    6.30
  -9   2   6   47.30    5.70
  -8  -2   6   91.29    7.80
  -8  -2   6   66.09    6.70
  -8  -2   6   79.29    5.50
  -8  -2   6   77.29    5.70
  -8  -2   6   70.79    3.50
   8  -2  -6   80.69    6.70
   8  -2  -6   79.19    5.50
   8   2  -6   73.59    5.20
  -8   2   6   69.09    5.60
  -8   2   6   76.59    7.00
  -8   2   6   77.89    5.80
  -8   2   6   72.19    6.70
   8   2  -6   64.89    5.70
  -7  -2   6  440.76   10.70
   7  -2  -6  437.66   10.50
  -7  -2   6  433.96    9.80
  -7  -2   6  448.56   11.90
   7  -2  -6  441.76   10.40
  -7  -2   6  422.06   12.70
  -7  -2   6  453.55   10.90
   7  -2  -6  443.06   12.00
   7   2  -6  437.56   10.00
   7   2  -6  439.56   12.10
  -7   2   6  434.56   11.10
  -7   2   6  422.96   11.80
  -7   2   6  432.16   12.30
  -7   2   6  436.66   10.80
  -7   2   6  426.56   10.70
   7   2  -6  432.46   10.00
   7   2  -6  442.16   10.20
  -6  -2   6  629.04   13.50
  -6  -2   6  640.24   13.40
   6  -2  -6  637.64   13.10
   6  -2  -6  638.84   13.40
  -6  -2   6  635.94   12.40
  -6  -2   6  620.14   13.40
  -6  -2   6  622.24   15.40
  -6  -2   6  628.94   14.50
   6  -2  -6  640.74   15.00
   6   2  -6  627.64   12.80
  -6   2   6  634.14   13.80
  -6   2   6  627.54   13.60
  -6   2   6  638.04   15.20
  -6   2   6  640.14   13.50
  -6   2   6  624.34   14.80
   6   2  -6  646.64   14.80
   6   2  -6  629.74   12.90
   6   2  -6  626.94   12.70
  -5  -2   6 1004.00   19.40
  -5  -2   6 1017.00   20.50
  -5  -2   6 1004.60   19.50
  -5  -2   6 1006.90   21.40
   5  -2  -6  999.50   19.20
   5  -2  -6 1029.70   19.50
   5  -2  -6  945.91   22.70
  -5  -2   6 1011.10   18.90
  -5   2   6 1018.40   19.60
  -5   2   6 1004.00   19.70
   5   2  -6 1025.00   20.70
  -5   2   6 1018.10   19.20
  -5   2   6  995.10   19.60
  -5   2   6 1012.20   21.40
   5   2  -6 1012.40   18.90
   5   2  -6 1019.90   18.60
  -5   2   6 1027.70   19.80
  -5   2   6 1031.90   21.20
  -5   2   6  983.50   19.70
   5   2  -6 1017.30   19.00
   4  -2  -6  498.95    9.80
  -4  -2   6  480.85   10.90
  -4  -2   6  498.75   10.00
  -4  -2   6  490.65   10.00
  -4  -2   6  479.05    9.80
   4  -2  -6  477.75   10.00
  -4  -2   6  492.35   11.90
  -4   2   6  490.15   11.90
   4   2  -6  496.25    9.40
  -4   2   6  486.55   10.20
   4   2  -6  475.25    9.30
  -4   2   6  493.25   10.60
  -4   2   6  485.95   10.20
  -4   2   6  494.15   10.50
  -4   2   6  477.15   10.30
  -3  -2   6  400.86   10.10
   3  -2  -6  412.56    9.30
  -3  -2   6  405.56    9.10
  -3  -2   6  425.76    8.90
  -3  -2   6  408.26    8.30
  -3   2   6  420.26    8.90
  -3   2   6  409.06   10.40
  -3   2   6  415.56    9.50
  -3   2   6  413.76    9.00
  -3   2   6  405.26    8.60
  -3   2   6  403.86    8.70
  -2  -2   6  807.32   14.90
  -2  -2   6  802.22   16.40
  -2  -2   6  782.72   15.20
  -2  -2   6  821.02   14.80
  -2  -2   6  798.52   17.10
   2  -2  -6  812.02   16.20
  -2   2   6  772.42   16.90
   2   2  -6  773.32   14.40
  -2   2   6  780.62   15.40
  -2   2   6  785.72   15.30
   2   2  -6  770.92   14.40
  -2   2   6  766.72   15.20
  -2   2   6  788.62   16.30
  -2   2   6  788.42   15.50
  -1  -2   6  261.17    6.10
  -1  -2   6  261.27    6.00
  -1  -2   6  255.57    5.70
  -1  -2   6  258.07    7.80
  -1  -2   6  261.97    7.00
   1  -2  -6  259.37    6.10
   1  -2  -6  263.37    7.40
   1  -2  -6  277.37    7.40
   1   2  -6  259.47    5.80
  -1   2   6  255.47    6.20
  -1   2   6  258.37    6.40
   1   2  -6  258.47    5.50
  -1   2   6  262.77    6.40
   1   2  -6  253.27    5.70
  -1   2   6  264.97    7.40
  -1   2   6  266.77    7.90
   1   2  -6  261.87    7.00
   1   2  -6  258.77    5.50
  -1   2   6  255.87    6.40
   0  -2   6  200.28    4.30
   0  -2   6  203.38    5.90
   0  -2  -6  197.28    5.50
   0  -2   6  196.38    4.30
   0  -2  -6  200.88    6.80
   0  -2  -6  201.38    5.60
   0  -2  -6  195.58    5.70
   0  -2   6  200.38    5.40
   0  -2   6  210.08    7.00
   0  -2   6  156.28    6.70
   0   2  -6  202.18    5.80
   0   2   6  205.18    5.90
   0   2  -6  197.38    5.20
   0   2   6  197.08    6.60
   0   2   6  189.18    5.60
   0   2   6  196.68    4.60
   0   2  -6  200.18    5.10
   0   2   6  188.98    5.70
   0   2   6  200.68    5.80
   0   2  -6  192.58    5.30
   0   2  -6  202.18    5.30
  -1  -2  -6  591.04   12.80
   1  -2   6  600.04   12.80
   1  -2   6  599.44   11.10
   1  -2   6  592.64   12.70
   1  -2   6  595.34   12.50
   1  -2   6  581.84   14.10
  -1  -2  -6  600.54   12.90
  -1  -2  -6  587.64   13.40
  -1  -2  -6  593.94   13.70
  -1   2  -6  597.64   12.60
  -1   2  -6  595.24   12.30
  -1   2  -6  596.54   14.20
   1   2   6  585.34   13.10
   1   2   6  588.14   13.00
   1   2   6  597.44   13.80
  -1   2  -6  601.74   12.50
   1   2   6  595.64   13.10
   2  -2   6  400.86    9.80
  -2  -2  -6  370.66   11.50
  -2  -2  -6  398.76   10.00
   2  -2   6  391.76    9.80
   2  -2   6  383.36   11.00
  -2  -2  -6  402.56   10.70
   2  -2   6  389.16    7.90
  -2  -2  -6  403.66   10.10
  -2   2  -6  393.56    9.60
  -2   2  -6  396.06    8.90
   2   2   6  389.16   10.10
  -2   2  -6  392.76   11.00
   2   2   6  391.96   10.30
   2   2   6  386.36   10.10
   2   2   6  394.26   10.70
  -2   2  -6  388.56    9.70
  -3  -2  -6  118.19    6.50
   3  -2   6  126.09    4.00
   3  -2   6  118.99    6.00
   3  -2   6  128.99    7.30
  -3  -2  -6  115.89    6.00
  -3  -2  -6  131.69    6.20
   3  -2   6  125.59    6.10
   3  -2   6  132.29    6.30
  -3   2  -6  120.09    7.00
   3   2   6  118.39    6.80
   3   2   6  125.39    6.30
   3   2   6  121.49    6.40
   3   2   6  130.09    6.30
  -3   2  -6  116.79    5.90
   3   2   6  124.29    6.60
  -3   2  -6  124.09    4.70
  -4  -2  -6   56.29    5.10
   4  -2   6   51.99    4.70
   4  -2   6   54.09    3.70
  -4  -2  -6   60.39    6.00
   4  -2   6   46.90    4.30
   4  -2   6   59.49    5.80
   4  -2   6   53.19    4.70
  -4  -2  -6   59.89    5.90
  -4   2  -6   48.40    4.40
   4   2   6   47.10    4.70
  -4   2  -6   54.69    5.50
   4   2   6   54.99    4.80
  -4   2  -6   48.90    4.60
   4   2   6   61.49    6.30
   4   2   6   44.10    4.60
   4   2   6   59.09    5.40
  -4   2  -6   49.10    4.20
  -5  -2  -6  326.87   11.10
   5  -2   6  320.57   10.90
   5  -2   6  289.97   12.10
  -5  -2  -6  303.87   11.20
  -5  -2  -6  316.67   11.00
   5  -2   6  306.27   11.70
   5  -2   6  320.17   12.00
   5  -2   6  311.27   10.60
   5  -2   6  306.37    8.30
   5   2   6  313.67   10.70
   5   2   6  328.77   11.80
   5   2   6  319.67   11.10
   5   2   6  307.67   11.00
  -5   2  -6  338.17   10.80
  -5   2  -6  301.97    8.40
  -5   2  -6  322.77   10.90
   5   2   6  317.87   11.40
   6  -2   6  191.58    7.50
   6  -2   6  194.68   10.30
  -6  -2  -6  185.68   10.10
   6  -2   6  195.88   11.10
   6  -2   6  187.38   11.40
   6  -2   6  200.38   10.50
   6  -2   6  177.28   14.50
  -6  -2  -6  196.68   10.00
  -6   2  -6  185.28   11.60
   6   2   6  182.18    9.60
  -6   2  -6  184.68    9.70
   6   2   6  196.08    9.80
   6   2   6  198.28   10.80
  -6   2  -6  198.68    7.50
   6   2   6  194.78   10.50
   6   2   6  196.88   10.90
  -6   2  -6  195.88    9.80
  -7  -2  -6   33.50    5.70
   7  -2   6   26.00    6.60
  -7  -2  -6   32.20    6.20
  -7  -2  -6   27.90    7.20
   7  -2   6   20.40    5.10
   7  -2   6   24.80    6.60
   7  -2   6   22.60    6.80
   7  -2   6   25.00    4.80
  -7   2  -6   30.30    6.00
   7   2   6   20.90    5.80
   7   2   6   25.10    7.20
  -7   2  -6   37.40    6.20
   7   2   6   29.80    6.60
   7   2   6   23.80    6.60
  -7   2  -6   22.00    4.50
   8  -2   6   19.60    8.00
  -8  -2  -6   42.00    9.20
   8  -2   6   32.90    6.30
   8  -2   6   48.50    8.40
  -8  -2  -6   31.90    7.70
   8  -2   6   26.00    6.10
   8  -2   6   23.10    8.90
  -8   2  -6   40.60    7.50
   8   2   6   28.90    9.10
   8   2   6   25.90    8.60
  -8   2  -6   25.30    5.70
  -8   2  -6   26.40    7.30
   8   2   6   20.00    6.80
   9  -2   6   11.80   10.30
   9  -2   6    4.30    7.30
  -9  -2  -6   12.80    9.20
  -9  -2  -6   15.10    8.70
  -9   2  -6   26.90    8.90
   9   2   6   15.00    8.00
  -9   2  -6   -0.40    8.40
 -10  -2  -6    7.30   11.00
  10  -2   6    2.70    9.20
  10  -2   6    8.50   20.10
  10   2   6    3.60    9.90
 -10   2  -6    5.50   10.90
 -13  -3   6   11.20    9.30
 -13   3   6    2.00   11.40
 -12  -3   6   71.89    9.00
 -12  -3   6   80.39    9.00
 -12  -3   6   95.19   11.60
 -12  -3   6   66.59   10.30
 -12   3   6   69.39    9.30
 -12   3   6   66.39    9.80
 -12   3   6   69.79    8.90
 -12   3   6   72.29   10.00
 -11  -3   6   44.40    8.20
 -11  -3   6   37.40    7.40
 -11  -3   6   32.70    6.60
 -11  -3   6   36.60    6.40
 -11   3   6   26.40    7.70
 -11   3   6   42.30    6.80
 -11   3   6   33.90    6.60
 -11   3   6   36.40    7.50
 -11   3   6   45.20    7.40
 -10  -3   6   39.70    5.80
 -10  -3   6   42.20    6.40
  10  -3  -6   30.20    7.20
 -10  -3   6   37.80    6.70
 -10  -3   6   42.60    5.70
  10   3  -6   38.50    5.40
 -10   3   6   45.20    6.90
 -10   3   6   36.80    6.40
 -10   3   6   38.00    5.70
 -10   3   6   42.80    5.50
  10   3  -6   30.90    6.60
 -10   3   6   36.80    6.10
  -9  -3   6  500.85   13.80
   9  -3  -6  467.75   13.30
  -9  -3   6  532.35   15.80
  -9  -3   6  475.95   11.00
   9  -3  -6  495.45   13.90
  -9  -3   6  465.65   16.90
  -9   3   6  499.55   13.70
  -9   3   6  495.05   13.50
  -9   3   6  484.85   13.80
  -9   3   6  521.05   15.10
   9   3  -6  500.65   16.10
   9   3  -6  491.05   12.90
  -9   3   6  511.55   15.20
   9   3  -6  463.05   13.10
  -8  -3   6  231.98    8.80
   8  -3  -6  237.18    8.60
   8  -3  -6  246.08   10.30
  -8  -3   6  254.97    8.60
  -8  -3   6  238.78   11.10
  -8  -3   6  232.78    7.30
  -8  -3   6  240.28    9.50
   8   3  -6  237.28    8.30
  -8   3   6  251.77    8.60
  -8   3   6  234.28    9.90
   8   3  -6  242.28    8.10
   8   3  -6  237.08   10.20
  -8   3   6  249.48    8.70
  -8   3   6  238.68   11.70
   8   3  -6  251.87    8.60
  -8   3   6  255.07   10.20
  -7  -3   6   82.39    5.30
  -7  -3   6   80.69    5.00
  -7  -3   6   90.39    6.10
  -7  -3   6   87.29    5.50
   7  -3  -6   86.99    6.90
   7  -3  -6   82.79    5.30
  -7  -3   6   70.59    6.80
   7  -3  -6   83.99    5.30
  -7   3   6   80.49    5.00
  -7   3   6   76.09    6.70
   7   3  -6   76.49    4.90
   7   3  -6   82.69    6.60
  -7   3   6   82.79    5.40
  -7   3   6   82.19    6.10
   7   3  -6   79.59    4.90
  -7   3   6   83.09    6.70
   7   3  -6   83.79    5.10
   7   3  -6   90.79    5.10
  -7   3   6   84.89    5.50
  -6  -3   6  796.42   17.00
  -6  -3   6  813.72   18.80
   6  -3  -6  825.52   16.80
  -6  -3   6  792.82   17.20
  -6  -3   6  824.22   17.70
   6  -3  -6  798.22   18.50
  -6  -3   6  791.22   16.90
   6  -3  -6  801.32   16.80
  -6   3   6  785.72   17.00
  -6   3   6  815.52   17.30
  -6   3   6  780.62   18.40
   6   3  -6  792.52   16.10
   6   3  -6  819.82   16.30
   6   3  -6  823.52   16.40
  -6   3   6  815.42   18.70
  -6   3   6  804.72   16.10
  -6   3   6  790.42   17.10
  -6   3   6  835.72   17.40
   6   3  -6  798.52   16.50
   6   3  -6  822.52   17.80
   5  -3  -6   36.60    4.30
  -5  -3   6   26.90    2.80
  -5  -3   6   31.70    3.90
   5  -3  -6   29.20    2.40
   5  -3  -6   32.80    3.00
   5  -3  -6   32.50    2.80
  -5  -3   6   31.80    2.90
  -5  -3   6   29.00    3.30
  -5   3   6   27.80    3.80
   5   3  -6   33.90    3.00
  -5   3   6   26.30    3.90
  -5   3   6   32.60    3.10
  -5   3   6   29.40    2.90
  -5   3   6   28.80    2.90
  -5   3   6   28.50    3.10
   5   3  -6   31.10    2.90
  -5   3   6   30.50    2.70
   5   3  -6   28.90    2.60
  -5   3   6   30.40    3.20
   5   3  -6   28.80    3.30
  -4  -3   6 1164.28   22.50
   4  -3  -6 1199.98   24.60
  -4  -3   6 1177.98   24.40
  -4  -3   6 1186.38   23.00
   4  -3  -6 1210.28   22.80
  -4  -3   6 1165.98   22.70
   4  -3  -6 1183.98   22.70
   4  -3  -6 1204.08   22.60
  -4   3   6 1143.99   23.00
  -4   3   6 1191.78   23.00
   4   3  -6 1145.09   22.10
  -4   3   6 1189.18   23.10
  -4   3   6 1190.18   22.90
   4   3  -6 1138.09   22.30
   4   3  -6 1187.48   23.10
   4   3  -6 1187.38   21.90
  -4   3   6 1217.28   23.20
  -4   3   6 1198.38   24.50
   4   3  -6 1169.28   21.80
   3  -3  -6  243.78    6.50
  -3  -3   6  244.88    6.20
  -3  -3   6  237.38    6.20
   3  -3  -6  244.38    6.80
  -3  -3   6  236.68    7.80
  -3   3   6  250.17    6.90
   3   3  -6  243.18    5.50
   3   3  -6  233.18    5.80
  -3   3   6  244.88    6.90
   3   3  -6  215.98    5.90
  -3   3   6  241.78    7.90
   3   3  -6  238.08    5.70
  -3   3   6  241.08    6.50
  -3   3   6  236.68    6.50
  -3   3   6  244.28    7.10
  -2  -3   6  120.79    5.50
  -2  -3   6  115.89    4.10
  -2  -3   6  111.59    3.90
   2  -3  -6  116.19    5.00
   2  -3  -6  116.49    4.50
  -2  -3   6  113.39    3.50
  -2  -3   6  110.79    6.00
  -2   3   6  111.19    4.40
   2   3  -6  105.69    3.70
   2   3  -6  113.39    5.40
   2   3  -6  113.39    3.50
  -2   3   6  111.79    5.70
  -2   3   6  108.49    5.20
  -2   3   6  104.99    4.40
   2   3  -6  104.69    3.90
  -2   3   6  109.29    4.80
  -2   3   6  107.09    4.80
  -2   3   6  109.69    4.50
   2   3  -6   95.89    4.20
   1  -3  -6  975.60   19.50
   1  -3  -6 1004.60   20.30
   1  -3  -6  969.30   19.30
  -1  -3   6  982.40   20.10
  -1  -3   6  988.80   19.10
  -1  -3   6  973.30   21.00
   1   3  -6  984.10   18.80
   1   3  -6  982.00   18.70
  -1   3   6  968.40   19.10
  -1   3   6  989.00   20.40
  -1   3   6  976.30   20.90
   1   3  -6  980.30   19.20
   1   3  -6  985.30   20.00
   1   3  -6  979.60   19.00
  -1   3   6 1033.10   19.70
  -1   3   6  976.30   19.50
  -1   3   6 1009.30   19.80
  -1   3   6  972.50   19.50
   0  -3   6  159.98    7.00
   0  -3   6  152.38    5.40
   0  -3  -6  155.28    4.70
   0  -3  -6  161.18    6.40
   0  -3   6  160.98    6.00
   0  -3  -6  157.18    5.60
   0  -3  -6  161.28    5.90
   0  -3   6  160.18    5.40
   0   3  -6  162.78    5.80
   0   3   6  160.08    5.70
   0   3  -6  166.18    5.10
   0   3   6  155.58    6.60
   0   3   6  158.48    5.90
   0   3   6  162.68    5.80
   0   3  -6  159.98    5.30
   0   3   6  162.48    4.60
   0   3  -6  161.58    5.20
   0   3  -6  171.08    5.40
   0   3   6  163.28    5.90
   0   3   6  170.48    6.60
  -1  -3  -6  989.00   20.60
   1  -3   6  966.70   19.50
   1  -3   6  974.90   19.70
  -1  -3  -6  973.60   19.90
   1  -3   6  946.71   21.00
  -1  -3  -6  975.70   19.10
  -1  -3  -6  962.20   19.80
   1  -3   6  979.70   19.60
  -1   3  -6  971.60   21.10
  -1   3  -6  968.70   19.30
  -1   3  -6  964.20   19.50
   1   3   6  940.51   17.60
  -1   3  -6  960.30   19.50
  -1   3  -6  953.50   19.40
   1   3   6  967.00   20.00
   1   3   6  966.50   20.00
   1   3   6  958.00   19.80
   1   3   6  971.10   20.70
   1   3   6  940.71   19.70
  -1   3  -6  964.80   19.30
   2  -3   6 1243.28   25.10
  -2  -3  -6 1254.87   25.80
  -2  -3  -6 1233.28   24.90
   2  -3   6 1240.58   26.50
   2  -3   6 1241.28   24.70
   2  -3   6 1265.37   25.80
   2  -3   6 1275.57   25.20
  -2  -3  -6 1245.08   25.50
  -2  -3  -6 1280.37   26.10
   2   3   6 1266.97   25.70
  -2   3  -6 1269.77   25.00
   2   3   6 1269.77   25.50
  -2   3  -6 1271.97   25.00
  -2   3  -6 1267.57   24.60
   2   3   6 1262.37   26.00
  -2   3  -6 1246.28   26.50
   2   3   6 1268.07   26.20
   3  -3   6  346.27   10.10
  -3  -3  -6  345.87   10.40
   3  -3   6  346.77   11.50
   3  -3   6  353.76   10.20
  -3  -3  -6  352.36   10.40
  -3  -3  -6  360.66   10.60
   3  -3   6  372.26   11.10
   3   3   6  358.86   10.80
   3   3   6  349.87   10.60
   3   3   6  353.66   10.80
   3   3   6  363.16   11.00
  -3   3  -6  349.57   11.30
  -3   3  -6  366.26   10.20
  -3   3  -6  361.36   10.00
  -3   3  -6  348.07    9.30
   4  -3   6  755.42   18.70
   4  -3   6  757.92   14.80
  -4  -3  -6  777.82   18.30
   4  -3   6  768.42   18.00
  -4  -3  -6  773.22   18.00
   4  -3   6  743.53   17.70
   4  -3   6  748.63   18.00
   4  -3   6  773.62   19.10
  -4  -3  -6  757.82   18.40
  -4   3  -6  806.32   18.00
   4   3   6  793.72   18.60
  -4   3  -6  781.62   17.90
  -4   3  -6  763.92   16.50
   4   3   6  756.12   18.40
   4   3   6  751.42   18.30
   4   3   6  754.62   18.20
   5  -3   6  130.79   11.30
  -5  -3  -6  125.69    8.30
  -5  -3  -6  122.69    8.80
   5  -3   6  111.39    8.10
   5  -3   6  118.59    5.10
   5  -3   6  120.29    9.30
   5  -3   6  110.29    8.30
   5  -3   6  117.99    7.70
  -5  -3  -6  124.09    8.30
  -5  -3  -6  101.19    8.30
   5   3   6  124.29    8.80
  -5   3  -6  131.39    8.10
   5   3   6  119.19    9.00
  -5   3  -6  112.19    8.30
   5   3   6  112.49    8.60
  -5   3  -6  114.39    6.60
   5   3   6  116.19    8.60
  -6  -3  -6   59.89    6.50
   6  -3   6   63.69    6.80
   6  -3   6   61.69    5.60
  -6  -3  -6   67.89    7.10
   6  -3   6   55.89    7.50
   6  -3   6   57.49    7.80
   6  -3   6   57.99    6.10
  -6  -3  -6   65.09    6.60
   6  -3   6   69.69    7.00
   6   3   6   63.39    7.30
  -6   3  -6   45.80    5.90
   6   3   6   66.79    6.90
   6   3   6   54.49    6.90
  -6   3  -6   54.99    6.20
   6   3   6   43.00    6.30
  -6   3  -6   55.09    8.90
   7  -3   6  194.68    9.70
  -7  -3  -6  242.78   12.90
   7  -3   6  219.18   11.30
   7  -3   6  217.48   13.40
   7  -3   6  215.38   13.00
  -7  -3  -6  230.08   12.50
   7  -3   6  217.68   13.60
  -7  -3  -6  185.38   13.70
   7   3   6  223.98   14.60
  -7   3  -6  217.38    9.80
   7   3   6  229.28   12.40
  -7   3  -6  227.18   12.00
   7   3   6  238.08   15.90
   7   3   6  222.18   19.00
  -7   3  -6  219.28   12.50
   8  -3   6  109.09   10.40
  -8  -3  -6  135.99   10.80
   8  -3   6  134.39    9.50
   8  -3   6  118.99   11.40
   8  -3   6  124.19   11.30
  -8  -3  -6  130.69   10.40
   8  -3   6  104.89   10.70
  -8   3  -6  119.29   10.60
  -8   3  -6  118.09   10.00
   8   3   6  110.29   11.70
   8   3   6  153.88   15.60
   8   3   6  125.19   12.40
  -9  -3  -6  182.88   18.50
   9  -3   6  174.28   14.50
  -9  -3  -6  189.08   17.00
   9  -3   6  196.58   19.80
  -9   3  -6  191.48   15.90
   9   3   6  165.38   15.30
 -12  -4   6   44.20    9.20
 -12  -4   6   54.09    9.40
 -12  -4   6   22.00   10.30
 -12  -4   6   42.70    9.80
 -12   4   6   45.10    9.00
 -12   4   6   38.50   10.20
 -12   4   6   19.70    8.10
 -12   4   6   38.70   10.30
 -11  -4   6   96.19   10.10
 -11  -4   6   90.69    8.70
 -11  -4   6   80.99    8.90
 -11  -4   6   95.49    8.60
 -11   4   6   90.89    9.90
 -11   4   6   88.89    8.60
 -11   4   6   90.19    8.50
 -11   4   6   92.19    8.80
  11   4  -6   97.89    8.90
 -11   4   6  105.59   10.30
 -10  -4   6    7.80    6.80
 -10  -4   6    2.40    5.20
 -10  -4   6   15.30    5.90
 -10  -4   6    3.60    5.10
 -10  -4   6    8.10    3.90
  10   4  -6   -4.50    5.20
 -10   4   6   -2.80    5.40
 -10   4   6   -0.80    5.20
 -10   4   6    2.40    5.20
  10   4  -6  -14.70    4.90
 -10   4   6    1.80    6.00
 -10   4   6    4.20    5.40
   9  -4  -6  103.59    9.20
  -9  -4   6  137.29   10.80
   9  -4  -6  110.39    9.00
  -9  -4   6   99.89    6.90
  -9  -4   6   97.09    8.90
  -9  -4   6  106.89    8.50
  -9  -4   6  102.39    8.20
   9   4  -6  116.29    8.90
  -9   4   6  105.19    7.60
   9   4  -6  103.59    7.90
  -9   4   6  102.09    8.40
   9   4  -6   99.69    8.20
  -9   4   6  103.79   10.10
  -9   4   6  101.59    9.50
   9   4  -6  115.39   10.80
  -9   4   6  110.09    8.20
  -9   4   6  119.89    9.90
  -8  -4   6  190.38    8.60
   8  -4  -6  204.08    9.00
  -8  -4   6  194.58    8.20
  -8  -4   6  192.78    9.20
  -8  -4   6  210.68   10.50
  -8  -4   6  197.38    8.50
  -8   4   6  188.18   10.20
   8   4  -6  199.98    8.60
   8   4  -6  203.68    8.20
  -8   4   6  192.88    8.80
  -8   4   6  197.48    7.40
   8   4  -6  198.88    8.20
  -8   4   6  189.58    9.40
  -8   4   6  189.88    9.30
  -8   4   6  210.38    9.40
  -8   4   6  206.68    9.90
  -7  -4   6  120.09    8.10
  -7  -4   6  116.79    6.80
   7  -4  -6  124.99    6.80
  -7  -4   6  114.59    7.00
   7  -4  -6  104.69    8.10
  -7  -4   6  125.79    7.10
  -7  -4   6  119.79    6.80
   7  -4  -6  127.29    3.90
   7   4  -6  124.39    6.20
  -7   4   6  117.59    5.10
  -7   4   6  119.59    7.80
   7   4  -6  113.19    7.40
   7   4  -6  122.19    6.30
   7   4  -6  120.99    6.40
  -7   4   6  121.09    6.80
  -7   4   6  109.69    6.70
  -7   4   6  115.49    7.10
  -7   4   6  115.59    7.40
  -7   4   6  120.19    8.00
  -6  -4   6  396.86   13.00
  -6  -4   6  448.76   13.00
   6  -4  -6  441.46   11.10
  -6  -4   6  444.16   11.30
   6  -4  -6  438.36    9.70
   6  -4  -6  422.56   12.90
  -6  -4   6  445.16   11.40
  -6  -4   6  431.66   11.50
   6  -4  -6  454.85   11.30
  -6   4   6  437.86    9.10
  -6   4   6  454.25   12.90
   6   4  -6  431.46   10.60
  -6   4   6  430.56   11.70
   6   4  -6  451.75   11.70
  -6   4   6  434.36   11.40
  -6   4   6  448.46   12.90
   6   4  -6  427.86   10.60
   6   4  -6  445.66   10.90
  -6   4   6  454.75   11.80
   6   4  -6  436.56   10.70
  -6   4   6  444.06   11.40
   5  -4  -6 1160.58   24.90
   5  -4  -6 1146.59   22.20
   5  -4  -6 1138.59   23.00
  -5  -4   6 1158.08   23.10
  -5  -4   6 1149.69   24.50
  -5  -4   6 1142.99   23.00
   5  -4  -6 1121.89   22.80
  -5  -4   6 1131.19   22.90
   5   4  -6 1153.38   22.30
   5   4  -6 1124.99   22.40
  -5   4   6 1154.58   22.70
  -5   4   6 1163.08   24.80
  -5   4   6 1113.19   23.30
  -5   4   6 1162.68   23.30
   5   4  -6 1115.59   22.50
   5   4  -6 1148.69   23.10
  -5   4   6 1129.49   23.30
  -5   4   6 1143.49   23.10
   5   4  -6 1142.49   22.20
   4  -4  -6   78.19    4.80
   4  -4  -6   79.69    4.60
  -4  -4   6   83.69    6.10
  -4  -4   6   85.19    4.70
  -4  -4   6   79.49    4.60
  -4  -4   6   81.49    4.60
   4  -4  -6   81.09    4.60
   4  -4  -6   83.89    6.40
  -4   4   6   85.69    5.20
  -4   4   6   80.39    4.70
  -4   4   6   92.49    6.30
   4   4  -6   83.89    4.40
  -4   4   6   81.39    4.80
  -4   4   6   88.69    5.40
  -4   4   6   75.89    5.00
   4   4  -6   90.49    4.20
   4   4  -6   81.59    4.30
   4   4  -6   83.39    4.10
   4   4  -6   81.09    4.40
  -3  -4   6  284.77    9.90
  -3  -4   6  292.07    7.10
  -3  -4   6  284.97    9.20
   3  -4  -6  308.37    8.40
  -3  -4   6  283.07    7.70
  -3  -4   6  283.47    6.30
   3  -4  -6  280.37    7.90
  -3  -4   6  271.17    8.40
  -3  -4   6  283.07    7.70
   3   4  -6  293.97    7.20
   3   4  -6  286.57    7.10
   3   4  -6  285.47    9.20
   3   4  -6  284.07    7.20
  -3   4   6  290.17    8.40
  -3   4   6  296.17    9.40
  -3   4   6  286.07    8.00
   3   4  -6  289.57    7.40
  -3   4   6  295.27    8.10
  -3   4   6  286.77    8.40
  -3   4   6  294.97    8.70
  -3   4   6  305.37    8.90
  -2  -4   6  278.47    7.50
   2  -4  -6  273.37    9.40
  -2  -4   6  277.37    6.20
  -2  -4   6  282.07    7.50
   2  -4  -6  285.07    8.00
  -2  -4   6  271.47    6.90
  -2  -4   6  285.57    9.50
  -2  -4   6  292.57    9.00
  -2   4   6  284.67    8.00
  -2   4   6  269.17    8.20
   2   4  -6  278.07    7.30
   2   4  -6  293.97    8.90
  -2   4   6  270.77    8.00
  -2   4   6  273.57    8.50
   2   4  -6  285.17    7.20
  -2   4   6  272.07    9.00
  -2   4   6  279.57    7.80
   2   4  -6  286.27    7.20
  -2   4   6  279.67    8.30
   1  -4  -6  462.75   11.20
   1  -4  -6  450.45   11.60
   1  -4  -6  457.45   10.90
  -1  -4   6  460.65   11.70
  -1  -4   6  465.05   10.60
  -1  -4   6  440.86   10.40
  -1  -4   6  453.55   10.60
  -1  -4   6  451.35   12.40
   1   4  -6  449.46   10.50
   1   4  -6  457.95   10.40
  -1   4   6  466.25   11.90
  -1   4   6  447.56   12.10
  -1   4   6  459.25   11.30
   1   4  -6  461.75   10.50
  -1   4   6  450.85   10.90
  -1   4   6  468.05   11.00
   1   4  -6  457.05   10.30
  -1   4   6  445.56   10.60
  -1   4   6  453.45   11.40
   0  -4   6  392.56   11.60
   0  -4  -6  410.46   10.50
   0  -4  -6  414.16   11.10
   0  -4  -6  377.56   10.40
   0  -4   6  400.46   10.00
   0  -4  -6  393.46    8.40
   0  -4   6  402.76   10.00
   0  -4   6  400.76   10.70
   0  -4   6  401.86   10.20
   0   4  -6  408.66    9.80
   0   4   6  405.26   10.80
   0   4  -6  409.66   10.70
   0   4   6  416.26   10.40
   0   4   6  391.66   11.20
   0   4  -6  404.66    9.80
   0   4   6  414.66   11.40
   0   4   6  405.56   10.30
   0   4   6  409.16   10.70
   0   4  -6  406.76   10.00
   0   4  -6  396.66   10.00
   0   4   6  407.76    9.30
   1  -4   6  272.97    8.20
  -1  -4  -6  265.37    7.10
  -1  -4  -6  261.47    9.00
  -1  -4  -6  264.07    8.50
   1  -4   6  266.47    8.60
   1  -4   6  267.97    9.50
  -1  -4  -6  241.38    9.20
   1  -4   6  258.87    8.50
   1  -4   6  260.07    8.00
   1   4   6  276.47    9.00
  -1   4  -6  265.57    8.00
  -1   4  -6  262.17    7.80
  -1   4  -6  269.37    8.30
   1   4   6  259.77    8.70
  -1   4  -6  263.67    7.90
  -1   4  -6  258.37    7.80
   1   4   6  261.27    8.70
   1   4   6  257.77    8.20
   1   4   6  269.67    9.20
   1   4   6  257.97    6.50
   1   4   6  262.57    8.30
  -2  -4  -6   83.09    5.20
   2  -4   6   91.69    6.20
   2  -4   6   87.79    6.00
   2  -4   6   83.99    6.90
   2  -4   6   91.49    5.70
  -2  -4  -6   93.09    6.90
  -2  -4  -6   89.89    6.20
   2  -4   6   92.29    6.10
  -2  -4  -6   98.09    6.30
   2   4   6   89.69    3.50
   2   4   6   89.99    5.90
  -2   4  -6   96.29    5.80
   2   4   6   96.29    6.50
  -2   4  -6  100.99    5.80
  -2   4  -6   97.19    5.70
  -2   4  -6   92.29    7.30
   2   4   6   98.59    6.70
   2   4   6   94.59    5.80
   2   4   6   86.09    7.00
   2   4   6   92.89    6.60
  -3  -4  -6  712.73   17.20
  -3  -4  -6  693.93   18.40
  -3  -4  -6  707.63   16.30
   3  -4   6  718.93   16.70
   3  -4   6  704.53   17.20
   3  -4   6  713.23   16.70
   3  -4   6  701.93   17.90
   3   4   6  717.03   16.80
  -3   4  -6  672.23   17.50
  -3   4  -6  699.63   16.40
   3   4   6  697.83   17.40
  -3   4  -6  718.93   16.60
   3   4   6  694.73   17.20
   3   4   6  709.83   17.50
   3   4   6  714.13   17.40
   4  -4   6   34.70    5.70
   4  -4   6   40.70    5.80
   4  -4   6   34.90    4.90
  -4  -4  -6   36.30    5.00
  -4  -4  -6   33.30    5.10
  -4  -4  -6   31.40    4.70
   4  -4   6   31.70    4.70
   4   4   6   37.00    5.60
   4   4   6   30.90    5.30
   4   4   6   29.20    5.10
  -4   4  -6   33.90    4.60
   4   4   6   37.70    5.40
  -4   4  -6   29.70    4.30
  -4   4  -6   27.10    4.60
   5  -4   6  314.17   12.40
  -5  -4  -6  299.67   12.50
   5  -4   6  324.77   13.20
  -5  -4  -6  325.27   12.50
   5  -4   6  315.47   12.20
  -5  -4  -6  297.67   12.20
  -5  -4  -6  307.57   12.10
   5  -4   6  322.07   12.70
   5   4   6  314.47   12.50
   5   4   6  317.37   12.00
   5   4   6  298.27   12.60
  -5   4  -6  306.67   10.50
   5   4   6  296.97   12.60
  -5   4  -6  332.37   11.80
  -5   4  -6  323.67   11.80
   6  -4   6  254.07   13.30
   6  -4   6  266.17   12.60
   6  -4   6  270.17   13.30
  -6  -4  -6  240.68   12.60
   6  -4   6  259.17   11.40
  -6  -4  -6  257.07   12.40
   6   4   6  229.38   13.50
  -6   4  -6  257.97   11.90
   6   4   6  237.28   11.90
  -6   4  -6  223.88   10.30
  -6   4  -6  254.67   12.10
   6   4   6  244.78   13.50
   6   4   6  228.18   13.30
  -7  -4  -6   52.39    8.00
   7  -4   6   54.29    8.90
  -7  -4  -6   50.99    7.60
   7  -4   6   52.89    7.00
   7  -4   6   49.40    8.20
   7   4   6   43.40    8.80
  -7   4  -6   44.60    7.10
  -7   4  -6   52.89    7.70
   7   4   6   50.99    7.50
   7   4   6   51.29    9.40
  -7   4  -6   53.69    7.10
   8  -4   6   24.30    8.90
   8  -4   6   17.20   11.60
  -8  -4  -6   44.70    9.30
   8  -4   6   25.10    7.50
  -8  -4  -6   33.90    9.20
  -8   4  -6   30.10    9.00
  -8   4  -6   34.70    7.90
   8   4   6   21.60    8.60
   9  -4   6   32.40   11.70
  -9  -4  -6   36.70   10.90
   9  -4   6   30.30    8.80
   9   4   6   29.30   10.10
  -9   4  -6   24.60    9.80
 -12  -5   6   24.10   17.20
 -12  -5   6    0.60   10.00
 -12  -5   6   14.40    9.10
 -12   5   6   25.30   12.00
 -12   5   6   14.00   10.80
 -12   5   6   10.90    9.40
 -12   5   6    4.30   13.10
 -11  -5   6   19.90    8.70
 -11  -5   6    4.10    7.60
 -11  -5   6    5.80    7.50
 -11  -5   6   20.20    7.40
 -11   5   6    8.90    9.20
 -11   5   6    9.60    7.20
 -11   5   6   24.20    8.50
 -11   5   6   14.80    7.90
 -10  -5   6   40.70    7.10
 -10  -5   6   47.80    6.20
 -10  -5   6   55.19    8.40
 -10  -5   6   38.90    7.20
 -10  -5   6   47.30    7.20
 -10   5   6   44.50    6.90
  10   5  -6   45.50    6.90
 -10   5   6   41.10    6.30
 -10   5   6   56.69    8.30
 -10   5   6   50.09    8.70
 -10   5   6   53.79    7.30
 -10   5   6   60.39    8.90
  -9  -5   6  213.18   10.90
  -9  -5   6  197.48   12.30
  -9  -5   6  196.08    9.80
  -9  -5   6  197.08   10.90
  -9  -5   6  193.68   11.00
  -9   5   6  187.58   11.90
  -9   5   6  203.48    8.70
   9   5  -6  199.48   12.50
   9   5  -6  192.48   10.20
  -9   5   6  196.58   10.60
  -9   5   6  198.28   12.10
  -9   5   6  196.78   10.70
  -9   5   6  209.08   11.90
   9   5  -6  189.08   10.20
  -9   5   6  208.78   12.60
  -8  -5   6  155.58    9.20
  -8  -5   6  148.39    8.90
  -8  -5   6  138.19   10.30
  -8  -5   6  149.69    8.90
   8  -5  -6  133.39    9.50
   8  -5  -6  151.18   11.70
  -8  -5   6  153.78    8.90
  -8   5   6  141.99    6.40
   8   5  -6  155.78    8.30
  -8   5   6  146.19    9.80
  -8   5   6  141.09    9.90
  -8   5   6  148.09   10.60
   8   5  -6  141.79    9.30
   8   5  -6  141.09    8.40
  -8   5   6  151.58    9.00
  -8   5   6  154.08   10.20
  -8   5   6  165.18    8.90
  -7  -5   6    3.20    3.70
  -7  -5   6   -0.10    4.20
  -7  -5   6    2.20    3.60
  -7  -5   6    7.80    3.80
   7  -5  -6    3.40    2.70
   7  -5  -6    1.70    5.80
  -7  -5   6    4.40    4.50
  -7   5   6    5.10    4.20
  -7   5   6    2.60    2.30
   7   5  -6    6.80    3.70
  -7   5   6    1.10    4.30
  -7   5   6    1.60    4.20
  -7   5   6   -3.00    4.20
   7   5  -6   -2.60    4.00
  -7   5   6    4.30    3.90
   7   5  -6    2.70    3.90
   7   5  -6    1.80    3.50
  -6  -5   6   19.10    3.70
  -6  -5   6   24.30    3.90
  -6  -5   6   13.30    4.40
  -6  -5   6   19.40    3.80
   6  -5  -6   16.90    2.90
   6  -5  -6   15.90    3.80
  -6  -5   6   12.70    4.30
  -6   5   6   23.90    4.30
  -6   5   6   15.20    4.00
  -6   5   6    6.80    4.60
  -6   5   6   14.70    3.70
   6   5  -6   19.20    3.70
  -6   5   6   14.30    3.70
  -6   5   6   14.10    4.30
  -6   5   6   18.80    5.00
   6   5  -6   12.90    3.60
   6   5  -6   18.80    3.40
   6   5  -6   14.30    3.50
  -5  -5   6   75.49    5.70
   5  -5  -6   79.59    5.40
   5  -5  -6   77.69    7.50
   5  -5  -6   79.39    5.90
  -5  -5   6   84.29    5.60
  -5  -5   6   75.19    6.90
  -5  -5   6   79.39    5.80
  -5  -5   6   88.69    7.30
  -5   5   6   83.89    6.00
  -5   5   6   83.09    5.90
   5   5  -6   79.39    5.60
   5   5  -6   85.59    5.70
   5   5  -6   88.59    5.50
  -5   5   6   82.39    6.50
  -5   5   6   88.59    7.70
  -5   5   6   79.89    6.60
   5   5  -6   90.79    5.70
  -5   5   6   73.19    7.10
   5   5  -6   86.49    5.70
  -4  -5   6  513.25   12.50
   4  -5  -6  509.05   14.20
  -4  -5   6  500.55   11.70
   4  -5  -6  513.15   12.50
   4  -5  -6  503.95   12.60
  -4  -5   6  507.75   12.50
  -4  -5   6  512.85   14.00
  -4   5   6  512.35   13.70
   4   5  -6  499.75   12.90
  -4   5   6  490.25   13.10
   4   5  -6  519.65   12.10
   4   5  -6  510.45   14.20
   4   5  -6  510.95   11.60
  -4   5   6  538.05   13.00
   4   5  -6  519.45   12.00
  -4   5   6  501.75   14.00
  -4   5   6  511.35   12.60
  -4   5   6  494.75   12.70
  -4   5   6  515.55   13.30
   4   5  -6  519.65   12.00
   3  -5  -6  365.66   10.10
  -3  -5   6  359.66    8.50
   3  -5  -6  342.07   10.00
  -3  -5   6  360.56   11.90
   3  -5  -6  359.06   10.60
  -3  -5   6  376.26    9.90
  -3  -5   6  377.86   11.20
  -3  -5   6  349.47    9.60
  -3  -5   6  348.77    9.70
   3   5  -6  362.66    8.40
  -3   5   6  355.36   10.50
   3   5  -6  320.47   11.70
   3   5  -6  351.96    9.40
   3   5  -6  363.26    9.60
  -3   5   6  370.96   11.30
  -3   5   6  361.56   10.00
   3   5  -6  361.56    9.30
   3   5  -6  363.46   11.30
  -3   5   6  352.16   10.40
  -3   5   6  353.76   10.60
  -3   5   6  362.36   10.00
  -3   5   6  353.06   10.60
  -2  -5   6  362.36    9.70
   2  -5  -6  370.96   10.40
   2  -5  -6  345.57   10.70
  -2  -5   6  372.86    9.70
  -2  -5   6  351.06    8.40
   2  -5  -6  372.16   10.30
  -2  -5   6  360.36   11.50
  -2  -5   6  361.56   10.90
  -2   5   6  358.16   10.80
  -2   5   6  349.07   11.10
   2   5  -6  359.36    9.30
   2   5  -6  356.46    9.40
  -2   5   6  355.96   10.10
  -2   5   6  372.86   10.10
   2   5  -6  356.96    9.50
  -2   5   6  357.86   10.60
  -2   5   6  358.36   10.60
   2   5  -6  371.96   10.90
   2   5  -6  365.16    9.50
  -2   5   6  364.06   10.00
  -1  -5   6  421.36   12.00
  -1  -5   6  435.86   12.70
  -1  -5   6  430.76   10.90
   1  -5  -6  438.46   11.90
  -1  -5   6  404.16   10.00
  -1  -5   6  422.26   10.80
   1  -5  -6  430.46   11.50
  -1   5   6  426.06   11.80
  -1   5   6  413.56   11.10
  -1   5   6  424.16   11.80
   1   5  -6  423.76   11.90
   1   5  -6  427.56   10.80
   1   5  -6  431.66   10.80
   1   5  -6  416.06   10.50
  -1   5   6  422.46   12.10
  -1   5   6  436.26   12.20
  -1   5   6  442.96   10.90
   1   5  -6  425.26   10.70
  -1   5   6  423.86   11.20
   0  -5   6   43.50    4.00
   0  -5  -6   28.10    3.80
   0  -5  -6   41.50    4.40
   0  -5   6   39.50    4.40
   0  -5   6   41.50    4.00
   0  -5   6   43.40    4.00
   0  -5  -6   37.00    2.60
   0  -5   6   39.10    4.90
   0  -5  -6   32.10    4.30
   0   5  -6   43.00    3.80
   0   5   6   37.60    4.70
   0   5   6   31.60    3.30
   0   5  -6   37.90    4.20
   0   5  -6   45.10    4.10
   0   5   6   27.90    4.10
   0   5  -6   40.70    3.90
   0   5   6   39.80    4.80
   0   5   6   34.90    3.80
   0   5   6   35.10    4.40
   0   5  -6   39.60    3.80
   0   5   6   38.30    3.90
  -1  -5  -6  177.78    8.60
   1  -5   6  179.28    7.50
  -1  -5  -6  175.18    5.80
   1  -5   6  179.88    8.10
   1  -5   6  176.18    7.20
   1  -5   6  157.18    7.30
  -1  -5  -6  180.78    8.00
   1  -5   6  184.68    8.80
  -1  -5  -6  179.18    7.80
   1   5   6  172.58    8.20
   1   5   6  173.18    8.50
   1   5   6  164.88    8.00
  -1   5  -6  173.28    7.30
   1   5   6  176.48    7.60
   1   5   6  175.58    5.90
   1   5   6  174.18    7.60
  -1   5  -6  173.08    7.40
  -1   5  -6  153.48    8.60
  -1   5  -6  164.28    7.60
   1   5   6  169.38    8.40
   2  -5   6   80.89    6.60
   2  -5   6   73.19    6.40
   2  -5   6   71.69    7.40
   2  -5   6   69.39    6.40
  -2  -5  -6   68.39    7.00
   2  -5   6   86.39    7.00
  -2  -5  -6   74.69    6.10
  -2  -5  -6   73.29    5.30
   2   5   6   82.09    7.00
  -2   5  -6   68.09    6.40
   2   5   6   73.69    5.90
   2   5   6   83.99    7.50
   2   5   6   82.79    6.60
   2   5   6   73.79    6.50
  -2   5  -6   78.29    6.30
   2   5   6   67.09    4.50
  -2   5  -6   82.39    6.10
  -2   5  -6   81.59    6.70
   2   5   6   60.89    5.80
   2   5   6   72.19    7.20
  -3  -5  -6  129.09    8.40
   3  -5   6  121.29    7.80
   3  -5   6  114.59    8.80
  -3  -5  -6  131.39    8.30
   3  -5   6  126.19    8.20
  -3  -5  -6  114.79    8.30
   3  -5   6  125.39    8.20
   3   5   6  113.49    7.80
   3   5   6  116.99    8.50
   3   5   6  115.49    7.60
   3   5   6  110.29    8.50
  -3   5  -6  121.69    7.60
  -3   5  -6  113.49    7.60
   3   5   6  119.99    8.90
   3   5   6  122.39    7.80
  -3   5  -6  127.29    7.70
   3   5   6  119.89    8.90
   4  -5   6  148.19   10.40
  -4  -5  -6  150.08    9.50
   4  -5   6  157.38    9.60
   4  -5   6  155.38    9.30
   4  -5   6  147.29    9.50
  -4  -5  -6  156.78    8.90
  -4  -5  -6  144.59    9.60
   4   5   6  143.69    8.60
  -4   5  -6  151.78    8.60
  -4   5  -6  145.29    9.30
  -4   5  -6  146.49   10.00
  -4   5  -6  147.59    8.50
   4   5   6  132.89   10.60
  -4   5  -6  155.08    8.90
   4   5   6  137.29    9.90
   4   5   6  145.09   10.50
   4   5   6  151.28   13.40
   4   5   6  155.88    9.70
  -5  -5  -6   23.70    6.10
  -5  -5  -6   30.30    3.30
   5  -5   6   24.00    5.90
  -5  -5  -6   26.70    6.40
  -5  -5  -6   27.60    5.90
   5  -5   6   22.10    6.70
   5  -5   6   32.00    6.80
   5  -5   6   29.20    6.40
   5   5   6   34.80    8.80
  -5   5  -6   23.50    5.50
  -5   5  -6   34.50    5.90
   5   5   6   26.30    7.10
  -5   5  -6   26.30    5.20
   5   5   6   25.00    5.20
   5   5   6   18.60    6.60
   5   5   6   18.10    5.60
   6  -5   6    8.90    7.50
  -6  -5  -6    7.40    6.50
   6  -5   6    3.30    6.50
  -6  -5  -6    8.90    7.60
  -6  -5  -6    1.00    6.40
   6  -5   6    1.80    6.20
  -6  -5  -6    4.70    3.30
   6   5   6    7.60    7.40
  -6   5  -6    0.20    5.50
  -6   5  -6   15.70    6.20
   6   5   6    2.70    5.90
   6   5   6   -1.40    7.30
  -6   5  -6    5.40    6.00
  -7  -5  -6    9.50    3.80
   7  -5   6    5.60    9.30
   7  -5   6    2.20    8.60
   7  -5   6   -1.90    6.50
  -7  -5  -6   -9.20    7.50
  -7  -5  -6   13.50    7.90
   7  -5   6    7.70    8.40
  -7   5  -6  -15.00    7.00
  -7   5  -6    5.60    6.80
   7   5   6    8.30    7.50
   7   5   6    1.50    9.60
   7   5   6   13.20    9.30
   8  -5   6   24.00   10.20
  -8  -5  -6   23.10    9.80
  -8  -5  -6   24.00   16.60
   8  -5   6   28.30    8.10
   8   5   6   40.30    9.90
  -8   5  -6   31.90    9.40
   9  -5   6   17.00    9.70
  -9  -5  -6   36.10   12.80
  -9   5  -6   33.30   10.70
   9   5   6   12.20   11.10
 -11  -6   6   98.39   10.80
 -11  -6   6   81.99   10.80
 -11  -6   6   96.59   12.10
 -11  -6   6   98.09   11.50
 -11   6   6  106.09   11.10
 -11   6   6   82.69   10.70
 -11   6   6   84.99   12.40
 -11   6   6   96.29   10.90
 -10  -6   6   50.49    8.20
 -10  -6   6   45.60    9.40
 -10  -6   6   37.70    7.80
 -10  -6   6   48.10    8.60
 -10   6   6   53.79    8.50
  10   6  -6   48.40    8.30
 -10   6   6   43.80    9.10
 -10   6   6   35.50    9.20
 -10   6   6   35.30    7.80
  -9  -6   6    5.10    6.00
  -9  -6   6   10.60    6.20
  -9  -6   6    8.90    6.30
  -9  -6   6   15.90    7.50
  -9  -6   6   13.90    6.70
  -9   6   6   -0.90    8.70
  -9   6   6    5.50    7.60
  -9   6   6    3.40    6.50
  -9   6   6   17.10    4.80
  -9   6   6    8.30    6.20
  -9   6   6    8.70    7.40
   9   6  -6    8.80    5.90
  -9   6   6   -0.20    5.80
   8  -6  -6  115.89    6.10
  -8  -6   6  127.69   11.40
  -8  -6   6  117.19    9.80
  -8  -6   6  135.29    9.80
  -8  -6   6  131.19   11.00
  -8   6   6  126.29   11.10
   8   6  -6  121.69    9.70
  -8   6   6  111.29    6.10
  -8   6   6  121.29   10.70
  -8   6   6  115.59   11.80
   8   6  -6  127.39   11.90
  -8   6   6  134.89   10.20
  -8   6   6  128.39   11.10
   8   6  -6  116.39    9.40
  -8   6   6  123.09    9.70
  -7  -6   6  164.38    8.90
   7  -6  -6  142.19    6.80
   7  -6  -6  140.39    9.90
  -7  -6   6  137.89    9.10
  -7  -6   6  143.59   10.60
  -7  -6   6  164.68    9.30
  -7  -6   6  164.08   10.40
   7   6  -6  143.29    9.70
  -7   6   6  139.59   10.20
  -7   6   6  142.49   10.80
  -7   6   6  150.48    9.10
  -7   6   6  162.08   10.60
  -7   6   6  132.69   12.40
   7   6  -6  147.89    9.70
   7   6  -6  140.59    8.70
   7   6  -6  140.99    8.50
  -7   6   6  128.89   11.80
  -7   6   6  128.59    9.00
   6  -6  -6  134.39    8.90
  -6  -6   6  159.08    9.80
  -6  -6   6  143.79    7.80
   6  -6  -6  150.78    7.20
  -6  -6   6  158.58   10.10
  -6  -6   6  151.28    8.40
  -6  -6   6  139.29    9.70
  -6   6   6  143.99   10.10
   6   6  -6  140.99    8.10
   6   6  -6  144.09    8.10
  -6   6   6  151.38    8.50
  -6   6   6  127.39   11.30
   6   6  -6  136.99    8.40
  -6   6   6  138.69    9.30
  -6   6   6  145.49    8.50
  -6   6   6  157.78    9.50
   6   6  -6  148.79    7.90
  -6   6   6  155.38    9.50
  -5  -6   6   63.69    6.70
  -5  -6   6   66.59    6.60
  -5  -6   6   52.59    9.60
  -5  -6   6   67.09    6.80
  -5  -6   6   73.49    6.00
   5  -6  -6   69.29    6.30
  -5   6   6   66.29    7.70
  -5   6   6   70.79    6.30
   5   6  -6   64.69    6.30
   5   6  -6   65.39    6.30
   5   6  -6   71.69    6.90
  -5   6   6   58.89    5.60
  -5   6   6   76.09    7.00
   5   6  -6   71.09    6.30
  -5   6   6   65.59    6.80
  -4  -6   6  189.48    8.20
   4  -6  -6  187.98    8.10
  -4  -6   6  186.58    9.70
  -4  -6   6  191.48    8.10
  -4  -6   6  186.58   10.10
   4   6  -6  181.68    7.70
  -4   6   6  177.48    8.90
  -4   6   6  176.78    8.30
   4   6  -6  174.68    7.80
   4   6  -6  182.88    7.70
   4   6  -6  197.78    7.00
  -4   6   6  183.98    9.50
  -4   6   6  197.98    9.70
  -4   6   6  184.98    8.20
  -4   6   6  192.98    8.30
  -4   6   6  187.08    9.40
  -3  -6   6   54.19    5.80
  -3  -6   6   54.89    6.50
  -3  -6   6   51.19    5.70
  -3  -6   6   64.59    6.00
   3  -6  -6   60.79    5.40
  -3  -6   6   52.79    5.90
   3  -6  -6   64.19    6.50
   3   6  -6   51.89    4.80
  -3   6   6   55.19    6.10
  -3   6   6   60.49    5.60
  -3   6   6   55.59    6.10
   3   6  -6   54.09    4.30
  -3   6   6   55.59    5.40
  -3   6   6   64.59    5.90
   3   6  -6   69.99    6.30
   3   6  -6   62.89    6.40
   3   6  -6   57.49    4.80
  -3   6   6   51.29    5.40
  -3   6   6   54.99    5.80
  -2  -6   6  907.21   19.70
  -2  -6   6  873.21   17.60
   2  -6  -6  892.11   20.20
   2  -6  -6  910.01   20.50
  -2  -6   6  877.91   19.50
   2  -6  -6  895.21   19.90
  -2  -6   6  914.51   21.70
  -2  -6   6  914.41   21.00
   2   6  -6  912.21   21.10
  -2   6   6  865.21   20.40
  -2   6   6  898.31   20.70
   2   6  -6  884.01   19.20
  -2   6   6  902.51   20.00
   2   6  -6  894.21   19.40
   2   6  -6  877.91   19.50
  -2   6   6  909.81   19.90
   2   6  -6  862.51   16.90
  -2   6   6  908.51   21.20
  -2   6   6  882.31   20.60
  -2   6   6  895.11   20.00
  -1  -6   6  100.59    6.50
  -1  -6   6   89.39    5.20
   1  -6  -6  106.59    7.20
   1  -6  -6  102.49    7.30
  -1  -6   6   92.39    6.60
   1  -6  -6  112.59    7.60
  -1  -6   6   88.29    7.90
  -1  -6   6  100.29    7.70
   1   6  -6   92.69    6.60
  -1   6   6   87.29    7.50
   1   6  -6   96.99    6.40
  -1   6   6   92.19    7.60
   1   6  -6   97.19    7.70
  -1   6   6   93.79    7.60
  -1   6   6   89.29    6.60
  -1   6   6   79.39    6.40
  -1   6   6   91.89    7.20
   1   6  -6   82.29    6.10
  -1   6   6   87.69    6.60
   0  -6  -6  241.68    9.50
   0  -6  -6  268.27   10.10
   0  -6   6  262.67   10.30
   0  -6   6  269.57   10.90
   0  -6   6  222.98   12.30
   0  -6  -6  252.87   10.30
   0  -6   6  246.08    9.20
   0  -6   6  236.58    9.20
   0   6   6  259.27   10.40
   0   6   6  261.37   10.50
   0   6  -6  241.78    9.30
   0   6   6  254.17    9.50
   0   6  -6  246.18   10.10
   0   6   6  265.77   10.10
   0   6  -6  270.97    9.10
   0   6   6  238.38    8.50
   0   6   6  262.67    9.50
   0   6   6  244.98   10.20
  -1  -6  -6  380.86   14.80
  -1  -6  -6  387.16    9.50
   1  -6   6  382.16   11.80
   1  -6   6  392.36   11.50
   1  -6   6  402.76   12.60
  -1  -6  -6  411.46   12.80
   1  -6   6  397.66   13.30
   1  -6   6  396.26   11.90
  -1   6  -6  376.16   11.60
   1   6   6  412.86   12.90
  -1   6  -6  393.46   12.30
   1   6   6  409.96   12.10
   1   6   6  413.76   12.30
   1   6   6  400.76   14.90
   1   6   6  411.16   13.50
   1   6   6  384.16   13.10
  -1   6  -6  390.66   11.70
   1   6   6  397.26   10.60
   2  -6   6   97.69    8.00
   2  -6   6   77.79    7.80
  -2  -6  -6   92.69    8.40
  -2  -6  -6   87.39    6.10
   2  -6   6  104.99    7.90
  -2  -6  -6   99.39    9.80
   2  -6   6   97.39    8.20
   2  -6   6  106.49    8.50
  -2  -6  -6  100.69    8.60
  -2   6  -6   98.89    7.70
   2   6   6  106.39    9.60
  -2   6  -6  105.79    8.40
   2   6   6   97.99    5.90
  -2   6  -6   79.29    7.50
   2   6   6   95.19    9.40
   2   6   6   94.39    7.80
  -2   6  -6   92.09    7.80
   2   6   6   91.29    9.30
   2   6   6  105.59    9.10
   2   6   6  101.99    8.10
   3  -6   6  315.67   12.10
  -3  -6  -6  314.17   13.70
   3  -6   6  331.57   13.30
  -3  -6  -6  313.07   12.40
   3  -6   6  328.27   12.50
   3  -6   6  289.47   11.90
  -3  -6  -6  308.07   12.10
   3   6   6  312.87   13.40
   3   6   6  316.67   12.00
  -3   6  -6  301.27   12.40
   3   6   6  324.87   13.20
  -3   6  -6  321.77   11.60
   3   6   6  313.07   13.50
   3   6   6  315.97   12.00
  -3   6  -6  293.17   12.10
   3   6   6  325.77   13.00
   3   6   6  318.77   12.00
   3   6   6  306.77    9.20
  -3   6  -6  321.17   12.10
  -4  -6  -6   28.50    6.20
   4  -6   6   26.70    7.00
   4  -6   6   25.50    6.10
  -4  -6  -6   22.30    6.00
   4  -6   6   17.20    6.40
  -4  -6  -6   30.20    5.70
   4  -6   6   24.20    6.50
   4   6   6   19.30    6.70
   4   6   6   17.10    5.70
   4   6   6   29.00    6.70
  -4   6  -6   27.50    5.90
   4   6   6   30.90    6.70
  -4   6  -6   23.10    5.60
  -4   6  -6   19.70    5.10
   4   6   6   25.20    5.70
   4   6   6   30.60    6.20
   5  -6   6   -4.30    6.80
  -5  -6  -6   -4.60    6.10
   5  -6   6    5.90    6.70
  -5  -6  -6    4.90    4.00
  -5  -6  -6   -1.40    6.30
   5  -6   6    7.40    7.20
  -5  -6  -6    1.40    6.30
   5   6   6    8.20    5.80
   5   6   6    7.90    8.30
  -5   6  -6   -0.50    5.80
   5   6   6    2.60    6.00
   5   6   6   -3.20    5.60
   5   6   6    4.20    6.30
  -5   6  -6   -0.80    5.50
   6  -6   6  416.96   18.80
  -6  -6  -6  439.36   17.90
  -6  -6  -6  441.96   19.90
  -6  -6  -6  401.76   18.40
   6  -6   6  451.85   19.30
  -6  -6  -6  426.46   12.10
   6   6   6  445.56   17.20
   6   6   6  440.76   16.80
  -6   6  -6  411.56   17.10
   6   6   6  425.16   19.60
   6   6   6  458.85   18.30
   6   6   6  420.76   20.80
  -6   6  -6  467.85   16.90
  -6   6  -6  443.26   17.40
  -7  -6  -6   52.29   10.40
   7  -6   6   68.69   10.30
   7  -6   6   58.59    8.80
  -7  -6  -6   73.19    9.90
   7   6   6   57.19    9.60
  -7   6  -6   56.69    9.20
   7   6   6   62.39   10.80
   7   6   6   58.19    8.90
  -7   6  -6   35.90   11.50
   8  -6   6   31.20   11.80
   8  -6   6   58.19   10.20
  -8  -6  -6   43.50   11.60
   8   6   6   44.50   12.20
   8   6   6   43.60   10.50
   8   6   6   33.60   11.00
  -8   6  -6   59.29   10.90
 -10  -7   6   17.00    8.90
 -10  -7   6   38.20   10.20
 -10  -7   6   34.00    9.50
 -10  -7   6   25.50    9.20
 -10   7   6   12.70    8.80
 -10   7   6   20.80    8.70
 -10   7   6    7.90   10.80
 -10   7   6   15.50    9.70
  -9  -7   6  145.39   11.80
  -9  -7   6  211.38   13.90
  -9  -7   6  178.18   14.30
  -9  -7   6  183.78   15.10
  -9  -7   6  180.68   13.90
   9   7  -6  196.18   13.60
  -9   7   6  193.78   14.20
  -9   7   6  201.28   14.20
  -9   7   6  199.68   15.40
  -9   7   6  211.58   16.50
  -8  -7   6    3.20    6.00
  -8  -7   6    1.60    5.90
  -8  -7   6    9.50    7.20
  -8  -7   6    5.10    6.20
  -8  -7   6  -19.10    7.80
   8   7  -6   -0.50    6.00
  -8   7   6   -5.80    7.10
  -8   7   6    8.10    7.60
  -8   7   6    3.90    6.10
   8   7  -6  -16.00    7.20
  -8   7   6   -5.40    5.90
  -8   7   6   -4.10    6.30
  -7  -7   6   47.00    6.60
  -7  -7   6   43.40    6.20
  -7  -7   6   49.30    8.30
   7  -7  -6   38.80    5.20
  -7  -7   6   53.69    7.70
  -7  -7   6   49.30    6.70
  -7   7   6   44.40    6.70
  -7   7   6   32.10    6.70
   7   7  -6   34.40    6.30
  -7   7   6   42.60    6.70
   7   7  -6   37.80    6.30
  -7   7   6   38.50    7.60
  -7   7   6   33.80    7.00
  -7   7   6   52.69    8.00
   6  -7  -6  129.29    8.20
  -6  -7   6  144.39    9.70
  -6  -7   6  157.58   11.60
  -6  -7   6  126.19    9.50
  -6  -7   6  131.89   12.20
  -6   7   6  140.99   11.40
  -6   7   6  130.69   10.90
  -6   7   6  137.09    9.70
  -6   7   6  139.79    9.80
   6   7  -6  128.79    9.40
   6   7  -6  138.59    9.20
  -6   7   6  131.79   11.70
   6   7  -6  138.19    9.20
   6   7  -6  122.29   11.20
  -5  -7   6   68.19    6.50
  -5  -7   6   48.90    6.00
   5  -7  -6   53.69    6.90
  -5  -7   6   62.59    7.10
   5  -7  -6   55.39    5.90
  -5  -7   6   56.99    8.00
  -5   7   6   59.69    6.20
  -5   7   6   46.10    6.40
   5   7  -6   53.79    5.60
   5   7  -6   54.09    5.20
   5   7  -6   56.59    6.30
  -5   7   6   64.09    7.40
   5   7  -6   51.59    5.70
  -5   7   6   68.29    6.60
  -5   7   6   59.19    7.20
  -5   7   6   45.80    7.70
   4  -7  -6  420.06   13.30
   4  -7  -6  428.36   15.20
  -4  -7   6  430.56   14.60
  -4  -7   6  432.66   13.40
   4  -7  -6  428.26   13.90
  -4  -7   6  414.46   15.50
  -4  -7   6  457.45   15.50
   4  -7  -6  398.56   13.30
  -4  -7   6  460.75   13.50
  -4   7   6  419.46   13.30
   4   7  -6  418.86   13.40
  -4   7   6  402.46   16.80
  -4   7   6  440.96   13.40
   4   7  -6  404.76   13.00
   4   7  -6  430.96   11.30
   4   7  -6  459.45   13.00
  -4   7   6  449.46   14.60
  -4   7   6  413.56   14.70
   4   7  -6  437.36   12.80
  -4   7   6  438.56   14.50
  -3  -7   6   -6.50    5.80
   3  -7  -6    5.00    4.60
  -3  -7   6   -1.80    4.00
  -3  -7   6   -0.40    4.80
  -3  -7   6    6.20    4.30
  -3  -7   6    3.90    5.00
   3  -7  -6   -0.90    4.60
   3   7  -6    6.00    2.80
  -3   7   6    5.30    4.00
  -3   7   6   -0.20    4.70
   3   7  -6    1.00    6.40
  -3   7   6    2.70    4.50
  -3   7   6    6.70    5.20
  -3   7   6   -5.80   10.20
   3   7  -6    3.10    4.00
  -3   7   6   -0.90    4.10
   3   7  -6    0.50    3.90
   3   7  -6    2.30    5.80
  -3   7   6    3.70    5.00
   3   7  -6    3.90    5.00
  -2  -7   6   27.10    5.60
  -2  -7   6   29.30    4.80
   2  -7  -6   30.30    5.30
   2  -7  -6   30.10    5.60
  -2  -7   6   23.80    5.80
  -2  -7   6   32.30    5.10
  -2  -7   6   34.20    3.30
  -2   7   6   32.30    6.00
  -2   7   6   25.10    4.50
  -2   7   6   34.50    7.00
   2   7  -6   29.20    6.60
   2   7  -6   29.70    2.60
  -2   7   6   30.60    5.40
   2   7  -6   29.10    4.80
  -2   7   6   29.20    5.20
   2   7  -6   26.30    4.70
  -2   7   6   38.90    6.00
  -2   7   6   29.50    5.00
  -1  -7   6  428.06   13.20
  -1  -7   6  443.06   14.20
   1  -7  -6  438.56   13.70
  -1  -7   6  444.76   13.30
  -1  -7   6  437.26   11.40
   1  -7  -6  391.46   15.00
  -1  -7   6  457.95   14.80
   1   7  -6  461.35   15.70
  -1   7   6  442.26   13.30
  -1   7   6  454.05   14.30
  -1   7   6  462.35   14.70
  -1   7   6  454.85   13.10
  -1   7   6  440.36   14.40
   1   7  -6  447.86   13.00
  -1   7   6  461.85   14.70
  -1   7   6  438.76   13.50
   0  -7   6   65.89    6.10
   0  -7   6   68.59    7.20
   0  -7  -6   69.59    7.50
   0  -7   6   58.99    6.10
   0  -7  -6   78.79    6.90
   0  -7   6   64.19    5.30
   0  -7   6   65.29    6.80
   0  -7  -6   67.39    6.40
   0   7   6   61.29    6.10
   0   7  -6   70.19    6.70
   0   7   6   54.19    5.50
   0   7   6   68.59    5.60
   0   7   6   74.19    6.50
   0   7   6   68.39    6.80
   0   7   6   67.49    7.20
   0   7  -6   66.69    5.80
   0   7  -6   70.09    6.00
   1  -7   6  289.77   11.70
   1  -7   6  272.47   10.60
  -1  -7  -6  260.07    7.90
  -1  -7  -6  287.07   11.60
  -1  -7  -6  257.97   12.60
   1  -7   6  269.47   12.40
  -1  -7  -6  299.27   12.00
   1  -7   6  288.77   12.20
   1   7   6  301.47   12.80
   1   7   6  282.67   11.70
  -1   7  -6  275.57   11.70
   1   7   6  288.97   11.20
   1   7   6  263.77   10.10
   1   7   6  288.27   13.20
  -1   7  -6  289.47   11.30
   1   7   6  288.57   12.90
   1   7   6  305.77   11.50
   1   7   6  281.37   13.20
  -1   7  -6  292.57   11.20
  -1   7  -6  300.97   12.30
   2  -7   6   10.30    5.20
  -2  -7  -6    4.40    5.40
   2  -7   6   -7.50    4.90
  -2  -7  -6    6.90    5.60
   2  -7   6    6.70    5.60
  -2  -7  -6    4.10    3.70
   2  -7   6   -0.50    5.40
   2  -7   6   11.00    5.70
   2   7   6    7.60    6.10
  -2   7  -6    6.90    5.00
   2   7   6    0.80    4.70
   2   7   6    6.70    5.00
   2   7   6    5.20    4.30
   2   7   6    8.50    5.80
   2   7   6    6.10    4.80
  -2   7  -6   18.00    7.50
   2   7   6    4.80    6.10
  -2   7  -6   11.20    5.10
  -3  -7  -6   81.89    8.40
  -3  -7  -6   60.89    7.40
   3  -7   6   82.59    8.10
   3  -7   6   63.09    7.80
   3  -7   6   78.29    8.30
  -3  -7  -6   63.59    7.60
   3  -7   6   68.89    7.60
   3   7   6   55.19    8.60
   3   7   6   62.39    8.30
   3   7   6   69.69    7.40
   3   7   6   50.59    7.30
  -3   7  -6   63.09    6.70
   3   7   6   71.79    6.00
  -3   7  -6   58.29    8.10
   3   7   6   61.79    7.20
   3   7   6   82.69    7.60
  -3   7  -6   67.79    7.20
   4  -7   6  299.87   15.00
  -4  -7  -6  298.17   14.70
   4  -7   6  292.17   14.40
   4  -7   6  293.07   15.30
  -4  -7  -6  276.67   12.80
  -4  -7  -6  316.77   14.80
   4   7   6  297.67   14.10
   4   7   6  276.77   17.30
   4   7   6  312.27   13.70
   4   7   6  283.67   16.40
   4   7   6  320.87   13.90
   4   7   6  301.87   15.30
  -4   7  -6  309.37   13.30
  -4   7  -6  275.67   15.10
  -4   7  -6  299.37   13.70
  -5  -7  -6   21.70    5.40
  -5  -7  -6   10.00    7.90
   5  -7   6   31.80    8.70
   5  -7   6   24.50   12.30
  -5  -7  -6   11.40    8.10
   5  -7   6   14.00    9.50
   5   7   6   25.10   10.80
   5   7   6   24.80    7.40
  -5   7  -6    9.90    7.40
   5   7   6   11.10    7.70
   5   7   6    1.50    8.90
  -5   7  -6   18.20    7.00
   5   7   6   18.70    7.00
   5   7   6   33.20    7.80
   6  -7   6   46.40   10.30
  -6  -7  -6   36.90    9.50
  -6  -7  -6    6.00    9.70
   6  -7   6   34.30   14.00
  -6  -7  -6   34.00   10.40
   6   7   6   36.20    8.80
  -6   7  -6   25.00    8.30
   6   7   6   30.50    9.80
   6   7   6   19.80    8.90
   6   7   6   44.40    8.70
   7  -7   6   21.30   11.50
  -7  -7  -6   43.60   11.20
   7   7   6   28.10   10.30
   7   7   6   38.00   10.10
  -7   7  -6   48.60   10.60
   7   7   6   33.20   10.80
   7   7   6   42.90   12.60
  -9  -8   6   -6.10    9.10
  -9  -8   6  -11.20    8.60
  -9  -8   6   -4.90    9.90
  -9   8   6   -7.70    8.90
  -9   8   6    2.30    9.60
  -9   8   6    2.50    9.90
  -9   8   6   -3.30    8.60
  -8  -8   6   29.00    8.40
  -8  -8   6   20.90    9.40
  -8  -8   6   15.40    7.90
   8   8  -6   31.50    9.40
  -8   8   6   28.90    8.80
  -8   8   6   32.70   10.40
  -8   8   6   11.40    8.00
  -8   8   6   16.30    8.00
  -7  -8   6  136.59   12.50
   7  -8  -6  107.69   11.50
  -7  -8   6   94.09    8.90
  -7  -8   6  124.89   10.90
  -7   8   6  114.19   10.60
  -7   8   6  124.79   12.40
  -7   8   6  141.39   12.00
   7   8  -6  119.59   12.40
   7   8  -6  118.99   10.10
  -7   8   6  116.29    9.30
  -7   8   6  138.69   11.00
  -6  -8   6  113.89   11.00
  -6  -8   6  118.09   11.40
  -6  -8   6  103.29    9.40
   6  -8  -6  106.19   10.90
   6   8  -6  109.49   10.30
  -6   8   6  109.69   11.30
   6   8  -6  104.89    8.60
  -6   8   6  118.39   10.10
  -6   8   6  123.49   11.20
   6   8  -6   94.19    8.20
  -6   8   6  101.19   10.50
  -6   8   6  128.29   11.00
  -5  -8   6   38.10    6.90
  -5  -8   6   41.80    7.30
  -5  -8   6   47.30    6.60
  -5   8   6   48.80    7.00
   5   8  -6   49.99    6.80
  -5   8   6   41.00    8.00
  -5   8   6   38.30    8.00
  -5   8   6   33.70    6.50
   5   8  -6   29.00    5.50
  -5   8   6   33.00    8.30
   5   8  -6   35.20    6.90
  -4  -8   6   26.90    5.70
  -4  -8   6   21.60    6.90
  -4  -8   6   28.20    7.00
  -4  -8   6   21.60    5.70
   4   8  -6   28.10    5.90
  -4   8   6   29.70    6.20
  -4   8   6   23.80    6.10
   4   8  -6   22.70    5.30
  -4   8   6   28.50    7.50
  -4   8   6   40.20    7.80
  -4   8   6   21.50    6.90
  -4   8   6   31.00    7.80
  -3  -8   6   10.20    5.90
   3  -8  -6   -6.20    6.00
  -3  -8   6    6.10    6.20
  -3  -8   6    6.90    5.20
  -3  -8   6    3.10    5.20
  -3   8   6    8.60    5.30
   3   8  -6    3.40    3.40
   3   8  -6   -6.50    4.80
  -3   8   6    4.60    6.70
  -3   8   6    3.30    6.40
  -3   8   6   13.30    6.20
  -3   8   6    5.60    4.90
  -3   8   6    1.70    6.50
   2  -8  -6   56.59    8.00
  -2  -8   6   45.50    4.00
  -2  -8   6   46.10    7.10
  -2  -8   6   41.60    8.00
  -2  -8   6   29.40    6.50
  -2  -8   6   40.50    6.30
   2   8  -6   43.70    4.50
   2   8  -6   33.10    5.70
  -2   8   6   48.80    7.60
  -2   8   6   42.90    6.20
  -2   8   6   36.10    6.70
  -2   8   6   38.60    5.80
   2   8  -6   48.30    6.10
  -2   8   6   36.40    7.10
  -2   8   6   46.30    7.20
  -1  -8   6   81.69    7.90
   1  -8  -6   73.39    8.80
  -1  -8   6   82.09    7.90
  -1  -8   6   90.89    8.20
  -1  -8   6   86.39    7.60
   1  -8  -6   86.19    8.00
  -1  -8   6   85.89    7.40
   1  -8  -6   84.39    7.40
  -1   8   6   80.89    7.30
  -1   8   6   75.29    7.80
  -1   8   6   99.89    9.00
  -1   8   6   78.99    8.20
  -1   8   6   93.59    9.50
  -1   8   6   83.09    8.60
   1   8  -6   95.69    9.40
  -1   8   6   84.59    7.30
   1   8  -6   88.39    7.30
   0  -8   6  123.69    8.60
   0  -8   6  103.99   10.60
   0  -8  -6  137.19   11.40
   0  -8   6  120.49    9.50
   0  -8  -6   95.19    8.40
   0  -8   6  110.99   10.10
   0  -8   6  111.29   11.30
   0   8   6  112.49   10.30
   0   8   6  128.29   12.20
   0   8   6  108.79   10.40
   0   8  -6  113.19    9.90
   0   8   6  107.19    9.10
   0   8  -6  127.69    9.70
   0   8   6  111.99    9.40
   0   8   6  111.59   10.10
   0   8   6  118.79   10.00
  -1  -8  -6  104.39   11.00
   1  -8   6  104.89    9.70
   1  -8   6  114.29   11.60
  -1  -8  -6  109.39    6.30
   1  -8   6  122.99   11.50
   1  -8   6  110.59    9.20
   1  -8   6  123.89   11.40
  -1  -8  -6  121.59   10.90
   1   8   6  110.29   10.30
  -1   8  -6  114.09   10.20
   1   8   6  110.29   10.50
   1   8   6   91.89    8.00
   1   8   6   95.19    7.50
   1   8   6  136.19   13.70
  -1   8  -6  111.59   12.20
   1   8   6  109.99   10.10
   1   8   6   94.79    8.80
   2  -8   6   44.40    7.70
  -2  -8  -6   34.80    7.30
   2  -8   6   32.30    7.10
   2  -8   6   31.10    7.60
   2  -8   6   54.99    7.80
   2  -8   6   42.50    7.60
  -2  -8  -6   43.50    5.40
  -2  -8  -6   45.60    7.80
  -2   8  -6   47.90    7.10
   2   8   6   44.30    8.30
   2   8   6   35.50    6.30
  -2   8  -6   38.50    7.10
   2   8   6   36.80    8.80
   2   8   6   34.80    7.30
   2   8   6   59.29    7.60
   2   8   6   36.10    9.00
   2   8   6   35.10    6.20
   3  -8   6    1.90    6.90
  -3  -8  -6   11.50    7.70
  -3  -8  -6    6.20    5.80
   3  -8   6  -10.80    7.90
   3  -8   6    3.10    7.90
   3  -8   6    3.70    7.60
  -3  -8  -6   15.50    7.30
   3   8   6   -7.50    6.00
   3   8   6   -0.60    5.90
   3   8   6    6.10    6.60
   3   8   6    9.70    6.90
   3   8   6    2.50    7.80
   3   8   6   -0.50    9.40
  -3   8  -6    8.30    6.30
   3   8   6  -10.40    7.70
  -3   8  -6    4.60    7.00
   4  -8   6   24.30   10.00
   4  -8   6   16.10    8.70
  -4  -8  -6   15.40    8.00
  -4  -8  -6    4.40    8.90
   4   8   6   10.80    7.80
   4   8   6   16.30   14.10
   4   8   6    9.40    7.70
   4   8   6   11.90    7.20
  -4   8  -6    1.00    9.10
  -4   8  -6   16.40    7.70
   4   8   6    5.10    7.70
   5  -8   6    8.80   16.80
  -5  -8  -6   19.50    9.40
   5  -8   6    9.40    9.90
  -5  -8  -6    7.60    7.10
   5   8   6   11.90    8.90
   5   8   6    9.60    8.90
  -5   8  -6   -0.50    8.10
   5   8   6    4.20    8.40
   5   8   6   17.50    8.80
   6  -8   6   26.70   12.10
  -6  -8  -6   17.00   11.50
   6   8   6   28.80   10.80
   6   8   6   20.00   10.10
   6   8   6   34.20   11.20
   6   8   6   28.70   10.00
  -6   8  -6   18.80   10.60
  -8  -9   6   44.70   10.10
  -8   9   6   44.50   11.10
  -8   9   6   47.20   10.90
  -8   9   6   41.50   16.20
  -7  -9   6   61.29    9.80
  -7  -9   6   38.00   10.60
  -7  -9   6   54.09    9.30
  -7   9   6   36.80    9.20
  -7   9   6   27.70   10.80
  -7   9   6   51.49    9.70
  -7   9   6   50.59   10.50
  -6  -9   6    2.10    8.20
  -6  -9   6   14.30    7.80
  -6  -9   6    3.70    8.50
  -6   9   6   23.70    9.20
   6   9  -6   17.40    8.30
  -6   9   6   22.00    8.30
  -6   9   6    6.10    8.00
  -5  -9   6    2.30    7.20
  -5  -9   6    7.60    9.20
   5  -9  -6    8.90    8.20
  -5  -9   6    5.60    7.30
  -5  -9   6   -1.00    7.60
  -5   9   6  -11.60   10.40
   5   9  -6    7.70    7.40
  -5   9   6   -1.00    8.20
  -5   9   6    4.80    7.10
  -5   9   6    4.30    7.30
  -4  -9   6   15.00    7.00
  -4  -9   6    3.60    6.60
  -4  -9   6   19.10    7.70
  -4  -9   6   17.70    8.60
  -4   9   6   15.30    9.40
  -4   9   6   12.00    8.10
  -4   9   6    5.00    6.80
  -4   9   6    5.60    6.90
   4   9  -6   16.50    7.20
  -3  -9   6  201.78   15.00
  -3  -9   6  207.68   15.00
  -3   9   6  182.88   16.80
   3   9  -6  202.18   13.60
   3   9  -6  173.78   13.00
  -3   9   6  205.98   14.50
  -3   9   6  166.68   16.30
  -3   9   6  205.78   13.10
  -3   9   6  228.18   13.50
  -2  -9   6   69.09    9.30
  -2  -9   6   73.79    9.00
  -2  -9   6   74.49    9.40
  -2  -9   6   57.39    8.40
  -2  -9   6   66.29    6.50
  -2   9   6   57.39    9.60
   2   9  -6   75.79    8.10
  -2   9   6   65.59   11.50
   2   9  -6   54.69    8.00
  -2   9   6   69.09    9.30
  -2   9   6   59.89    8.10
  -2   9   6   74.29   10.30
  -2   9   6   66.59    8.40
  -1  -9   6   33.90    8.00
  -1  -9   6   42.20    8.40
  -1  -9   6   47.90    5.80
  -1  -9   6   40.80    8.60
   1  -9  -6   47.00    7.50
  -1  -9   6   32.80    7.80
   1  -9  -6   37.10    7.90
  -1   9   6   30.60    7.10
  -1   9   6   45.80    7.70
   1   9  -6   52.49    7.70
  -1   9   6   34.50    7.90
  -1   9   6   34.70   10.00
   1   9  -6   51.89    7.50
  -1   9   6   43.10    9.60
  -1   9   6   38.70    8.00
  -1   9   6   38.80    8.50
   0  -9  -6   16.00    7.10
   0  -9   6   15.40    7.50
   0  -9   6   19.60    6.10
   0  -9  -6   17.00    7.90
   0  -9   6   20.10    8.70
   0  -9   6   20.50    8.20
   0   9   6   18.30    7.60
   0   9   6   37.80   10.20
   0   9  -6   28.80    7.30
   0   9  -6   21.40    6.80
   0   9   6   15.90    6.80
   0   9   6   14.00    7.40
   0   9   6   18.60    7.40
   0   9   6   24.20    7.90
   1  -9   6   69.39    8.20
   1  -9   6   82.29   10.00
  -1  -9  -6   72.69    9.80
  -1  -9  -6   71.19    5.20
   1  -9   6   71.39    9.90
   1  -9   6   76.89   10.00
  -1  -9  -6   54.19    8.70
   1   9   6   70.49    8.90
  -1   9  -6   77.29    8.80
   1   9   6   72.59    9.40
   1   9   6   71.09    8.70
   1   9   6   48.60   10.80
  -1   9  -6   64.59   10.60
   1   9   6   81.29    9.20
   1   9   6   86.49    9.60
  -2  -9  -6  145.59   14.40
   2  -9   6  159.98   15.40
   2  -9   6  120.49   11.30
   2  -9   6  104.19   10.60
   2  -9   6  134.59   11.70
  -2  -9  -6  127.99   11.40
   2   9   6  112.99    9.90
   2   9   6  101.09   13.70
   2   9   6  124.89   10.30
   2   9   6  136.49   13.80
  -2   9  -6  131.39   13.70
   2   9   6  128.59   10.20
   2   9   6  134.59   12.10
  -3  -9  -6   37.10    9.50
   3  -9   6   27.80   10.20
   3   9   6   14.40    8.50
   3   9   6   31.10   10.80
   3   9   6   13.20    8.30
   3   9   6   30.40    9.10
  -3   9  -6   45.20    9.40
   4  -9   6    7.70   10.50
  -4  -9  -6   16.10   10.20
   4   9   6    9.70    9.40
   4   9   6   -0.10   10.70
   4   9   6   19.30    9.70
  -4   9  -6   24.20    9.60
   4   9   6    8.10    8.80
  -5  -9  -6   78.39   13.40
   5  -9   6   52.49   13.20
  -5   9  -6   66.49   12.00
   5   9   6   46.30   11.60
   5   9   6   65.99   11.80
  -6 -10   6    9.20   10.90
  -6  10   6   16.90   10.30
  -5 -10   6   53.19   10.40
  -5 -10   6   68.49   11.90
  -5 -10   6   47.60   11.70
  -5 -10   6   46.60   10.50
  -5  10   6   40.60    9.80
  -5  10   6   53.29   11.50
  -5  10   6   59.89   10.60
  -4 -10   6   22.50    9.40
  -4 -10   6   -1.70    9.90
  -4 -10   6   14.00   10.70
  -4  10   6    5.40    9.10
   4  10  -6   -8.10   10.50
  -4  10   6    0.60   10.30
  -4  10   6   10.80    9.40
  -3 -10   6   19.30   10.20
  -3 -10   6   20.10    9.30
   3  10  -6   15.90    9.00
  -3  10   6   13.20    8.60
  -3  10   6   18.30   10.20
  -3  10   6   21.00    9.10
  -2 -10   6  128.99   13.00
  -2 -10   6  114.09   11.70
  -2  10   6  135.69   12.40
  -2  10   6  118.09   11.70
  -2  10   6  100.69   10.80
   2  10  -6  102.29   10.90
  -1 -10   6   17.50   10.10
  -1 -10   6   22.40   10.10
   1 -10  -6   26.50    9.40
  -1  10   6   30.50    9.20
  -1  10   6   11.80    8.50
  -1  10   6   19.80    9.50
   1  10  -6   21.50    8.90
   0 -10  -6  137.39   12.20
   0 -10   6  146.89   12.80
   0 -10   6  116.09   12.40
   0  10  -6  127.89   11.40
   0  10   6  104.39   11.20
   0  10   6  130.79   11.40
   0  10   6  122.79   11.70
   1 -10   6   43.90   11.10
  -1 -10  -6   20.00   10.10
   1 -10   6   23.70   10.90
   1  10   6   10.10    8.70
   1  10   6   30.60   10.70
   1  10   6   18.60    9.60
  -1  10  -6   10.50   11.70
   1  10   6   29.50    9.80
   2 -10   6   -0.90   10.30
   2 -10   6   32.20   10.70
  -2 -10  -6   36.30   10.90
  -2  10  -6   22.00   10.50
   2  10   6   18.10   12.20
   2  10   6   12.90   10.20
   2  10   6   -6.50    9.70
   2  10   6    4.10    9.60
   3 -10   6   35.30   12.80
  -3 -10  -6   25.20   11.70
  -3  10  -6   36.60   12.70
   3  10   6   36.70   11.70
   3  10   6   21.00   11.10
 -13   0   7  147.19   20.50
 -13   0   7  148.19   15.10
 -13   0   7  148.49   14.20
 -13   0   7  158.58   14.60
 -12   0   7   11.90    6.70
 -12   0   7   24.20    8.30
 -12   0   7    7.80    6.30
 -11   0   7   58.09    8.00
 -11   0   7   62.69    6.60
 -11   0   7   56.69    6.30
  11   0  -7   64.59    7.00
 -11   0   7   44.60    9.90
 -10   0   7   51.89    6.40
 -10   0   7   86.19    8.60
  10   0  -7   44.40    5.30
 -10   0   7   45.90    5.40
  10   0  -7   46.30    5.40
 -10   0   7   46.30    5.30
 -10   0   7   40.90    4.90
  -9   0   7  224.68    8.40
   9   0  -7  211.88    7.70
  -9   0   7  210.78    8.40
  -9   0   7  216.48   10.00
  -9   0   7  225.38    8.10
  -9   0   7  202.98   11.30
   9   0  -7  218.78    8.50
   9   0  -7  210.48    7.60
  -8   0   7    7.40    3.70
  -8   0   7    2.40    2.60
   8   0  -7    1.60    2.40
   8   0  -7    4.20    2.40
  -8   0   7   -0.60    2.70
   8   0  -7    5.40    3.30
  -8   0   7    7.50    3.20
   7   0  -7  102.59    3.40
  -7   0   7  107.99    5.60
  -7   0   7  108.69    6.60
  -7   0   7   94.79    4.70
  -7   0   7  101.99    4.60
   7   0  -7   80.39    6.00
  -6   0   7  631.24   14.70
  -6   0   7  591.54   12.20
   6   0  -7  602.94   11.50
  -6   0   7  624.24   12.00
  -6   0   7  605.14   12.50
  -6   0   7  614.64   13.70
  -5   0   7  811.02   15.60
  -5   0   7  854.01   17.60
  -5   0   7  850.51   18.10
  -5   0   7  841.12   16.40
  -4   0   7   92.69    4.20
  -4   0   7   96.69    5.00
  -4   0   7   89.49    4.70
  -4   0   7   98.99    5.00
  -3   0   7   43.60    3.90
  -3   0   7   48.40    3.60
  -3   0   7   41.90    3.80
  -3   0   7   43.60    4.00
  -3   0   7   51.29    4.00
  -2   0   7   25.10    2.80
  -2   0   7   17.50    2.50
  -2   0   7   17.30    2.30
  -1   0   7  510.05   10.00
  -1   0   7  504.65   10.50
  -1   0   7  501.85    9.80
  -1   0   7  493.15   11.60
  -1   0   7  511.65   11.90
   0   0  -7   -0.70    2.40
   0   0   7    2.70    2.40
   0   0   7    3.80    1.80
   0   0   7    1.80    1.60
   0   0   7    0.00    2.00
   0   0  -7    0.00    1.50
   0   0   7    0.10    2.30
   0   0  -7   -0.50    1.30
  -1   0  -7  771.92   15.40
   1   0   7  736.83   15.60
   1   0   7  745.83   15.40
  -1   0  -7  739.23   16.60
  -1   0  -7  779.62   15.30
   1   0   7  745.83   16.80
   1   0   7  747.63   16.70
   1   0   7  740.93   15.50
  -2   0  -7    6.10    3.00
   2   0   7    6.90    3.30
   2   0   7    4.60    3.10
   2   0   7    6.70    2.70
   2   0   7   10.90    2.60
  -2   0  -7    9.90    2.60
  -2   0  -7    4.80    2.50
   2   0   7    8.50    2.60
  -3   0  -7    4.80    2.80
   3   0   7    1.30    2.40
  -3   0  -7   -1.80    2.50
   3   0   7    3.50    2.90
  -3   0  -7   -1.10    3.20
   3   0   7    0.90    3.00
   3   0   7    3.40    3.50
   3   0   7   -3.20    2.90
   4   0   7  806.62   18.50
   4   0   7  822.92   19.50
   4   0   7  698.23   21.10
  -4   0  -7  858.71   18.50
  -4   0  -7  821.62   19.40
   4   0   7  812.02   18.90
  -4   0  -7  702.33   18.10
   4   0   7  833.02   18.50
   5   0   7  249.18   11.30
   5   0   7  224.68   10.20
  -5   0  -7  220.78    9.60
  -5   0  -7  235.18    9.80
   5   0   7  235.38   10.30
   5   0   7  220.68   10.30
   5   0   7  216.58    8.60
   6   0   7   15.10    4.60
  -6   0  -7   19.30    5.30
   6   0   7   14.20    5.10
  -6   0  -7   17.70    5.20
   6   0   7   11.10    5.70
   6   0   7   12.10    5.40
   6   0   7   17.80    6.40
  -6   0  -7    4.60    6.50
   7   0   7   67.69    8.80
   7   0   7   45.90    7.50
   7   0   7   79.59    8.00
   7   0   7   50.09    8.20
   7   0   7   63.69    6.90
  -7   0  -7   69.19    7.60
  -7   0  -7   62.09    7.40
  -8   0  -7    8.40    7.80
   8   0   7  -19.20    9.30
   8   0   7    7.90    9.00
   8   0   7   -1.50    6.70
   8   0   7   -6.10    7.40
  -8   0  -7    2.90    6.90
   9   0   7  133.59   11.70
  -9   0  -7  138.89   12.10
   9   0   7  117.79   14.00
 -13  -1   7    3.20    8.30
 -13  -1   7    5.10   11.20
 -13   1   7   -5.40    8.40
 -12  -1   7   35.00    7.10
 -12  -1   7   56.59    9.50
 -12  -1   7   54.19   10.00
 -12  -1   7   41.00    7.40
 -12   1   7   50.69    8.70
 -12   1   7   32.00    7.30
 -12   1   7   42.30    7.40
 -11  -1   7   78.49    8.20
 -11  -1   7   64.99    6.50
 -11  -1   7   70.99    7.00
 -11  -1   7   53.89    8.60
  11   1  -7   67.79    6.20
 -11   1   7   61.29    9.50
 -11   1   7   59.09    8.20
 -11   1   7   53.49    6.30
 -11   1   7   72.49    7.20
 -11   1   7   62.69    6.60
  10  -1  -7   80.79    7.20
 -10  -1   7   71.19    7.30
 -10  -1   7   75.49    7.80
 -10  -1   7   76.59    9.60
 -10  -1   7   80.89    7.30
 -10  -1   7   76.49    6.10
  10  -1  -7   75.89    6.10
  10   1  -7   65.79    6.70
 -10   1   7   68.29    7.10
 -10   1   7   70.59    5.90
 -10   1   7   80.29    7.60
 -10   1   7   84.39    8.00
 -10   1   7   75.99    7.80
  10   1  -7   77.89    6.20
  -9  -1   7  205.38    7.30
   9  -1  -7  191.88    9.10
   9  -1  -7  204.08    7.70
  -9  -1   7  204.88   10.90
   9  -1  -7  194.68    7.70
  -9  -1   7  200.88    8.20
  -9  -1   7  176.98    9.70
  -9  -1   7  200.68    7.80
  -9   1   7  197.98   10.10
  -9   1   7  207.78    8.80
  -9   1   7  205.98   10.70
   9   1  -7  194.78    7.50
  -9   1   7  187.08    8.20
  -9   1   7  201.18    8.00
   9   1  -7  200.48    7.70
  -8  -1   7  303.97   11.40
  -8  -1   7  293.97    8.70
  -8  -1   7  289.07    8.50
  -8  -1   7  291.77    8.30
  -8  -1   7  291.07   10.30
   8  -1  -7  297.07    9.90
   8  -1  -7  296.57    8.10
  -8   1   7  295.37   10.60
   8   1  -7  293.37    7.50
  -8   1   7  292.17    8.60
  -8   1   7  296.07    8.80
   8   1  -7  305.67    8.00
  -8   1   7  301.37    9.80
  -8   1   7  302.67   10.50
   8   1  -7  291.17    7.60
  -7  -1   7  755.92   15.50
   7  -1  -7  776.72   14.90
  -7  -1   7  759.02   17.50
  -7  -1   7  752.92   14.40
   7  -1  -7  762.52   17.20
  -7  -1   7  770.12   18.40
  -7  -1   7  750.12   14.70
  -7  -1   7  771.02   15.80
   7  -1  -7  762.72   15.30
  -7  -1   7  761.32   15.80
   7   1  -7  674.53   15.90
  -7   1   7  759.92   17.10
   7   1  -7  766.12   14.40
  -7   1   7  759.92   15.70
  -7   1   7  784.82   18.00
  -7   1   7  765.72   15.90
   7   1  -7  769.52   14.50
  -6  -1   7  601.44   12.40
  -6  -1   7  610.24   14.30
  -6  -1   7  601.84   12.20
  -6  -1   7  611.04   15.10
   6  -1  -7  599.54   11.90
  -6  -1   7  609.84   12.10
  -6  -1   7  603.84   12.90
  -6   1   7  600.74   12.40
  -6   1   7  597.64   12.30
  -6   1   7  597.64   12.50
   6   1  -7  609.14   11.50
  -6   1   7  628.14   14.80
   6   1  -7  581.64   11.30
  -6   1   7  599.74   14.10
  -6   1   7  576.04   12.30
  -5  -1   7   87.79    3.10
  -5  -1   7   86.99    4.00
  -5  -1   7   95.69    5.20
  -5  -1   7   97.49    6.00
  -5  -1   7   84.09    4.30
  -5   1   7   86.19    3.90
  -5   1   7   77.09    3.20
  -5   1   7   86.09    3.30
  -5   1   7   83.09    3.10
  -5   1   7   86.59    5.40
  -5   1   7   85.09    5.40
  -5   1   7   85.99    3.50
  -4  -1   7  916.31   18.10
  -4  -1   7  876.91   18.40
  -4  -1   7  912.91   19.10
  -4  -1   7  906.31   18.00
  -4   1   7  921.71   19.20
  -4   1   7  879.91   16.70
  -4   1   7  904.51   17.90
  -4   1   7  901.11   18.00
  -4   1   7  881.71   16.60
  -4   1   7  896.41   18.90
  -3  -1   7  551.24   12.20
  -3  -1   7  538.55   12.10
  -3  -1   7  539.55   12.40
  -3  -1   7  543.25   11.90
  -3  -1   7  541.35   12.80
  -3   1   7  554.34   10.40
  -3   1   7  548.65   12.90
  -3   1   7  576.74   12.20
  -3   1   7  533.05   11.60
  -3   1   7  532.15   10.20
  -2  -1   7  213.58    6.40
  -2  -1   7  208.68    5.90
  -2  -1   7  215.48    7.00
  -2  -1   7  210.78    6.70
  -2   1   7  214.38    6.10
  -2   1   7  211.08    4.90
  -2   1   7  212.18    4.60
  -2   1   7  216.38    4.90
  -2   1   7  210.88    7.10
  -2   1   7  215.18    6.70
  -1  -1   7  445.66    8.80
  -1  -1   7  442.56    9.90
  -1  -1   7  461.65   11.20
  -1  -1   7  454.15   11.00
   1  -1  -7  451.45    8.90
  -1  -1   7  448.26    9.00
  -1   1   7  437.26    9.20
  -1   1   7  442.86    9.30
  -1   1   7  436.76    9.20
  -1   1   7  441.86    9.20
  -1   1   7  436.66   10.10
  -1   1   7  453.95   11.00
  -1   1   7  447.36    9.30
   0  -1  -7  358.86    9.20
   0  -1  -7  352.86    7.90
   0  -1   7  357.26    9.90
   0  -1   7  355.76    8.00
   0  -1   7  361.66    9.80
   0  -1   7  358.46    8.10
   0  -1   7  374.36    8.30
   0   1  -7  367.06    7.90
   0   1   7  373.56    9.90
   0   1   7  354.06    8.30
   0   1  -7  366.56    7.60
   0   1  -7  363.56    7.60
   0   1   7  367.46    9.20
   0   1   7  362.56    8.60
  -1  -1  -7 1421.86   27.90
   1  -1   7 1420.16   27.00
   1  -1   7 1395.96   27.30
   1  -1   7 1394.06   26.50
   1  -1   7 1422.46   28.60
  -1  -1  -7 1429.06   27.00
   1  -1   7 1434.66   28.60
   1  -1   7 1424.76   26.10
  -1  -1  -7 1409.76   27.20
   1   1   7 1434.06   28.00
   1   1   7 1429.06   27.20
   1   1   7 1397.16   27.30
  -1   1  -7 1406.36   26.90
  -1   1  -7 1436.16   28.70
   1   1   7 1412.76   28.60
  -1   1  -7 1424.16   26.80
   1   1   7 1425.86   27.90
   2  -1   7  920.01   20.70
   2  -1   7  950.70   19.40
   2  -1   7  920.51   18.30
  -2  -1  -7  853.71   21.30
  -2  -1  -7  959.10   19.40
  -2  -1  -7  958.50   19.50
   2  -1   7  959.90   19.50
   2  -1   7  934.61   20.50
   2   1   7  933.51   19.60
  -2   1  -7  959.50   19.20
   2   1   7  941.21   20.30
   2   1   7  908.01   20.50
  -2   1  -7  966.00   20.80
  -2   1  -7  957.30   19.30
   2   1   7  954.70   19.50
   2   1   7  941.51   19.60
   3  -1   7  113.59    6.30
  -3  -1  -7  116.79    6.90
   3  -1   7  108.79    6.40
   3  -1   7  113.09    6.80
   3  -1   7  115.49    4.90
  -3  -1  -7  119.79    6.30
   3  -1   7  117.29    7.50
  -3  -1  -7  110.19    6.20
  -3   1  -7  115.09    7.30
   3   1   7  123.09    6.40
   3   1   7  108.99    6.10
   3   1   7  111.69    7.20
   3   1   7  111.69    6.50
  -3   1  -7  113.99    5.80
  -3   1  -7  115.19    6.10
   3   1   7  118.09    6.90
   4  -1   7  223.98    8.90
  -4  -1  -7  233.98    9.70
   4  -1   7  224.78    9.30
   4  -1   7  235.08   10.10
   4  -1   7  232.58    9.10
   4  -1   7  219.18    7.10
  -4  -1  -7  217.88    8.80
  -4  -1  -7  234.58    8.90
  -4   1  -7  235.48    8.90
  -4   1  -7  228.58   10.30
   4   1   7  229.98    9.10
   4   1   7  227.48    9.10
   4   1   7  220.88    8.30
   4   1   7  213.88    9.20
   4   1   7  220.98    9.80
   5  -1   7   65.79    6.40
   5  -1   7   53.29    4.40
   5  -1   7   64.99    6.10
  -5  -1  -7   51.39    5.60
   5  -1   7   49.90    5.60
  -5  -1  -7   64.49    5.90
   5  -1   7   45.10    6.10
   5   1   7   72.89    6.80
   5   1   7   59.09    6.10
  -5   1  -7   52.09    5.50
  -5   1  -7   59.79    5.80
   5   1   7   60.09    5.60
   5   1   7   54.49    6.00
  -5   1  -7   68.39    8.40
   6  -1   7  138.39    9.60
  -6  -1  -7  120.09   11.50
   6  -1   7  132.49   11.30
   6  -1   7  130.69   10.40
   6  -1   7  140.49   10.80
  -6  -1  -7  132.29    9.50
   6  -1   7  123.69    7.80
  -6  -1  -7  123.79    9.60
  -6   1  -7  130.49    9.70
   6   1   7  133.69   11.00
   6   1   7  121.19   11.20
  -6   1  -7  109.09   11.70
   6   1   7  120.29   10.60
   6   1   7  128.39    9.70
   6   1   7  130.59    9.50
  -6   1  -7  129.49    9.50
   7  -1   7  108.29   10.60
   7  -1   7  115.49    9.40
  -7  -1  -7  114.29    8.80
   7  -1   7  120.69   10.60
   7  -1   7  120.69    9.70
  -7  -1  -7  117.49   11.30
   7  -1   7  102.39    9.20
   7   1   7  129.59   12.80
   7   1   7  118.29   10.70
   7   1   7  115.29    8.70
  -7   1  -7   99.09    5.20
  -7   1  -7  127.69   10.80
   7   1   7  124.19   10.70
   7   1   7  112.69    9.90
  -7   1  -7   99.89    8.40
   8  -1   7   74.69   10.90
   8  -1   7   57.89   10.20
  -8  -1  -7   69.19    9.20
   8  -1   7   53.89    8.00
   8  -1   7   72.99    7.80
  -8   1  -7   49.50    9.10
   8   1   7   66.79    9.00
   8   1   7   80.59   11.30
   8   1   7   87.29   10.80
  -8   1  -7   53.29    8.90
  -9  -1  -7  106.89   11.70
   9  -1   7   89.89   13.30
   9  -1   7   68.49   10.10
  -9   1  -7   84.99   10.80
   9   1   7   95.39   11.20
 -13  -2   7   14.50   16.80
 -13  -2   7   27.30    9.10
 -13   2   7   20.60    8.60
 -12  -2   7   18.00    8.60
 -12  -2   7   20.60    7.30
 -12  -2   7   37.40    9.80
 -12  -2   7   16.00    7.00
 -12   2   7   20.10    8.80
 -12   2   7   35.40    7.40
 -12   2   7   28.30    7.30
 -12   2   7   21.90    7.70
  11  -2  -7   76.89    9.80
 -11  -2   7  116.09    9.50
 -11  -2   7   92.39    7.90
 -11  -2   7   99.69    9.80
 -11  -2   7   67.29    9.20
 -11   2   7   90.49    7.40
 -11   2   7   84.79    8.30
 -11   2   7  101.79    9.10
 -11   2   7   92.59    9.50
 -11   2   7   90.99    7.50
 -10  -2   7  119.99   11.70
 -10  -2   7  121.29    8.50
  10  -2  -7  133.69    9.00
 -10  -2   7  121.79   10.60
 -10  -2   7  124.09    8.80
 -10   2   7  126.99    8.70
  10   2  -7  113.19    8.70
 -10   2   7  133.19    9.50
 -10   2   7  132.89   10.90
 -10   2   7  126.79   10.90
 -10   2   7  124.79    8.50
  10   2  -7  125.29    7.50
  -9  -2   7  330.37   10.10
  -9  -2   7  313.67   10.40
  -9  -2   7  309.87   13.00
   9  -2  -7  302.77    9.80
  -9  -2   7  314.07   12.50
   9  -2  -7  331.17   12.10
  -9   2   7  313.07   10.20
   9   2  -7  307.37    9.50
  -9   2   7  341.57   11.50
   9   2  -7  320.47    9.00
   9   2  -7  287.57   13.10
  -9   2   7  329.17   10.30
  -9   2   7  329.37   12.30
  -9   2   7  332.57   11.70
   9   2  -7  299.27    9.50
   8  -2  -7  143.19    6.20
  -8  -2   7  129.69   10.90
  -8  -2   7  139.89    4.90
  -8  -2   7  145.09    6.40
  -8  -2   7  152.88    6.70
   8  -2  -7  146.09    8.20
  -8  -2   7  155.18    8.10
  -8   2   7  138.59   12.70
  -8   2   7  136.59    8.40
   8   2  -7  145.39    6.60
  -8   2   7  149.79    8.10
  -8   2   7  145.09    6.60
   8   2  -7  137.59    5.50
  -8   2   7  136.79    8.70
   8   2  -7  152.08    5.90
   7  -2  -7  256.27    6.80
   7  -2  -7  243.58    7.00
  -7  -2   7  260.77   10.10
  -7  -2   7  246.08    7.50
  -7  -2   7  241.68    7.20
  -7  -2   7  252.47    7.20
   7  -2  -7  248.78    9.20
  -7  -2   7  252.07    6.30
  -7  -2   7  262.37    9.00
  -7   2   7  229.68    7.70
   7   2  -7  248.78    6.60
   7   2  -7  258.77    6.80
  -7   2   7  245.38    8.20
  -7   2   7  252.07    7.50
  -7   2   7  236.28    9.00
  -7   2   7  249.08    7.60
   7   2  -7  242.48    6.10
   7   2  -7  251.17    6.20
  -7   2   7  259.47    9.70
  -6  -2   7  722.73   14.80
   6  -2  -7  738.93   14.40
  -6  -2   7  732.63   15.00
  -6  -2   7  762.12   17.60
   6  -2  -7  636.64   15.40
   6  -2  -7  754.22   17.20
  -6  -2   7  752.42   16.50
  -6  -2   7  739.13   14.50
  -6   2   7  738.13   17.00
  -6   2   7  748.73   15.30
   6   2  -7  754.92   14.30
  -6   2   7  737.73   15.60
  -6   2   7  736.23   14.30
  -6   2   7  774.42   15.50
  -6   2   7  736.33   15.10
   6   2  -7  743.53   14.10
  -6   2   7  724.13   15.30
  -6   2   7  757.12   17.40
  -5  -2   7   31.30    3.90
  -5  -2   7   31.60    2.90
  -5  -2   7   26.80    3.20
  -5  -2   7   30.80    2.60
   5  -2  -7   27.10    2.70
  -5  -2   7   29.90    2.60
  -5   2   7   28.60    2.40
  -5   2   7   26.50    2.70
  -5   2   7   27.60    2.50
  -5   2   7   28.60    2.60
  -5   2   7   36.30    4.20
  -5   2   7   38.50    4.20
  -5   2   7   30.80    2.80
  -4  -2   7   31.50    2.70
  -4  -2   7   26.10    3.50
  -4  -2   7   28.30    2.90
  -4  -2   7   22.60    2.30
  -4   2   7   41.50    2.90
  -4   2   7   29.60    2.50
  -4   2   7   25.00    3.40
  -4   2   7   28.30    2.70
  -4   2   7   28.30    2.90
  -4   2   7   31.50    2.90
  -4   2   7   31.20    2.90
  -3  -2   7  308.57    8.80
  -3  -2   7  302.47    9.40
  -3  -2   7  321.27    7.70
  -3  -2   7  314.37    7.80
  -3   2   7  318.57    7.40
  -3   2   7  310.07    7.10
  -3   2   7  308.77    8.30
  -3   2   7  308.87    6.90
  -3   2   7  306.47    7.00
  -3   2   7  315.47    7.00
  -3   2   7  314.07    9.20
  -2  -2   7 1519.15   28.20
  -2  -2   7 1530.75   30.40
  -2  -2   7 1505.85   29.40
  -2  -2   7 1521.95   27.80
  -2   2   7 1548.05   29.70
  -2   2   7 1555.34   28.50
  -2   2   7 1536.05   30.40
  -2   2   7 1525.95   28.30
  -2   2   7 1521.25   28.20
  -2   2   7 1505.35   28.10
  -2   2   7 1522.15   28.10
  -1  -2   7 1844.82   35.60
  -1  -2   7 1816.52   34.30
  -1  -2   7 1845.42   33.40
  -1  -2   7 1855.71   33.10
   1  -2  -7 1820.42   33.20
  -1  -2   7 1798.72   33.20
  -1   2   7 1872.11   35.10
  -1   2   7 1826.42   33.90
  -1   2   7 1817.12   33.40
  -1   2   7 1820.92   33.60
   1   2  -7 1770.52   32.90
   1   2  -7 1805.92   32.80
  -1   2   7 1815.22   33.70
  -1   2   7 1812.72   33.60
  -1   2   7 1808.82   35.60
  -1   2   7 1808.82   33.70
   0  -2  -7  704.93   14.70
   0  -2  -7  701.73   14.80
   0  -2   7  703.43   13.50
   0  -2   7  724.43   14.60
   0  -2  -7  725.93   14.50
   0  -2  -7  724.53   16.00
   0  -2   7  717.03   14.80
   0  -2   7  717.03   16.40
   0  -2   7  707.73   14.40
   0   2  -7  731.43   14.00
   0   2   7  701.43   14.70
   0   2   7  729.43   16.20
   0   2  -7  718.53   14.30
   0   2   7  694.93   15.10
   0   2   7  699.13   14.80
   0   2  -7  701.63   13.90
   0   2   7  710.43   14.90
  -1  -2  -7  374.36    9.30
   1  -2   7  386.76    9.30
   1  -2   7  378.06   11.00
   1  -2   7  358.66    9.10
  -1  -2  -7  301.67   12.20
   1  -2   7  367.36    7.50
   1  -2   7  376.26   10.50
   1  -2   7  374.26    8.80
  -1  -2  -7  383.36    9.50
  -1   2  -7  378.36    8.60
   1   2   7  356.26   10.50
   1   2   7  375.46    9.90
  -1   2  -7  359.86   10.90
   1   2   7  380.76    9.60
   1   2   7  363.96    9.60
  -1   2  -7  379.86    8.70
  -1   2  -7  376.96    8.80
  -1   2  -7  369.66    9.00
   2  -2   7  602.44   13.70
  -2  -2  -7  605.74   13.90
  -2  -2  -7  609.84   14.10
   2  -2   7  582.24   11.50
   2  -2   7  592.74   14.80
   2  -2   7  585.54   15.10
   2  -2   7  594.34   13.60
  -2  -2  -7  591.04   13.80
  -2   2  -7  594.94   15.30
  -2   2  -7  602.14   13.60
   2   2   7  584.34   14.30
   2   2   7  600.34   14.90
   2   2   7  591.14   14.20
   2   2   7  578.94   13.90
  -2   2  -7  595.04   12.30
  -2   2  -7  605.64   13.40
   2   2   7  608.74   14.00
  -3  -2  -7   77.19    6.30
   3  -2   7   80.49    7.30
   3  -2   7   75.79    6.00
   3  -2   7   74.59    3.60
  -3  -2  -7   75.69    6.10
   3  -2   7   74.29    6.20
   3  -2   7   77.49    5.80
  -3   2  -7   88.39    7.60
   3   2   7   77.59    6.40
   3   2   7   68.69    6.20
   3   2   7   71.79    6.20
  -3   2  -7   74.39    5.40
   3   2   7   75.69    6.80
  -3   2  -7   70.79    5.70
   3   2   7   80.69    6.60
  -3   2  -7   73.99    4.00
  -4  -2  -7  414.16   12.40
   4  -2   7  391.76   11.90
   4  -2   7  403.26   12.30
   4  -2   7  383.76    9.20
  -4  -2  -7  416.06   12.00
   4  -2   7  409.36   13.50
  -4  -2  -7  394.16   11.90
   4  -2   7  393.76   11.80
   4   2   7  406.96   12.20
  -4   2  -7  319.27   12.00
   4   2   7  409.26   12.80
  -4   2  -7  399.66   11.60
  -4   2  -7  393.86    9.20
   4   2   7  395.46   12.00
   4   2   7  405.96   12.40
   4   2   7  394.76   12.20
   5  -2   7   68.29    7.30
  -5  -2  -7   80.29    8.00
  -5  -2  -7   67.89    6.70
   5  -2   7   80.49    6.70
   5  -2   7   60.69    5.00
   5  -2   7   61.79    7.30
   5  -2   7   51.19    5.90
   5   2   7   74.89    7.00
   5   2   7   59.49    6.00
  -5   2  -7   65.49    4.90
   5   2   7   59.79    6.60
   5   2   7   68.69    6.30
  -5   2  -7   59.19    7.40
  -5   2  -7   60.79    5.90
  -5   2  -7   72.49    6.20
   5   2   7   63.59    6.50
   6  -2   7  129.49    7.20
   6  -2   7  139.09   11.00
   6  -2   7  129.29    9.70
  -6  -2  -7  128.49   10.40
  -6  -2  -7  114.19   12.00
  -6  -2  -7  140.49   10.20
   6  -2   7  138.29   11.40
   6  -2   7  139.39   10.90
   6   2   7  122.99   11.50
  -6   2  -7  137.59    9.80
   6   2   7  137.29   10.50
  -6   2  -7  149.59   10.10
  -6   2  -7  132.49    6.30
   6   2   7  126.19   10.80
   6   2   7  150.18   11.30
   6   2   7  123.39   11.00
  -7  -2  -7  182.78   12.20
  -7  -2  -7  160.38   12.60
   7  -2   7  161.88   13.20
   7  -2   7  170.08   13.90
   7  -2   7  174.38   11.50
   7  -2   7  189.18   14.40
   7  -2   7  156.28    9.20
  -7   2  -7  153.78    7.80
   7   2   7  183.48   12.60
   7   2   7  172.38   14.40
  -7   2  -7  182.28   12.70
   7   2   7  172.18   14.30
   7   2   7  132.19   13.20
  -7   2  -7  174.98   12.10
   8  -2   7   41.50   11.00
   8  -2   7   73.39   11.40
   8  -2   7   75.49    8.90
  -8  -2  -7   75.29    9.70
   8   2   7   69.79   12.20
   8   2   7   65.19    9.10
   9  -2   7   40.70    9.90
   9  -2   7   41.20   12.30
  -9  -2  -7   46.30   11.20
   9   2   7   42.10   10.00
  -9   2  -7   56.89   11.10
 -12  -3   7    5.90    7.40
 -12  -3   7   10.20    7.70
 -12  -3   7    9.40    9.60
 -12  -3   7   -4.80    8.90
 -12   3   7    6.30    8.90
 -12   3   7    2.20    7.30
 -12   3   7   18.80    7.50
 -12   3   7   12.20    8.70
 -11  -3   7   29.50    6.50
 -11  -3   7   46.70    6.60
 -11  -3   7   32.40    8.60
 -11  -3   7   42.80    7.90
 -11   3   7   36.50    6.40
 -11   3   7   40.60    6.80
 -11   3   7   42.70    7.90
 -11   3   7   33.30    7.90
 -11   3   7   18.60    7.20
 -10  -3   7  117.39    9.60
 -10  -3   7  113.59   10.70
 -10  -3   7  119.49    9.30
  10  -3  -7   94.59    9.20
 -10  -3   7  127.39    8.90
  10   3  -7  103.69    9.00
 -10   3   7  110.69    8.90
 -10   3   7  104.09    9.80
  10   3  -7  120.89    8.30
  10   3  -7   98.89    8.50
 -10   3   7  126.09   10.90
 -10   3   7  108.79    9.10
 -10   3   7  109.49    8.70
  -9  -3   7  322.17   15.90
  -9  -3   7  328.27   11.10
   9  -3  -7  317.57   11.10
  -9  -3   7  333.97    8.60
  -9  -3   7  341.47   12.40
  -9  -3   7  347.07   13.60
   9  -3  -7  336.87   17.40
  -9   3   7  347.37   12.70
  -9   3   7  331.07   10.90
  -9   3   7  330.47   11.10
  -9   3   7  316.97   10.90
   9   3  -7  325.57   10.20
  -9   3   7  333.77   12.90
  -9   3   7  334.27   11.70
   9   3  -7  341.87   13.60
   9   3  -7  340.47    9.90
   9   3  -7  284.47   12.90
   8  -3  -7  335.77    9.80
   8  -3  -7  322.47    9.90
  -8  -3   7  349.37   11.30
  -8  -3   7  317.07    9.10
  -8  -3   7  332.07   12.50
  -8  -3   7  341.67   10.10
  -8  -3   7  331.87    9.90
  -8   3   7  328.37    9.90
   8   3  -7  321.37    8.90
  -8   3   7  349.77   12.10
   8   3  -7  338.77    9.60
  -8   3   7  336.47   10.70
  -8   3   7  333.07   11.70
  -8   3   7  340.57   10.00
   8   3  -7  325.47   11.60
   8   3  -7  338.27    9.40
  -8   3   7  332.27   10.20
  -8   3   7  346.87   10.60
  -7  -3   7   33.90    3.90
  -7  -3   7   29.70    5.10
  -7  -3   7   28.30    3.50
   7  -3  -7   30.80    3.50
  -7  -3   7   23.20    4.00
  -7  -3   7   29.00    3.50
   7  -3  -7   36.90    5.40
   7   3  -7   29.50    3.10
  -7   3   7   31.30    3.40
   7   3  -7   33.40    2.80
   7   3  -7   29.60    2.80
  -7   3   7   28.20    3.70
  -7   3   7   27.10    4.60
   7   3  -7   32.30    4.30
  -7   3   7   27.30    4.80
  -7   3   7   26.10    3.40
  -7   3   7   32.10    4.00
  -6  -3   7  174.38    6.20
  -6  -3   7  194.18    6.40
   6  -3  -7  196.98    6.20
  -6  -3   7  181.78    7.30
  -6  -3   7  193.08    8.60
   6  -3  -7  198.48    8.70
   6  -3  -7  181.38    6.00
  -6   3   7  178.38    6.80
  -6   3   7  178.58    6.50
  -6   3   7  184.88    7.00
   6   3  -7  180.18    5.60
  -6   3   7  185.68    5.50
  -6   3   7  189.48    5.70
   6   3  -7  180.98    4.90
  -6   3   7  192.58    8.40
  -6   3   7  180.18    6.40
   6   3  -7  187.38    5.50
  -6   3   7  187.08    8.60
   6   3  -7  193.58    7.50
   6   3  -7  184.78    5.00
  -5  -3   7  158.98    6.20
   5  -3  -7  159.98    5.40
  -5  -3   7  158.38    5.20
   5  -3  -7  163.18    5.10
  -5  -3   7  169.28    5.50
  -5  -3   7  156.98    7.60
  -5   3   7  158.68    5.70
   5   3  -7  161.58    4.60
  -5   3   7  159.78    4.00
  -5   3   7  153.28    7.60
   5   3  -7  165.78    4.60
  -5   3   7  162.88    4.20
  -5   3   7  170.48    6.20
  -5   3   7  157.18    5.90
  -5   3   7  157.48    7.50
  -5   3   7  163.48    5.90
  -5   3   7  156.18    5.70
  -4  -3   7  199.38    7.80
  -4  -3   7  207.98    6.30
  -4  -3   7  207.08    5.30
  -4  -3   7  204.98    5.70
   4  -3  -7  200.18    6.20
  -4   3   7  193.28    7.80
  -4   3   7  199.98    6.80
  -4   3   7  205.48    6.10
   4   3  -7  201.68    4.80
  -4   3   7  210.78    6.60
  -4   3   7  206.38    6.00
   4   3  -7  203.18    4.80
  -4   3   7  198.68    6.40
   3  -3  -7  106.79    5.30
  -3  -3   7  108.79    5.90
  -3  -3   7  106.49    6.60
  -3  -3   7  105.59    4.20
  -3   3   7  114.89    6.40
   3   3  -7   99.19    3.20
  -3   3   7  103.79    5.50
  -3   3   7  105.49    4.40
  -3   3   7  111.59    4.50
  -3   3   7   98.99    4.60
   3   3  -7  109.69    3.30
  -3   3   7  112.29    5.10
   2  -3  -7   82.89    4.10
  -2  -3   7   86.39    6.10
  -2  -3   7   88.69    3.90
  -2  -3   7   82.39    3.30
  -2  -3   7   83.29    5.40
  -2  -3   7   88.29    3.60
  -2   3   7   93.99    4.40
  -2   3   7   88.19    4.40
  -2   3   7   87.59    6.00
   2   3  -7   84.69    3.30
  -2   3   7   86.99    5.30
  -2   3   7   78.99    4.70
   2   3  -7   86.89    3.30
  -2   3   7   89.09    4.70
  -2   3   7   80.89    4.10
  -1  -3   7   53.39    3.80
  -1  -3   7   51.39    4.00
  -1  -3   7   60.09    5.80
   1  -3  -7   54.89    5.00
   1  -3  -7   51.89    3.70
  -1  -3   7   56.79    3.50
   1  -3  -7   50.59    4.10
  -1   3   7   44.10    4.30
  -1   3   7   55.69    4.30
  -1   3   7   49.70    3.20
  -1   3   7   54.29    3.90
   1   3  -7   46.70    3.30
   1   3  -7   56.09    4.60
  -1   3   7   52.99    4.00
  -1   3   7   50.59    3.80
   1   3  -7   53.99    3.00
   1   3  -7   53.89    2.90
   1   3  -7   50.69    3.30
  -1   3   7   43.40    4.20
  -1   3   7   54.89    5.10
   0  -3  -7  295.87    9.50
   0  -3   7  331.47    9.00
   0  -3   7  334.97    8.40
   0  -3  -7  342.37   10.00
   0  -3  -7  332.57    7.90
   0  -3   7  322.07   10.30
   0  -3  -7  321.17    8.60
   0  -3   7  290.77    9.80
   0   3  -7  320.27    8.20
   0   3  -7  329.77    8.10
   0   3   7  322.17    9.90
   0   3   7  342.17    9.10
   0   3   7  335.97    7.10
   0   3   7  339.77    8.80
   0   3  -7  330.97    7.90
   0   3  -7  339.47    8.00
   0   3   7  332.57    9.20
   0   3   7  331.67    8.80
   0   3   7  332.97    8.20
   0   3  -7  334.47    8.80
   0   3   7  325.77   10.20
  -1  -3  -7  579.34   13.40
   1  -3   7  574.44   14.70
   1  -3   7  586.84   13.00
  -1  -3  -7  574.34   14.30
   1  -3   7  555.94   12.80
  -1  -3  -7  553.74   12.60
   1  -3   7  570.84   13.00
  -1  -3  -7  553.54   13.20
  -1   3  -7  568.24   12.70
   1   3   7  548.35   13.50
  -1   3  -7  572.14   14.80
   1   3   7  555.64   13.40
   1   3   7  551.94   13.10
  -1   3  -7  543.85   13.00
  -1   3  -7  569.84   12.50
  -1   3  -7  567.24   12.70
   1   3   7  571.64   14.30
   1   3   7  573.94   13.20
   1   3   7  561.84   12.90
  -1   3  -7  569.24   12.50
  -2  -3  -7  405.66   10.60
  -2  -3  -7  398.26   11.10
   2  -3   7  403.86   10.70
   2  -3   7  397.56   10.10
  -2  -3  -7  382.86   11.80
   2  -3   7  392.16   10.60
   2  -3   7  395.76   12.30
  -2  -3  -7  391.56   10.80
  -2   3  -7  403.26   10.40
  -2   3  -7  405.76   10.50
   2   3   7  393.96   10.90
  -2   3  -7  387.16    9.80
   2   3   7  390.36   11.20
  -2   3  -7  383.16   12.20
  -2   3  -7  393.56   10.20
   2   3   7  405.36   11.90
   2   3   7  389.16   11.70
   2   3   7  402.96   11.20
   3  -3   7  183.88    9.10
   3  -3   7  188.08    8.00
   3  -3   7  171.78    7.80
   3  -3   7  202.38    8.60
  -3  -3  -7  181.58    8.50
   3  -3   7  188.38    9.50
  -3  -3  -7  180.58    8.10
  -3  -3  -7  187.78    8.10
   3   3   7  179.08    8.30
   3   3   7  180.88    8.80
  -3   3  -7  187.68    7.60
  -3   3  -7  176.88    7.60
  -3   3  -7  188.48    6.50
   3   3   7  180.38    8.40
   3   3   7  177.58    8.70
   4  -3   7   49.99    5.10
  -4  -3  -7   55.59    5.70
  -4  -3  -7   52.19    5.80
  -4  -3  -7   62.29    5.70
   4  -3   7   61.59    5.70
   4  -3   7   37.40    7.20
   4  -3   7   67.39    7.00
   4   3   7   55.39    5.70
   4   3   7   77.09    6.90
  -4   3  -7   52.49    7.00
  -4   3  -7   56.59    4.20
  -4   3  -7   55.49    5.20
   4   3   7   52.39    5.80
   4   3   7   68.39    6.20
  -4   3  -7   62.29    5.40
  -5  -3  -7  105.69    9.00
   5  -3   7  110.99    5.00
   5  -3   7  119.29    9.10
   5  -3   7  108.69   10.60
   5  -3   7  120.99    9.00
  -5  -3  -7  119.89    9.20
   5  -3   7   96.79    9.00
  -5  -3  -7  127.59    9.70
   5  -3   7  100.99    8.80
  -5   3  -7   97.79    6.40
  -5   3  -7  109.39    8.40
   5   3   7  116.49   10.10
  -5   3  -7  102.59    8.80
  -5   3  -7   81.99    9.30
   5   3   7  111.69   10.10
   5   3   7  106.79    9.20
   5   3   7   99.89    9.90
   6  -3   7   67.89    7.50
   6  -3   7   74.59    8.80
   6  -3   7   66.19    7.80
   6  -3   7   65.59    5.70
  -6  -3  -7   62.09    8.30
   6  -3   7   78.49    7.50
  -6  -3  -7   65.79    7.40
  -6  -3  -7   58.79    7.10
   6   3   7   92.49    9.10
  -6   3  -7   70.99    7.00
  -6   3  -7   76.69    7.30
   6   3   7   74.09    8.20
   6   3   7   75.69    8.20
   6   3   7   68.69    8.20
  -6   3  -7   66.69    7.10
  -7  -3  -7   72.99    8.40
   7  -3   7   46.70    7.90
   7  -3   7   61.99    7.60
  -7  -3  -7   64.59    8.60
   7  -3   7   68.89    9.30
   7  -3   7   67.39    9.80
   7   3   7   89.29   10.30
  -7   3  -7   72.39    7.60
  -7   3  -7   74.69    8.50
  -7   3  -7   65.29    8.30
   7   3   7   58.99    8.40
   8  -3   7  105.39    9.60
   8  -3   7  117.29   12.30
   8  -3   7   95.19   13.00
  -8  -3  -7   80.89   10.20
  -8   3  -7  111.09   10.60
   8   3   7   93.29   10.30
  -9  -3  -7   56.49   12.20
   9  -3   7   59.59   10.40
   9   3   7   56.79   11.50
  -9   3  -7   72.99   12.10
 -12  -4   7   98.39   11.50
 -12  -4   7   64.29   12.30
 -12  -4   7   63.29    9.90
 -12  -4   7   74.99    9.50
 -12   4   7   61.99   11.30
 -12   4   7   79.49   10.00
 -12   4   7   71.59   11.00
 -12   4   7   63.59    9.40
 -11  -4   7   12.90    6.70
 -11  -4   7   10.80    8.30
 -11  -4   7    3.40    6.60
 -11  -4   7   22.40    7.70
 -11   4   7    3.80    6.70
 -11   4   7   13.90    6.90
 -11   4   7   13.60    8.50
 -11   4   7   16.00    7.60
 -10  -4   7    5.20    7.10
 -10  -4   7   15.10    5.30
 -10  -4   7    2.80    6.00
 -10  -4   7    7.30    5.70
 -10  -4   7    5.00    4.00
 -10   4   7   13.60    5.40
 -10   4   7   15.30    5.70
  10   4  -7   -6.20    6.80
 -10   4   7    3.80    6.80
  10   4  -7    8.40    5.30
 -10   4   7   10.90    5.60
 -10   4   7    3.70    6.80
 -10   4   7    8.30    6.20
 -10   4   7   -0.40    6.70
  -9  -4   7  180.68    8.30
  -9  -4   7  182.08    9.40
  -9  -4   7  194.38   10.40
  -9  -4   7  174.78   12.30
  -9  -4   7  166.68    9.70
   9  -4  -7  179.78    9.80
   9  -4  -7  173.58   12.40
  -9   4   7  178.38    9.50
  -9   4   7  170.48    8.30
   9   4  -7  197.88   12.70
  -9   4   7  196.08   11.70
   9   4  -7  172.48    8.30
   9   4  -7  170.28    9.00
  -9   4   7  190.58    9.60
  -9   4   7  197.38   11.60
   9   4  -7  161.88    9.40
  -9   4   7  186.38   10.30
  -9   4   7  202.58   10.50
  -8  -4   7  201.18   11.20
   8  -4  -7  176.58    8.40
   8  -4  -7  198.38   11.70
  -8  -4   7  211.08    9.50
  -8  -4   7  199.48    8.80
  -8  -4   7  186.58    9.70
  -8  -4   7  201.88    8.60
  -8   4   7  215.38    8.90
  -8   4   7  190.38    6.90
   8   4  -7  186.48    8.10
   8   4  -7  190.18    8.10
  -8   4   7  195.68    9.30
   8   4  -7  206.28    7.50
  -8   4   7  186.98    9.40
  -8   4   7  185.88   12.90
  -8   4   7  188.08   10.50
  -7  -4   7  168.88    7.30
   7  -4  -7  164.98    7.30
  -7  -4   7  162.98    7.90
   7  -4  -7  155.98    7.40
  -7  -4   7  153.78    8.00
  -7  -4   7  125.89    9.00
  -7  -4   7  151.78   12.40
  -7   4   7  154.38    7.50
  -7   4   7  155.98    7.30
   7   4  -7  156.98    6.60
  -7   4   7  156.18    9.00
   7   4  -7  162.18    8.50
  -7   4   7  175.88    9.50
  -7   4   7  159.68    8.10
  -7   4   7  158.68    7.90
   7   4  -7  152.48    6.60
  -7   4   7  159.68    5.20
   7   4  -7  145.89    6.10
   6  -4  -7   56.99    5.00
  -6  -4   7   75.59    7.50
  -6  -4   7   74.59    5.40
  -6  -4   7   68.79    6.70
  -6  -4   7   57.59    5.70
   6  -4  -7   69.49    6.40
  -6  -4   7   68.49    5.50
   6  -4  -7   57.79    4.30
  -6   4   7   73.29    6.30
  -6   4   7   68.59    5.50
  -6   4   7   65.99    5.40
  -6   4   7   73.79    6.10
  -6   4   7   76.39    6.40
   6   4  -7   65.39    4.60
   6   4  -7   63.59    6.00
   6   4  -7   65.89    4.10
   6   4  -7   57.49    4.40
  -6   4   7   58.59    5.90
   5  -4  -7  378.16    9.50
  -5  -4   7  399.16   11.90
  -5  -4   7  395.26   10.10
   5  -4  -7  377.66    9.60
  -5  -4   7  375.36    9.70
   5  -4  -7  371.16    9.90
  -5  -4   7  389.96    9.90
  -5   4   7  386.96   10.50
   5   4  -7  379.26    9.10
  -5   4   7  391.46   10.20
  -5   4   7  385.86   10.00
  -5   4   7  372.46   10.60
   5   4  -7  381.16    8.60
  -5   4   7  400.16   10.30
  -5   4   7  383.96   12.00
   5   4  -7  389.36    8.70
   5   4  -7  399.96   10.20
  -4  -4   7  145.09    5.60
   4  -4  -7  151.88    6.00
  -4  -4   7  164.08    5.80
   4  -4  -7  147.49    6.10
  -4  -4   7  148.99    7.60
  -4  -4   7  150.28    5.50
  -4   4   7  148.59    6.70
  -4   4   7  156.28    6.00
   4   4  -7  142.79    4.60
   4   4  -7  147.59    5.00
   4   4  -7  143.99    5.10
  -4   4   7  145.09    6.50
  -4   4   7  139.69    7.20
  -4   4   7  147.79    7.70
  -4   4   7  138.69    6.60
  -4   4   7  147.99    6.00
   4   4  -7  149.99    4.60
  -3  -4   7  924.61   21.30
  -3  -4   7  942.71   20.40
  -3  -4   7  939.81   18.50
  -3  -4   7  903.51   17.80
  -3  -4   7  923.61   17.90
   3  -4  -7  833.02   20.50
  -3   4   7  915.61   19.30
  -3   4   7  930.11   19.00
  -3   4   7  927.61   20.90
   3   4  -7  938.71   17.70
  -3   4   7  947.81   19.10
  -3   4   7  912.01   19.60
  -3   4   7  940.91   19.60
   3   4  -7  930.51   17.70
  -3   4   7  943.71   19.90
  -2  -4   7  236.98    8.60
  -2  -4   7  230.78    5.10
  -2  -4   7  237.88    6.80
  -2  -4   7  242.18    7.00
  -2  -4   7  235.58    6.80
   2  -4  -7  240.88    8.10
  -2  -4   7  232.78    9.30
   2  -4  -7  223.08    7.50
  -2   4   7  230.98    7.50
  -2   4   7  225.18    7.70
  -2   4   7  236.58    8.00
  -2   4   7  237.38    8.40
  -2   4   7  233.08    7.30
   2   4  -7  235.48    8.30
   2   4  -7  241.38    6.20
   2   4  -7  233.98    6.20
   2   4  -7  235.58    6.60
  -2   4   7  236.18    8.90
  -2   4   7  239.68    7.30
   1  -4  -7  470.25   12.10
   1  -4  -7  452.05   11.00
   1  -4  -7  456.55   11.30
  -1  -4   7  412.66   11.50
  -1  -4   7  447.76   11.00
  -1  -4   7  455.95   10.70
  -1  -4   7  459.55   12.00
  -1  -4   7  450.65   13.00
  -1   4   7  465.85   11.50
  -1   4   7  444.66   12.50
  -1   4   7  449.16   10.50
  -1   4   7  453.05   11.20
   1   4  -7  461.75   11.90
  -1   4   7  461.65   12.40
   1   4  -7  473.15   10.60
   1   4  -7  460.75   10.20
   1   4  -7  448.36   10.50
   1   4  -7  459.75   10.40
  -1   4   7  442.76   11.60
  -1   4   7  450.05   11.10
   0  -4  -7  673.83   15.00
   0  -4   7  659.33   14.60
   0  -4   7  667.43   15.50
   0  -4  -7  663.53   15.30
   0  -4  -7  657.23   13.20
   0  -4  -7  676.23   16.10
   0  -4   7  676.63   14.80
   0  -4   7  662.33   16.80
   0   4   7  659.33   13.50
   0   4   7  661.73   16.50
   0   4  -7  664.33   14.40
   0   4  -7  670.43   14.30
   0   4   7  667.33   16.30
   0   4   7  653.63   15.50
   0   4  -7  685.33   14.50
   0   4  -7  672.13   14.60
   0   4  -7  646.24   15.80
   0   4   7  660.33   15.10
   0   4   7  676.43   15.40
   0   4   7  644.44   15.00
   1  -4   7  135.39    8.20
  -1  -4  -7  158.38    8.00
   1  -4   7  139.99    6.60
   1  -4   7  141.79    6.90
  -1  -4  -7  142.99    5.60
  -1  -4  -7  146.69    7.10
  -1  -4  -7  146.69    6.80
   1  -4   7  142.09    7.00
   1  -4   7  135.09    6.40
   1   4   7  136.09    6.80
   1   4   7  136.29    7.40
  -1   4  -7  153.18    6.50
  -1   4  -7  137.99    6.20
   1   4   7  137.69    7.60
  -1   4  -7  136.49    6.00
   1   4   7  130.29    7.20
  -1   4  -7  145.59    6.40
   1   4   7  135.89    7.60
   1   4   7  137.49    4.20
   1   4   7  145.59    6.70
   2  -4   7  283.17   10.10
   2  -4   7  277.87   11.10
  -2  -4  -7  280.97    8.70
   2  -4   7  270.27    9.30
   2  -4   7  287.57    9.30
   2  -4   7  294.07    9.30
  -2  -4  -7  281.37    9.70
  -2   4  -7  283.27    9.00
   2   4   7  264.27   10.00
   2   4   7  277.27   10.70
   2   4   7  273.17   10.10
  -2   4  -7  261.67    9.90
   2   4   7  264.67    9.30
  -2   4  -7  268.97    8.90
  -2   4  -7  271.17    9.00
   2   4   7  282.87   10.50
   2   4   7  271.57    9.20
  -3  -4  -7  179.78    8.90
   3  -4   7  179.48    8.50
  -3  -4  -7  187.08    8.70
  -3  -4  -7  167.78    8.00
   3  -4   7  169.98    9.50
   3  -4   7  194.78   13.60
   3  -4   7  180.08    8.60
   3   4   7  172.18    9.40
   3   4   7  168.18    9.60
  -3   4  -7  190.28    8.40
   3   4   7  181.98    8.50
   3   4   7  150.48    9.40
  -3   4  -7  179.08   10.50
   4  -4   7   20.40    5.20
  -4  -4  -7   21.30    6.70
   4  -4   7   22.90    5.20
   4  -4   7   23.20    5.70
   4  -4   7   15.10    6.10
  -4  -4  -7   14.40    4.80
  -4  -4  -7   21.70    4.60
   4   4   7   15.80    5.20
   4   4   7   19.80    5.10
   4   4   7   29.40    6.40
  -4   4  -7   19.70    4.70
  -4   4  -7   19.90    6.40
  -4   4  -7   28.20    5.00
  -4   4  -7   17.70    4.20
   4   4   7   14.30    5.40
   5  -4   7  447.86   15.10
   5  -4   7  423.46   16.20
  -5  -4  -7  456.35   15.00
   5  -4   7  458.95   14.70
   5  -4   7  459.65   15.40
  -5  -4  -7  420.76   14.80
  -5  -4  -7  453.95   15.30
  -5   4  -7  450.75   14.20
   5   4   7  443.86   16.00
  -5   4  -7  441.26   12.60
  -5   4  -7  429.66   17.70
   5   4   7  427.36   15.50
   5   4   7  430.46   16.00
   5   4   7  440.86   15.30
   6  -4   7   62.79    7.40
   6  -4   7   57.79    7.80
   6  -4   7   62.79    8.50
   6  -4   7   71.19    8.80
  -6  -4  -7   61.39    7.80
  -6  -4  -7   72.89    8.00
  -6  -4  -7   33.70    8.20
   6   4   7   49.20    7.60
  -6   4  -7   58.49    7.20
   6   4   7   61.39    9.20
  -6   4  -7   72.49    6.30
   6   4   7   52.59    9.00
  -6   4  -7   57.89    6.80
   7  -4   7   21.30    8.50
   7  -4   7   49.20    8.00
   7  -4   7   33.10   10.10
  -7  -4  -7   19.40    8.70
   7   4   7   34.30   10.40
  -7   4  -7   38.30    7.80
   7   4   7   63.89    9.40
  -7   4  -7   39.70   11.90
   8  -4   7    8.60   11.40
  -8  -4  -7    5.10    9.70
   8  -4   7    7.00    8.50
  -8   4  -7    7.40    8.60
   8   4   7   22.00    9.20
 -11  -5   7    7.90    9.40
 -11  -5   7   11.90    8.10
 -11  -5   7   10.00    8.40
 -11  -5   7    4.70    7.90
 -11   5   7   12.30    7.60
 -11   5   7   16.40    9.30
 -11   5   7   22.10    7.90
 -11   5   7    5.60    9.50
 -10  -5   7  143.29   14.40
 -10  -5   7  172.08   13.20
 -10  -5   7  145.79   11.80
 -10  -5   7  169.08   11.80
 -10   5   7  172.88   14.40
 -10   5   7  156.68   14.10
 -10   5   7  149.29   11.80
 -10   5   7  158.38   12.20
  -9  -5   7   47.40    6.40
  -9  -5   7   54.39    6.60
  -9  -5   7   62.49    6.70
  -9  -5   7   56.89    7.80
  -9  -5   7   52.39    6.90
  -9   5   7   45.00    4.50
  -9   5   7   51.19    6.50
  -9   5   7   52.29    7.80
  -9   5   7   61.59    6.80
   9   5  -7   63.09    6.30
   9   5  -7   60.69    8.30
  -9   5   7   44.30    7.50
  -9   5   7   63.09    8.30
   9   5  -7   52.29    6.20
  -9   5   7   56.49    7.20
  -8  -5   7   31.00    6.30
  -8  -5   7   30.80    5.50
  -8  -5   7   38.80    5.90
   8  -5  -7   27.20    5.50
  -8  -5   7   42.20    5.60
  -8  -5   7   40.40    5.40
   8   5  -7   34.50    4.70
  -8   5   7   36.80    3.20
  -8   5   7   34.50    5.90
  -8   5   7   38.70    5.40
  -8   5   7   28.80    5.70
   8   5  -7   36.40    5.10
   8   5  -7   35.90    5.50
  -8   5   7   37.50    5.50
  -8   5   7   49.40    7.10
  -8   5   7   42.70    7.00
  -7  -5   7   95.39    7.40
   7  -5  -7   71.09    7.70
  -7  -5   7   94.79    7.80
  -7  -5   7   91.79    7.10
   7  -5  -7  101.19    8.10
   7  -5  -7   86.49    8.30
   7  -5  -7   84.49    5.00
  -7  -5   7   86.99    8.40
  -7  -5   7   86.39    7.40
   7   5  -7  103.09    8.10
   7   5  -7   83.49    6.20
  -7   5   7   82.99    7.30
  -7   5   7   79.39    7.30
  -7   5   7   91.49    7.70
  -7   5   7   95.29    8.00
  -7   5   7   78.69    7.80
  -7   5   7   79.49    7.30
   7   5  -7   82.79    6.90
   6  -5  -7  229.58   11.70
  -6  -5   7  226.08   10.10
  -6  -5   7  244.28    8.90
   6  -5  -7  234.78    9.10
  -6  -5   7  231.18    8.60
  -6  -5   7  237.08    8.70
   6  -5  -7  224.28    7.40
  -6  -5   7  233.38   12.40
  -6   5   7  236.38    8.90
  -6   5   7  235.28    8.90
   6   5  -7  239.38    8.20
  -6   5   7  227.98    9.50
   6   5  -7  239.68    9.40
   6   5  -7  235.78    7.80
  -6   5   7  202.28    9.50
   6   5  -7  235.18    8.80
   6   5  -7  241.78    8.20
  -6   5   7  220.48   11.10
  -6   5   7  256.27   10.80
   5  -5  -7  754.12   16.30
  -5  -5   7  728.33   16.70
  -5  -5   7  752.12   16.20
  -5  -5   7  742.03   18.50
   5  -5  -7  718.93   16.80
  -5  -5   7  741.43   16.50
  -5   5   7  748.43   17.00
   5   5  -7  740.73   16.40
  -5   5   7  733.53   17.40
  -5   5   7  739.23   16.90
   5   5  -7  712.93   15.60
  -5   5   7  726.53   17.20
  -5   5   7  741.03   17.50
  -5   5   7  762.32   18.90
  -5   5   7  732.33   18.40
   5   5  -7  723.53   16.00
   5   5  -7  741.33   16.00
  -4  -5   7   15.50    3.30
   4  -5  -7   20.30    3.60
  -4  -5   7   13.20    3.20
   4  -5  -7   23.60    3.70
  -4  -5   7   18.90    4.70
  -4  -5   7   17.40    2.90
  -4  -5   7   21.00    5.00
  -4   5   7   16.60    3.50
  -4   5   7   12.80    4.30
   4   5  -7   18.70    3.00
   4   5  -7   15.80    2.80
  -4   5   7   20.00    3.50
   4   5  -7   21.30    3.00
  -4   5   7   21.90    4.10
   4   5  -7   19.50    3.20
   4   5  -7   21.00    3.10
  -4   5   7   23.70    4.20
  -4   5   7   13.40    3.80
  -4   5   7    8.50    4.20
  -3  -5   7  105.89    4.10
   3  -5  -7  112.69    6.50
  -3  -5   7   97.39    6.60
  -3  -5   7  125.79    8.50
  -3  -5   7  107.49    7.70
  -3   5   7   96.39    6.90
  -3   5   7  108.89    6.90
   3   5  -7  106.19    5.50
   3   5  -7  101.79    5.20
   3   5  -7  126.69    7.90
  -3   5   7  104.69    7.50
  -3   5   7  106.19    6.90
   3   5  -7  121.09    5.70
  -3   5   7  111.29    6.20
  -3   5   7  117.09    7.20
  -3   5   7  111.59    6.30
   3   5  -7  116.39    5.50
   2  -5  -7  772.72   17.10
  -2  -5   7  759.92   18.00
  -2  -5   7  750.32   16.70
  -2  -5   7  758.32   16.50
  -2  -5   7  730.53   15.60
  -2  -5   7  756.42   18.90
   2  -5  -7  778.52   17.70
  -2   5   7  754.52   17.00
   2   5  -7  773.32   16.00
   2   5  -7  752.62   16.10
  -2   5   7  728.13   17.40
  -2   5   7  760.52   17.00
   2   5  -7  784.42   16.40
  -2   5   7  738.93   17.40
   2   5  -7  765.82   18.20
  -2   5   7  764.02   17.10
  -2   5   7  763.32   18.60
  -2   5   7  766.72   18.10
   2   5  -7  750.22   16.20
  -1  -5   7   38.20    3.80
  -1  -5   7   38.90    4.00
  -1  -5   7   37.60    4.70
  -1  -5   7   38.10    3.90
   1  -5  -7   33.30    4.10
   1  -5  -7   47.50    5.10
   1  -5  -7   35.40    4.10
  -1  -5   7   27.50    5.00
  -1   5   7   37.70    4.00
   1   5  -7   33.40    3.50
  -1   5   7   40.30    3.80
  -1   5   7   27.00    4.30
  -1   5   7   41.30    4.60
   1   5  -7   36.10    4.40
  -1   5   7   40.20    5.20
  -1   5   7   40.40    4.10
  -1   5   7   30.10    4.50
   1   5  -7   37.00    3.80
   1   5  -7   34.40    3.60
   0  -5  -7  264.97    9.30
   0  -5  -7  244.88    8.90
   0  -5   7  249.38    8.60
   0  -5  -7  257.97   10.10
   0  -5   7  252.17   10.60
   0  -5   7  244.98    8.30
   0  -5   7  264.77    9.60
   0  -5   7  233.68    8.30
   0   5   7  257.97    9.60
   0   5   7  254.17    8.90
   0   5   7  247.98    9.80
   0   5   7  265.97   10.20
   0   5  -7  258.87    8.20
   0   5   7  260.87    9.60
   0   5  -7  246.58    8.50
   0   5   7  258.37    8.90
   0   5  -7  250.67    8.30
   0   5  -7  244.48    9.10
   0   5   7  245.78    7.40
   1  -5   7  151.18    9.20
   1  -5   7  137.49    7.30
   1  -5   7  157.58    7.50
   1  -5   7  147.49    8.00
   1  -5   7  147.99    7.60
  -1  -5  -7  140.69    5.70
  -1  -5  -7  140.99    7.90
   1   5   7  138.79    5.40
  -1   5  -7  141.19    7.10
   1   5   7  149.69    7.50
   1   5   7  146.39    8.70
  -1   5  -7  133.09    7.30
   1   5   7  146.49    7.60
  -1   5  -7  145.59    7.00
   1   5   7  124.49    8.30
  -1   5  -7  151.68    7.80
   1   5   7  138.49    8.60
   1   5   7  149.29    8.40
  -2  -5  -7  233.98    9.80
  -2  -5  -7  213.48    7.80
   2  -5   7  241.88   11.70
  -2  -5  -7  210.78    9.70
   2  -5   7  214.08    9.50
   2  -5   7  223.78    9.30
   2  -5   7  228.48    9.40
   2  -5   7  224.98    9.30
  -2  -5  -7  231.48   11.20
  -2   5  -7  230.88    9.00
  -2   5  -7  230.38    9.10
   2   5   7  192.58   11.50
  -2   5  -7  209.78    8.70
   2   5   7  214.98    6.10
   2   5   7  227.88   10.50
   2   5   7  226.58   11.20
   2   5   7  218.08   10.40
   2   5   7  221.18   12.90
  -3  -5  -7  549.85   15.50
  -3  -5  -7  514.95   15.70
   3  -5   7  543.25   16.60
  -3  -5  -7  526.85   16.30
   3  -5   7  534.85   14.90
   3  -5   7  546.35   15.30
  -3  -5  -7  526.15   13.80
   3  -5   7  512.15   15.30
  -3   5  -7  511.65   18.00
   3   5   7  520.15   14.90
   3   5   7  509.45   16.50
  -3   5  -7  532.45   14.30
   3   5   7  521.75   16.10
   3   5   7  531.45   15.60
  -3   5  -7  535.45   14.60
   3   5   7  567.04   15.30
   3   5   7  507.25   15.90
  -3   5  -7  435.16   17.60
   3   5   7  535.05   16.10
  -3   5  -7  510.65   15.30
   4  -5   7   35.60    6.90
  -4  -5  -7   23.20    5.50
   4  -5   7   33.80    7.00
  -4  -5  -7   25.40    5.90
   4  -5   7   28.40    5.80
   4  -5   7   26.60    6.20
  -4  -5  -7   24.10    5.50
  -4   5  -7   31.80    5.60
   4   5   7   22.50    6.40
   4   5   7    1.40   10.80
  -4   5  -7   19.70    5.40
   4   5   7   35.80    6.80
  -4   5  -7   25.10    5.90
   4   5   7   18.80    5.30
   4   5   7   29.80    6.40
   4   5   7   19.60    5.30
  -5  -5  -7   12.40    6.60
   5  -5   7   11.30    6.90
  -5  -5  -7   20.10    6.20
   5  -5   7   15.30    6.30
  -5  -5  -7    7.10    6.10
   5  -5   7   13.90    6.60
  -5   5  -7   19.80    5.90
   5   5   7    5.40    6.90
  -5   5  -7   13.30    5.60
   5   5   7   21.50    6.10
  -5   5  -7   11.90    6.10
   5   5   7   17.20    6.80
   5   5   7   22.60    7.50
  -6  -5  -7   72.19    9.20
   6  -5   7   90.49   10.30
  -6  -5  -7   83.49    9.30
   6  -5   7   88.39   10.70
   6  -5   7   83.09    8.70
  -6  -5  -7   79.49   10.10
  -6   5  -7   90.49    9.00
   6   5   7   88.09   10.80
   6   5   7   66.29    7.90
  -6   5  -7   84.89    8.40
  -6   5  -7   76.99    8.70
   6   5   7   87.49    9.60
   7  -5   7   42.50   10.60
   7  -5   7   29.90    8.60
  -7  -5  -7   42.10    9.10
   7   5   7   35.70    9.30
  -7   5  -7   13.00   15.80
   8  -5   7   65.29   10.90
  -8  -5  -7   70.69   12.60
  -8   5  -7   90.49   11.60
   8   5   7   71.29   12.20
 -11  -6   7    1.90    9.00
 -11  -6   7   -2.30    9.90
 -11   6   7    2.60    9.00
 -11   6   7   14.60   11.10
 -10  -6   7   25.50    9.20
 -10  -6   7   36.50    8.20
 -10  -6   7   19.30    8.10
 -10  -6   7   34.60    8.50
 -10   6   7   34.60    7.70
 -10   6   7   14.50    9.70
 -10   6   7   30.90    7.90
 -10   6   7   36.70    9.80
  -9  -6   7   18.00    6.50
  -9  -6   7   12.10    7.40
  -9  -6   7    4.90    7.10
  -9  -6   7   16.80    6.30
  -9  -6   7    6.10    6.50
   9   6  -7   10.20    6.10
  -9   6   7    6.40    6.20
  -9   6   7   -1.70    7.30
  -9   6   7   22.50    6.40
  -9   6   7   17.10    8.30
   8  -6  -7   82.59    6.10
  -8  -6   7   83.19    8.40
  -8  -6   7   94.79    8.40
  -8  -6   7   96.79    7.80
  -8  -6   7   90.19    9.50
  -8   6   7   80.09    8.60
   8   6  -7   92.39    8.70
   8   6  -7   90.89    7.10
  -8   6   7  103.09    9.60
  -8   6   7   79.89    7.90
  -8   6   7   97.39    8.80
  -8   6   7  103.29    9.90
   8   6  -7   86.79    9.10
  -8   6   7   95.79    9.70
  -7  -6   7  205.08   10.20
  -7  -6   7  185.18   12.10
  -7  -6   7  179.18    9.60
  -7  -6   7  185.88    9.80
  -7  -6   7  218.28   12.30
   7  -6  -7  201.18    7.80
  -7   6   7  192.28   11.10
   7   6  -7  189.88    9.10
  -7   6   7  203.98   12.10
   7   6  -7  193.18   10.30
  -7   6   7  185.98   11.30
  -7   6   7  189.28   10.10
  -7   6   7  208.68   10.20
  -7   6   7  182.98   12.50
   7   6  -7  189.68   10.40
   7   6  -7  174.38    9.00
  -6  -6   7   10.20    5.80
  -6  -6   7    3.20    3.90
  -6  -6   7   11.90    6.10
  -6  -6   7    4.20    4.10
  -6  -6   7   -0.10    5.20
   6  -6  -7    8.30    3.90
   6  -6  -7    5.60    4.90
   6   6  -7    3.10    6.80
   6   6  -7    8.50    4.40
   6   6  -7    9.20    4.40
  -6   6   7    9.10    4.40
  -6   6   7   -2.40    4.20
  -6   6   7   12.20    5.90
  -6   6   7    4.80    4.70
  -6   6   7    6.60    6.60
   6   6  -7   18.80    7.10
   6   6  -7   12.30    4.00
  -6   6   7   14.30    5.20
   5  -6  -7   20.60    4.30
   5  -6  -7   18.80    4.50
  -5  -6   7   16.40    4.20
  -5  -6   7   19.30    4.30
  -5  -6   7   16.90    5.40
  -5  -6   7   20.40    6.10
  -5  -6   7   23.30    3.90
   5  -6  -7   29.50    5.30
  -5   6   7   18.40    4.70
   5   6  -7   22.20    4.00
   5   6  -7   23.70    4.60
  -5   6   7   20.80    5.00
  -5   6   7   17.30    5.20
  -5   6   7   16.80    4.20
  -5   6   7   18.00    5.70
  -5   6   7   21.90    6.20
   5   6  -7   16.40    3.70
  -4  -6   7   98.49    8.40
  -4  -6   7  108.89    7.00
  -4  -6   7  110.99    7.10
  -4  -6   7  128.99   10.20
   4  -6  -7  117.89    7.70
  -4   6   7  145.29    9.60
   4   6  -7  125.09   10.50
   4   6  -7  119.29    6.90
  -4   6   7  117.69    8.40
   4   6  -7  113.39    6.70
   4   6  -7  113.69    6.80
   4   6  -7  118.79    5.80
  -4   6   7  124.59    8.10
   4   6  -7  113.09    7.20
  -4   6   7  126.69    7.50
  -4   6   7  125.49    9.30
  -4   6   7  118.29    8.50
  -4   6   7  124.49    7.40
  -3  -6   7   29.70    6.00
  -3  -6   7   29.70    3.00
  -3  -6   7   27.10    4.20
   3  -6  -7   25.00    4.90
  -3  -6   7   28.50    5.20
  -3   6   7   36.50    5.20
   3   6  -7   36.30    4.50
  -3   6   7   29.90    4.50
   3   6  -7   35.60    4.30
  -3   6   7   30.10    5.10
  -3   6   7   30.10    5.10
   3   6  -7   30.60    3.90
  -3   6   7   30.50    4.80
   3   6  -7   30.00    4.50
  -3   6   7   31.50    5.20
  -3   6   7   35.00    4.50
  -2  -6   7  274.67    9.50
  -2  -6   7  272.87    7.70
   2  -6  -7  284.57   10.10
  -2  -6   7  276.27   18.20
  -2  -6   7  274.37   11.00
   2  -6  -7  290.37   10.90
  -2  -6   7  289.67    9.50
   2   6  -7  289.57    9.50
   2   6  -7  280.47   10.20
   2   6  -7  293.57    9.50
   2   6  -7  282.27    8.90
  -2   6   7  220.58   12.80
  -2   6   7  259.37   10.60
  -2   6   7  274.47   10.00
  -2   6   7  289.67    9.90
  -2   6   7  271.57   10.60
  -2   6   7  286.57   10.90
   1  -6  -7   -1.20    4.40
  -1  -6   7    7.60    3.80
  -1  -6   7   11.00    3.50
   1  -6  -7    0.20    3.80
  -1  -6   7   -1.60    4.50
  -1  -6   7    6.60    3.50
  -1  -6   7    4.30    4.40
  -1   6   7    0.60    3.60
  -1   6   7    5.50    4.40
  -1   6   7    1.00    5.00
  -1   6   7    4.90    4.50
   1   6  -7    5.40    3.50
   1   6  -7    9.90    4.50
   1   6  -7    7.20    3.70
  -1   6   7    4.70    3.80
  -1   6   7    4.90    4.50
  -1   6   7    4.50    4.30
   1   6  -7   -1.40    3.80
   1   6  -7    3.20    3.30
   0  -6  -7  163.38    8.50
   0  -6   7  162.78    9.40
   0  -6   7  167.88    8.40
   0  -6  -7  172.58    8.90
   0  -6   7  150.78    8.30
   0  -6   7  148.69    9.90
   0  -6   7  158.98    7.80
   0   6  -7  173.98    8.10
   0   6   7  153.88    7.30
   0   6  -7  151.88    8.60
   0   6   7  167.68    9.80
   0   6   7  152.28    8.30
   0   6   7  157.88    9.60
   0   6   7  166.38    9.40
   0   6  -7  171.68    8.10
   0   6   7  165.38    9.70
   0   6  -7  170.28    9.50
   1  -6   7   72.09    7.60
  -1  -6  -7   75.29    4.80
  -1  -6  -7   82.79    6.80
   1  -6   7   79.09    6.20
   1  -6   7   84.69    8.40
   1  -6   7   73.09    6.00
  -1  -6  -7   69.89    6.40
  -1  -6  -7   77.59    7.40
   1  -6   7   67.89    6.80
   1   6   7   77.99    7.80
   1   6   7   76.79    7.50
   1   6   7   81.09    7.60
  -1   6  -7   69.99    6.50
  -1   6  -7   70.89    6.30
  -1   6  -7   69.89    5.90
  -1   6  -7   74.59    7.50
   1   6   7   72.09    7.40
  -1   6  -7   75.09    5.90
   1   6   7   70.59    5.80
   1   6   7   76.99    7.00
   1   6   7   81.29    7.20
   2  -6   7   67.49    6.50
  -2  -6  -7   77.99    7.00
   2  -6   7   68.09    6.70
   2  -6   7   77.19    7.60
   2  -6   7   83.59    7.00
   2  -6   7   80.39    6.90
  -2  -6  -7   80.29    7.50
  -2  -6  -7   70.29    5.90
  -2  -6  -7   73.39    9.00
  -2   6  -7   82.19    8.20
   2   6   7   83.19    7.90
  -2   6  -7   66.99    6.50
   2   6   7   88.99    8.40
   2   6   7   76.29    6.80
   2   6   7   67.99    6.20
   2   6   7   50.89    7.90
  -2   6  -7   94.89    9.00
   2   6   7   69.49    7.20
   2   6   7   79.69    7.50
   2   6   7   68.89    5.60
  -3  -6  -7  109.99   10.40
   3  -6   7   98.39    8.60
   3  -6   7  110.89   10.10
  -3  -6  -7   94.49    7.90
   3  -6   7  107.29    8.10
   3  -6   7   85.59    7.80
  -3  -6  -7  112.09   10.20
   3   6   7   99.69    9.50
  -3   6  -7  109.59    9.00
   3   6   7   92.79    8.30
   3   6   7   95.99    8.50
  -3   6  -7  100.49    9.20
  -3   6  -7  114.69   10.00
   3   6   7  100.09    9.40
   3   6   7  112.59    9.10
   3   6   7  104.49   10.00
   4  -6   7    5.40    6.70
  -4  -6  -7   14.80    5.60
   4  -6   7   14.00    6.80
   4  -6   7   13.50    7.10
  -4  -6  -7    5.00    6.60
  -4  -6  -7    9.90    6.20
   4   6   7   17.60    5.90
   4   6   7    0.80    7.00
  -4   6  -7    7.70    5.40
   4   6   7   12.70    5.90
   4   6   7    9.40    6.20
   4   6   7   25.10    7.70
  -4   6  -7    6.50    5.60
   4   6   7    0.30    5.90
   5  -6   7  122.49   11.10
  -5  -6  -7  113.59   10.10
   5  -6   7  120.99   10.50
  -5  -6  -7  117.29   10.10
   5   6   7  107.99   10.20
   5   6   7  107.89    9.30
   5   6   7   97.99   11.00
   5   6   7  105.29   11.90
   5   6   7  119.49   12.20
   5   6   7  116.79   12.00
  -5   6  -7  118.99   11.90
  -5   6  -7  112.29    9.50
   6  -6   7   92.79   11.50
  -6  -6  -7   71.79    9.80
  -6  -6  -7   77.59   10.80
   6   6   7   86.49   21.00
   6   6   7   93.89   10.10
  -6   6  -7   63.69   15.30
   6   6   7   85.09    9.90
   6   6   7   76.79   10.40
  -6   6  -7   91.09    9.60
   7  -6   7   -2.80    8.80
  -7  -6  -7    3.70   10.30
   7  -6   7  -20.10   10.80
   7   6   7  -22.30    9.00
   7   6   7    3.20    9.50
   7   6   7    4.80   10.20
  -7   6  -7    0.40    9.40
 -10  -7   7   62.69   10.40
 -10  -7   7   85.39   10.90
 -10  -7   7   41.60   13.50
 -10   7   7   54.39    9.90
 -10   7   7   67.09   12.50
 -10   7   7   66.39   11.80
 -10   7   7   69.69   12.80
  -9  -7   7   79.59    9.40
  -9  -7   7   75.89    9.00
  -9  -7   7   72.99    9.20
  -9  -7   7   81.89   10.90
  -9   7   7   85.79   11.80
  -9   7   7   72.79    9.30
  -9   7   7   81.89   10.70
  -9   7   7   78.39    9.10
  -8  -7   7   20.70    8.70
  -8  -7   7   30.00    7.10
  -8  -7   7   12.70    9.50
  -8  -7   7   22.40    7.00
  -8  -7   7   20.50    6.80
  -8   7   7   23.40    7.10
  -8   7   7   19.30    7.60
   8   7  -7   32.50    8.90
  -8   7   7   22.10    8.70
   8   7  -7   23.00    8.40
  -8   7   7   23.70    6.80
  -7  -7   7    4.10    5.50
   7  -7  -7    0.60    5.10
  -7  -7   7   -5.40    6.90
  -7  -7   7    2.20    5.40
  -7  -7   7    3.30    8.60
  -7  -7   7    4.10    5.30
   7   7  -7   -2.10    5.40
  -7   7   7    6.60    5.80
  -7   7   7   -0.60    7.20
  -7   7   7   -1.10    6.50
  -7   7   7    2.00    7.00
   7   7  -7    7.90    7.10
   7   7  -7    6.30    7.50
  -7   7   7    3.70    5.70
  -7   7   7   10.00    7.00
  -6  -7   7   68.99    9.00
  -6  -7   7   69.19    8.30
  -6  -7   7   88.39    9.30
  -6  -7   7   99.19    9.50
   6  -7  -7   88.49    6.70
  -6   7   7   80.29    7.20
  -6   7   7   82.99    7.20
  -6   7   7   75.39    8.80
   6   7  -7   87.99    8.60
  -6   7   7   74.39    7.80
   6   7  -7   80.29    6.70
  -6   7   7   92.49    9.20
   6   7  -7   86.89    7.10
  -5  -7   7  213.78   10.40
  -5  -7   7  188.68   13.70
  -5  -7   7  219.18   13.50
  -5  -7   7  217.38   10.10
   5  -7  -7  208.78   10.10
  -5  -7   7  186.28   12.40
  -5   7   7  236.78   13.10
  -5   7   7  190.38   10.30
   5   7  -7  185.38   10.60
   5   7  -7  202.38    8.50
  -5   7   7  167.08   13.70
  -5   7   7  202.58   11.90
  -5   7   7  208.48   10.60
   5   7  -7  193.18    9.70
   5   7  -7  203.28    9.50
  -5   7   7  202.78   13.70
  -4  -7   7  192.68    9.80
   4  -7  -7  192.48   12.40
  -4  -7   7  197.48   13.40
   4  -7  -7  196.78   10.60
  -4  -7   7  224.08   12.10
  -4  -7   7  219.88   13.00
  -4   7   7  205.68   10.50
  -4   7   7  196.48   11.90
  -4   7   7  212.68   11.60
  -4   7   7  214.48   11.80
  -4   7   7  213.78   10.10
   4   7  -7  189.78    7.30
   4   7  -7  193.18   10.10
  -4   7   7  206.98   10.10
  -4   7   7  210.18   12.50
   4   7  -7  205.28    9.60
   4   7  -7  187.98    9.30
  -3  -7   7    8.40    5.90
  -3  -7   7    6.10    4.40
  -3  -7   7    5.40    5.50
   3  -7  -7   -0.10    5.30
  -3   7   7    7.60    4.50
   3   7  -7    6.30    4.30
  -3   7   7   13.50    5.80
  -3   7   7   10.80    5.20
  -3   7   7   -4.40    5.40
  -3   7   7    7.00    5.40
   3   7  -7    7.90    4.40
   3   7  -7    5.10    6.50
  -3   7   7   -1.50    4.30
  -3   7   7   14.50    5.80
   3   7  -7   11.50    5.20
  -2  -7   7  109.49    8.30
   2  -7  -7  135.39    9.40
  -2  -7   7  120.79   10.40
  -2  -7   7  121.99    5.80
  -2  -7   7  113.69    8.70
  -2  -7   7  113.79   10.10
  -2   7   7  133.29   10.30
  -2   7   7  121.39    8.80
  -2   7   7  118.29    9.90
   2   7  -7  118.99    9.20
   2   7  -7  126.09   11.00
  -2   7   7  124.69   10.10
  -2   7   7  122.49    9.50
  -2   7   7  105.49   10.20
   2   7  -7  124.19    8.20
  -2   7   7  123.39    8.40
   2   7  -7  120.89    8.30
  -1  -7   7   41.00    6.80
   1  -7  -7   34.00    6.00
   1  -7  -7   36.10    5.80
  -1  -7   7   40.30    4.70
  -1  -7   7   36.90    5.60
  -1  -7   7   28.20    5.10
  -1  -7   7   39.00    6.50
   1  -7  -7   39.10    6.70
   1   7  -7   33.00    5.20
  -1   7   7   38.00    5.40
   1   7  -7   23.20    6.60
  -1   7   7   34.90    6.50
  -1   7   7   37.20    5.50
  -1   7   7   34.80    5.30
  -1   7   7   35.10    6.30
   1   7  -7   33.10    5.00
  -1   7   7   32.20    5.70
   1   7  -7   23.80    5.60
  -1   7   7   41.00    6.80
   0  -7   7  164.18   15.80
   0  -7  -7  175.78   10.70
   0  -7   7  171.68   10.00
   0  -7   7  160.28   10.00
   0  -7   7  162.38    9.00
   0  -7   7  194.88   11.70
   0  -7  -7  186.08   10.50
   0  -7  -7  137.79   12.30
   0   7   7  181.18    9.90
   0   7  -7  185.88    9.40
   0   7   7  168.98   11.10
   0   7   7  184.58   11.90
   0   7  -7  161.68   10.50
   0   7   7  171.08    9.20
   0   7  -7  167.28   12.10
   0   7  -7  173.18    9.50
   0   7   7  155.58   11.60
   0   7   7  198.38   11.40
   0   7   7  167.58    9.80
  -1  -7  -7  111.19   10.20
   1  -7   7  100.49    9.50
   1  -7   7  110.79   10.00
   1  -7   7  112.29   11.20
  -1  -7  -7  105.49    9.40
  -1  -7  -7  103.89    4.90
   1  -7   7  106.69    9.90
   1   7   7  112.39   11.80
  -1   7  -7   94.29    9.00
   1   7   7   97.29    8.80
   1   7   7  120.69    9.60
  -1   7  -7   90.19    8.60
   1   7   7  102.59    9.30
   1   7   7  101.79    7.80
   1   7   7  107.69    9.40
   1   7   7  109.29   10.30
  -2  -7  -7    1.70    3.60
   2  -7   7    6.70    6.50
   2  -7   7    8.40    6.80
   2  -7   7    0.70    5.90
  -2  -7  -7    5.00    6.20
   2  -7   7    6.80    6.00
  -2  -7  -7    7.90    5.90
   2  -7   7   16.10    6.10
   2   7   7   10.80    7.30
  -2   7  -7    6.60    6.70
   2   7   7   14.10    6.60
   2   7   7   11.10    5.70
   2   7   7   15.10    6.60
   2   7   7   13.30    4.70
  -2   7  -7   16.60    5.60
   2   7   7    9.00    5.40
   2   7   7   12.10    6.70
  -2   7  -7    4.90    5.40
  -3  -7  -7  111.49    9.20
  -3  -7  -7  147.29   12.10
   3  -7   7  110.99    9.90
   3  -7   7   98.69    9.30
   3  -7   7  108.09    8.90
   3  -7   7  123.69    9.80
  -3  -7  -7  111.59    9.50
  -3   7  -7  125.89   11.20
   3   7   7  107.19   10.00
   3   7   7  120.49   11.10
   3   7   7  141.89   11.80
   3   7   7  125.49   11.20
  -3   7  -7  102.19    8.60
   3   7   7  110.79    9.30
  -3   7  -7  111.79    9.70
   3   7   7  137.29   13.40
  -4  -7  -7   68.39    8.00
  -4  -7  -7   81.19    9.60
   4  -7   7   67.19   10.00
  -4  -7  -7   67.49    9.50
   4  -7   7   68.09    9.70
   4   7   7   69.99    8.70
  -4   7  -7   55.29    9.00
  -4   7  -7   74.99    8.50
   4   7   7   67.39    9.10
   4   7   7   64.49   11.30
   4   7   7   63.39    9.40
   4   7   7   66.69    8.20
   5  -7   7   45.00   10.20
  -5  -7  -7   28.00    9.30
   5   7   7   19.60   13.90
   5   7   7   25.00    8.80
   5   7   7   -0.40    9.40
   5   7   7   24.30    8.80
  -5   7  -7   25.10    8.10
   5   7   7   24.00    8.10
  -6  -7  -7   71.89   11.70
   6  -7   7   59.79   12.10
  -6   7  -7   52.29   10.60
   6   7   7   48.20    9.80
   6   7   7   63.59   12.80
   6   7   7   50.89   10.50
   6   7   7   62.09   10.90
  -9  -8   7    6.40    9.20
  -9   8   7    9.70   10.00
  -9   8   7    3.50   16.40
  -8  -8   7   76.79    9.60
  -8  -8   7   95.49   12.10
  -8  -8   7   77.09    9.40
  -8   8   7   84.49   10.90
  -8   8   7   80.49   10.00
  -8   8   7   89.59   11.90
  -8   8   7   80.49   10.00
  -7  -8   7   87.99   10.60
  -7  -8   7   62.59    8.60
  -7  -8   7   78.09    8.90
  -7   8   7   51.19    9.40
  -7   8   7   62.19    8.50
  -7   8   7   68.99   10.80
  -7   8   7   65.39    8.60
  -6  -8   7   96.99   10.00
  -6  -8   7   70.79    8.00
  -6  -8   7   82.59    8.60
  -6   8   7   77.49    8.50
   6   8  -7   83.79    9.00
  -6   8   7   83.49    8.40
  -6   8   7  102.09   10.90
   6   8  -7   85.89    8.30
  -6   8   7  103.79   15.90
  -5  -8   7   72.49    7.80
  -5  -8   7   67.09    9.40
  -5  -8   7   65.99    7.40
  -5  -8   7   68.49    8.90
  -5   8   7   74.39   13.30
   5   8  -7   70.69    7.60
  -5   8   7   74.79    9.40
   5   8  -7   76.69    6.40
  -5   8   7   65.29    7.70
  -5   8   7   86.19    9.60
  -5   8   7   74.59    8.00
  -4  -8   7   14.10    7.70
  -4  -8   7   25.80    6.20
   4  -8  -7   21.40    7.80
  -4  -8   7   35.70    7.50
   4   8  -7   22.30    6.10
  -4   8   7   39.20    7.70
  -4   8   7   27.60    7.60
  -4   8   7   22.40    8.90
  -4   8   7   16.50    7.70
   4   8  -7   30.40    6.70
  -4   8   7   28.70    6.40
  -4   8   7   31.70    6.30
   4   8  -7   30.90    4.70
  -3  -8   7  175.48   13.70
   3  -8  -7  186.18   13.00
  -3  -8   7  180.58   11.10
  -3  -8   7  201.28   13.50
  -3   8   7  178.58   11.50
  -3   8   7  179.88   12.70
   3   8  -7  179.08    6.20
  -3   8   7  188.88   11.30
   3   8  -7  189.48   11.10
   3   8  -7  171.18   10.90
  -3   8   7  176.68   13.90
  -3   8   7  151.28   13.70
  -3   8   7  190.98   12.30
  -3   8   7  177.88   13.30
  -2  -8   7   86.39    6.10
  -2  -8   7  101.69    9.90
  -2  -8   7  102.29    8.60
  -2  -8   7   93.99    8.90
  -2  -8   7   91.99    7.80
  -2   8   7  113.79    9.50
  -2   8   7   98.69    9.90
  -2   8   7   87.09    7.90
   2   8  -7   96.69    7.70
  -2   8   7   98.29    9.60
  -2   8   7   98.39    9.50
   2   8  -7  109.29   10.00
  -2   8   7   86.79    8.40
  -2   8   7   82.29    8.20
  -1  -8   7  109.09   10.20
   1  -8  -7  101.09   10.60
  -1  -8   7  131.69   11.90
  -1  -8   7  103.29    9.30
   1  -8  -7  100.59   12.50
  -1  -8   7  105.49    7.90
  -1   8   7  131.29   12.70
  -1   8   7  105.29    9.70
  -1   8   7   94.89    8.10
  -1   8   7  101.59   10.60
   1   8  -7  128.59   10.30
  -1   8   7  130.09   11.80
   1   8  -7   98.59    9.90
  -1   8   7  117.19   10.00
  -1   8   7  123.39   10.40
   0  -8   7  142.99   11.80
   0  -8   7  132.69    9.80
   0  -8   7  146.09   13.30
   0  -8  -7  162.68   12.90
   0  -8   7  132.59   11.10
   0  -8  -7  128.49   11.70
   0  -8   7  149.29   12.60
   0   8   7  137.89   11.90
   0   8   7  134.39   12.90
   0   8   7  134.99   10.80
   0   8   7  139.49   10.70
   0   8   7  160.28   11.60
   0   8   7  158.68   11.30
   0   8   7  156.18   14.10
   0   8  -7  153.18   11.20
   1  -8   7   99.49    8.90
  -1  -8  -7   97.89    8.80
   1  -8   7   94.69    9.20
   1  -8   7   90.29    9.60
  -1  -8  -7  102.39    8.90
   1  -8   7  100.69    8.30
   1  -8   7  114.89    9.80
   1   8   7   74.09    8.40
   1   8   7   91.59    8.50
   1   8   7   79.29    7.30
  -1   8  -7   85.29    7.80
   1   8   7   95.89    8.50
   1   8   7   95.49   10.50
   1   8   7   87.49   10.00
  -1   8  -7   87.79    8.30
   1   8   7   96.59   10.00
   2  -8   7   80.79    9.40
  -2  -8  -7   89.89    9.00
   2  -8   7   87.29    9.60
  -2  -8  -7   93.39    9.90
   2  -8   7   94.79    9.40
   2  -8   7   90.79    9.60
   2   8   7   77.59   11.20
   2   8   7   81.99    8.30
   2   8   7   84.79    9.30
   2   8   7  134.49   12.70
   2   8   7   86.39    7.50
  -2   8  -7   91.29    8.60
   2   8   7  100.49    9.80
   3  -8   7   37.30    9.80
  -3  -8  -7   16.50    8.50
   3   8   7   26.80   12.30
  -3   8  -7   13.50    7.50
   3   8   7   17.60    9.70
   3   8   7   26.50    7.80
   3   8   7   23.70    8.90
   3   8   7   22.30    7.50
   4  -8   7   21.30   10.20
  -4  -8  -7   27.80    9.80
   4   8   7   33.50    9.30
   4   8   7   22.30   10.10
   4   8   7   49.00    9.80
  -4   8  -7   21.40    8.80
   4   8   7   12.70    9.40
   5  -8   7   50.49   12.50
  -5  -8  -7   86.69   12.30
   5   8   7   93.29   12.90
   5   8   7   87.99   11.40
  -5   8  -7   85.69   11.70
   5   8   7  100.69   12.20
   5   8   7  108.39   12.20
  -7  -9   7   15.50   11.40
  -7  -9   7    8.10   10.20
  -7  -9   7   19.80    9.40
  -7   9   7    3.20    9.00
  -7   9   7   27.50   14.80
  -7   9   7   11.60    9.30
  -7   9   7    7.50   10.10
  -6  -9   7   23.90   10.20
  -6  -9   7   35.50    8.90
  -6  -9   7   13.10    9.70
  -6  -9   7   37.70    9.00
  -6   9   7   27.20   10.90
  -6   9   7   33.10    9.00
  -6   9   7   36.40    9.30
  -5  -9   7   43.10   10.40
  -5  -9   7   23.20    8.00
  -5  -9   7   27.00    8.30
  -5  -9   7   38.60    9.60
  -5   9   7   20.00    8.20
  -5   9   7   40.60   10.80
  -5   9   7   43.50    8.90
  -4  -9   7   10.30    8.90
  -4  -9   7   14.80    7.60
  -4  -9   7   12.40    8.60
   4   9  -7   11.90    7.90
  -4   9   7    8.50    8.70
  -4   9   7   13.10    7.50
  -4   9   7   19.80    7.70
  -3  -9   7   99.79   10.50
  -3  -9   7  106.99   11.00
  -3   9   7   98.49    9.50
  -3   9   7   95.59   10.40
   3   9  -7   88.09    9.20
  -3   9   7  118.89   18.40
  -3   9   7  103.19    9.20
  -2  -9   7   28.80    9.10
  -2  -9   7   20.90    8.20
   2   9  -7    6.00    7.10
  -2   9   7   20.20    8.20
  -2   9   7    3.90    8.20
  -2   9   7   12.50    7.50
  -2   9   7   20.60    7.90
  -2   9   7   10.80   10.20
   1  -9  -7   16.00    7.70
  -1  -9   7   25.40    9.10
  -1  -9   7   19.40    9.20
  -1   9   7   23.40    7.80
   1   9  -7   13.80    7.80
  -1   9   7   13.00   10.20
  -1   9   7   38.30    8.60
  -1   9   7   28.20    9.10
  -1   9   7   18.10    7.80
  -1   9   7   20.70    9.00
   0  -9   7   21.40    9.20
   0  -9   7   44.00    9.30
   0  -9  -7   41.30    8.90
   0   9   7   22.70    7.90
   0   9   7   46.10    8.50
   0   9   7   27.50    8.60
   0   9  -7   39.40    8.40
   0   9   7   45.40    9.30
   0   9   7    7.60    8.60
   0   9   7   16.80   10.80
   1  -9   7   -3.60    9.30
  -1  -9  -7   11.60    8.40
   1  -9   7   10.10    9.30
   1   9   7   -2.50    7.70
   1   9   7   -1.60    7.90
  -1   9  -7   15.10    8.30
   1   9   7  -15.40    8.10
   1   9   7   13.10   10.20
  -2  -9  -7   59.99   10.40
   2  -9   7   65.09   10.60
   2  -9   7   58.89   10.60
   2   9   7   69.89    9.90
   2   9   7   55.79   10.60
   2   9   7   68.59   10.00
  -2   9  -7   61.39   10.10
   2   9   7   52.49    9.70
   3  -9   7   20.90   11.70
  -3  -9  -7   34.80   10.80
   3   9   7   29.10   10.70
   3   9   7   28.60   12.20
   3   9   7   24.80    9.70
   3   9   7   34.20    9.80
  -3   9  -7   29.70   11.10
  -4 -10   7    9.60   10.60
  -4 -10   7   14.00   12.30
  -4  10   7   19.60    9.80
  -4  10   7   13.40   12.30
  -4  10   7   28.00   10.30
  -3 -10   7   -1.20   10.10
  -3 -10   7  -12.40   10.40
  -3  10   7   -4.10   10.70
  -3  10   7   -0.60    9.00
  -3  10   7   -1.60    9.40
  -2 -10   7   48.30   11.70
  -2 -10   7   39.90   11.70
  -2  10   7   44.20   11.30
  -2  10   7   45.60   10.90
  -2  10   7   61.29   10.30
  -1 -10   7   31.90   11.00
  -1 -10   7   32.90   11.40
  -1  10   7   28.00    9.90
  -1  10   7   34.10    9.90
  -1  10   7   42.70   10.90
   0 -10   7    5.60   11.70
   0 -10   7   29.80   12.00
   0 -10  -7   14.60   10.60
   0  10   7   16.30   10.40
   0  10   7   21.00   10.40
   0  10   7   18.80   11.10
   0  10   7   48.60   11.20
   1 -10   7   14.30   11.90
   1 -10   7   21.30   15.20
  -1 -10  -7   25.00   11.70
   1  10   7   13.70   11.10
   1  10   7   -4.70   10.00
   1  10   7   17.00   11.00
 -12   0   8  131.59   12.30
 -12   0   8  124.09   12.40
 -12   0   8  128.39   11.50
 -12   0   8  128.39   11.40
 -11   0   8    5.90    5.00
  11   0  -8    6.10    6.50
 -11   0   8   -1.00    5.20
 -11   0   8   -6.30    5.20
 -11   0   8  -13.10    6.30
 -10   0   8  188.48   11.60
 -10   0   8  169.78   14.50
 -10   0   8  197.58    8.70
 -10   0   8  188.18    9.10
 -10   0   8  180.68    8.90
  -9   0   8   75.99    7.70
  -9   0   8   76.29    6.80
   9   0  -8   66.99    4.80
   9   0  -8   64.49    5.10
  -9   0   8   68.79    6.00
  -9   0   8   71.69    6.60
  -9   0   8   74.09    5.90
  -8   0   8   39.30    3.50
  -8   0   8   42.80    5.20
  -8   0   8   45.80    4.60
  -8   0   8   47.90    4.60
   8   0  -8   38.80    3.50
  -7   0   8  203.88    8.50
  -7   0   8  191.38    6.00
  -7   0   8  189.98    5.50
  -7   0   8  199.98    7.40
  -6   0   8   33.70    2.70
  -6   0   8   44.80    4.10
  -6   0   8   40.50    4.40
  -6   0   8   38.80    3.60
  -5   0   8   49.40    4.30
  -5   0   8   42.30    4.50
  -5   0   8   44.90    4.20
  -5   0   8   45.30    4.00
  -5   0   8   44.60    4.00
  -4   0   8  238.68    7.70
  -4   0   8  233.78    7.10
  -4   0   8  242.68    8.00
  -4   0   8  241.88    7.60
  -4   0   8  238.28    7.80
  -3   0   8  189.58    6.60
  -3   0   8  187.98    6.60
  -3   0   8  190.08    6.80
  -3   0   8  190.58    7.00
  -3   0   8  196.58    6.70
  -2   0   8 1127.49   21.80
  -2   0   8 1109.79   23.00
  -2   0   8 1118.09   22.50
  -2   0   8 1106.59   22.70
  -1   0   8    1.00    2.70
  -1   0   8   -0.30    1.50
  -1   0   8   -0.60    1.80
  -1   0   8    0.10    1.30
  -1   0   8    1.90    2.60
   0   0  -8  134.59    3.70
   0   0  -8  127.29    4.40
   0   0   8  135.79    4.60
   0   0   8  138.29    6.50
   0   0   8  129.29    6.50
   0   0   8  126.39    3.70
   0   0   8  133.19    4.90
   1   0   8   -1.70    3.10
  -1   0  -8   -1.70    2.10
   1   0   8    1.20    3.10
  -1   0  -8   -1.10    2.20
   1   0   8   -0.20    2.40
   1   0   8    3.40    2.50
  -1   0  -8    4.90    3.00
   1   0   8   -2.10    2.30
   2   0   8  117.39    6.20
   2   0   8  117.59    7.30
   2   0   8  112.39    7.10
  -2   0  -8  114.29    5.70
  -2   0  -8  112.99    7.10
   2   0   8  120.09    6.20
   2   0   8  119.89    5.90
   3   0   8  215.38    9.50
   3   0   8  202.88    8.40
  -3   0  -8  186.28    7.80
  -3   0  -8  203.78    9.40
  -3   0  -8  200.48    7.80
   3   0   8  197.18    8.20
   3   0   8  187.78    7.30
   3   0   8  200.58    9.10
   4   0   8    8.10    4.60
  -4   0  -8    6.80    4.00
  -4   0  -8   -2.90    3.80
   4   0   8   11.20    4.30
   4   0   8    4.00    4.70
   4   0   8   10.20    3.70
   4   0   8    4.40    4.50
   5   0   8   79.19    6.00
   5   0   8   76.39    7.60
   5   0   8   76.39    6.70
  -5   0  -8   80.89    8.50
  -5   0  -8   66.89    6.50
  -5   0  -8   67.09    8.10
   5   0   8   84.09    7.40
  -6   0  -8  143.89   11.00
   6   0   8  115.89   12.20
   6   0   8  128.69   12.90
   6   0   8  131.79    9.50
  -6   0  -8  167.68   11.00
   6   0   8  169.78   12.20
   6   0   8  152.08   11.30
   7   0   8   45.40    7.70
   7   0   8   47.90    9.90
  -7   0  -8   55.59    8.30
   7   0   8   51.79    7.70
   7   0   8   50.29    9.50
   8   0   8  101.49   13.30
  -8   0  -8  110.19   12.50
   8   0   8   96.39   11.20
 -12  -1   8   62.59    7.70
 -12  -1   8   58.09    9.80
 -12  -1   8   73.49   11.30
 -12  -1   8   54.89    7.80
 -12   1   8   62.79    8.00
 -12   1   8   44.90    7.50
 -12   1   8   68.79    9.90
 -12   1   8   53.19    8.10
 -11  -1   8   70.39    9.60
 -11  -1   8   61.99    6.30
 -11  -1   8   64.69    8.40
 -11  -1   8   53.59    6.40
 -11   1   8   44.70    7.90
 -11   1   8   51.09    6.20
 -11   1   8   58.99    6.60
 -11   1   8   42.70    9.90
 -11   1   8   47.70    7.00
 -10  -1   8   88.69    7.80
 -10  -1   8   85.69    7.40
 -10  -1   8   86.89   10.00
 -10  -1   8  104.09   10.40
  10  -1  -8   72.59    7.60
  10  -1  -8  100.89    8.20
 -10  -1   8  107.59    9.30
 -10   1   8   92.89    8.20
 -10   1   8   97.39    8.60
 -10   1   8   88.99    8.00
  10   1  -8   80.69    6.10
 -10   1   8   84.49    7.80
 -10   1   8   77.69    8.10
  -9  -1   8  222.78    8.10
   9  -1  -8  241.88   10.20
   9  -1  -8  222.78    7.20
  -9  -1   8  225.58    8.40
  -9  -1   8  234.28   12.10
  -9  -1   8  228.18    8.10
  -9  -1   8  239.58   10.70
   9  -1  -8  221.88    7.70
   9   1  -8  226.88    6.80
  -9   1   8  246.88    8.50
  -9   1   8  228.88    9.90
  -9   1   8  239.18   11.10
   9   1  -8  223.68    6.30
   9   1  -8  228.68    7.30
  -9   1   8  218.18    8.10
  -9   1   8  229.08   11.80
  -8  -1   8   61.29    4.80
  -8  -1   8   55.19    5.30
  -8  -1   8   70.39    5.70
  -8  -1   8   67.79    5.80
   8  -1  -8   61.09    4.10
  -8  -1   8   66.69   11.30
  -8   1   8   58.49    5.00
   8   1  -8   57.29    4.00
  -8   1   8   73.39    6.60
  -8   1   8   59.49    5.80
   8   1  -8   65.89    3.70
  -7  -1   8  764.72   14.80
  -7  -1   8  769.72   17.70
  -7  -1   8  750.22   16.00
  -7  -1   8  746.63   14.80
  -7  -1   8  785.02   18.80
   7  -1  -8  734.03   14.30
  -7  -1   8  731.03   15.20
  -7   1   8  764.92   18.20
  -7   1   8  735.83   15.20
  -7   1   8  755.32   15.50
  -7   1   8  758.02   17.40
  -7   1   8  729.43   15.00
  -6  -1   8  126.19    4.00
  -6  -1   8  129.99    5.60
  -6  -1   8  127.09    6.70
  -6  -1   8  129.39    7.70
  -6  -1   8  134.09    5.00
  -6   1   8  132.19    4.10
  -6   1   8  137.49    4.40
  -6   1   8  128.99    6.70
  -6   1   8  131.69    4.70
  -6   1   8  117.79    3.90
  -6   1   8  123.79    4.50
  -6   1   8  131.59    7.20
  -5  -1   8  429.56   10.30
  -5  -1   8  438.36   11.30
  -5  -1   8  442.06   10.60
  -5  -1   8  437.46   12.00
  -5   1   8  432.36   10.60
  -5   1   8  432.36    8.80
  -5   1   8  453.35   11.90
  -5   1   8  430.16   11.50
  -5   1   8  449.56   10.20
  -5   1   8  428.36    8.70
  -4  -1   8  671.43   15.70
  -4  -1   8  703.13   16.10
  -4  -1   8  700.43   15.10
  -4  -1   8  700.33   15.10
  -4  -1   8  684.43   15.10
  -4   1   8  694.03   14.70
  -4   1   8  701.43   16.00
  -4   1   8  697.33   14.80
  -4   1   8  699.73   16.00
  -3  -1   8  165.68    6.30
  -3  -1   8  161.58    6.30
  -3  -1   8  157.18    6.40
  -3  -1   8  167.88    6.90
  -3  -1   8  163.68    5.80
  -3   1   8  160.18    5.70
  -3   1   8  172.48    6.30
  -3   1   8  168.18    7.00
  -2  -1   8  194.88    7.40
  -2  -1   8  189.78    6.40
  -2  -1   8  191.88    7.10
  -2  -1   8  195.28    6.00
  -2   1   8  196.08    6.30
  -2   1   8  186.68    7.00
  -2   1   8  193.78    4.80
  -2   1   8  196.58    6.10
  -2   1   8  186.38    7.40
  -2   1   8  193.38    4.70
  -1  -1   8  141.09    6.50
  -1  -1   8  150.68    6.70
   1  -1  -8  147.59    3.90
  -1  -1   8  146.39    4.30
  -1  -1   8  149.49    5.30
  -1   1   8  147.19    6.60
  -1   1   8  149.39    4.60
  -1   1   8  139.99    4.40
  -1   1   8  146.19    4.60
  -1   1   8  151.08    4.70
  -1   1   8  147.89    5.90
  -1   1   8  139.39    4.30
   0  -1   8  453.05   12.00
   0  -1   8  438.16    9.70
   0  -1   8  449.16    9.70
   0  -1  -8  445.46   11.20
   0  -1   8  449.26    9.90
   0  -1  -8  437.26    9.30
   0  -1   8  442.96   12.00
   0  -1  -8  434.46    9.80
   0   1   8  442.96   11.80
   0   1  -8  452.65    9.40
   0   1  -8  442.36    8.80
   0   1  -8  450.55    8.90
   0   1   8  459.55   10.30
   0   1   8  452.35   11.20
   0   1   8  433.56   10.00
  -1  -1  -8 1512.15   29.20
   1  -1   8 1519.05   31.00
  -1  -1  -8 1578.24   29.00
   1  -1   8 1502.15   28.60
   1  -1   8 1540.25   29.30
   1  -1   8 1518.75   31.00
   1  -1   8 1501.25   29.10
  -1   1  -8 1559.24   28.70
   1   1   8 1507.55   29.30
  -1   1  -8 1531.95   28.90
  -1   1  -8 1549.94   31.10
   1   1   8 1410.56   30.60
   1   1   8 1521.75   31.00
   1   1   8 1571.94   30.40
  -2  -1  -8  108.59    5.90
  -2  -1  -8  104.99    6.70
   2  -1   8  111.19    4.90
   2  -1   8  109.49    6.00
   2  -1   8  111.79    7.10
   2  -1   8  110.99    7.60
  -2  -1  -8  106.29    5.80
   2  -1   8   98.39    5.90
   2   1   8  123.09    7.30
   2   1   8  109.69    7.10
  -2   1  -8  111.59    7.50
   2   1   8  109.29    6.10
   2   1   8  112.89    6.20
  -2   1  -8  111.19    5.50
   2   1   8   90.89    6.20
   3  -1   8   56.49    4.80
   3  -1   8   66.99    6.50
  -3  -1  -8   64.99    6.00
   3  -1   8   58.39    6.30
  -3  -1  -8   59.99    4.90
  -3  -1  -8   58.49    4.90
   3  -1   8   64.29    5.20
   3  -1   8   59.79    4.80
  -3   1  -8   54.29    4.70
   3   1   8   63.99    6.20
   3   1   8   62.59    5.10
  -3   1  -8   56.79    5.80
   3   1   8   57.89    5.70
   3   1   8   61.59    5.00
   3   1   8   59.99    5.20
  -3   1  -8   65.89    6.40
  -4  -1  -8  316.07   10.90
  -4  -1  -8  315.57   10.90
   4  -1   8  310.47   11.10
   4  -1   8  315.27   11.60
  -4  -1  -8  314.47   12.20
   4  -1   8  300.97    9.00
   4  -1   8  314.17   12.80
   4  -1   8  316.27   11.20
   4   1   8  326.87   12.20
   4   1   8  318.57   10.70
   4   1   8  321.67   11.30
  -4   1  -8  335.67   10.90
   4   1   8  317.77   11.70
  -4   1  -8  316.97   10.80
  -4   1  -8  318.77   15.90
   4   1   8  304.57   11.40
   5  -1   8  151.28    9.90
  -5  -1  -8  149.69    9.40
  -5  -1  -8  147.19    9.60
  -5  -1  -8  123.19   11.50
   5  -1   8  144.19   10.10
   5  -1   8  136.19   10.90
   5  -1   8  144.39    7.80
   5   1   8  142.99    9.70
  -5   1  -8  109.59    9.10
   5   1   8  141.69   10.40
   5   1   8  131.19   11.00
   5   1   8  141.29   10.10
  -5   1  -8  140.19   12.60
   5   1   8  140.99    9.20
  -5   1  -8  135.79    9.30
  -6  -1  -8   91.29    9.30
   6  -1   8   84.59    8.20
   6  -1   8   96.59    9.30
  -6  -1  -8   82.39    7.70
   6  -1   8   81.99    8.40
   6  -1   8   93.79    8.70
   6  -1   8   97.39    9.10
   6   1   8   87.59    8.20
   6   1   8   84.29    8.80
  -6   1  -8   96.69    8.30
   6   1   8   88.19    7.90
  -6   1  -8   98.79    8.20
   6   1   8   92.99    9.50
   6   1   8   79.99    7.80
   7  -1   8   70.59    9.00
   7  -1   8   73.19   10.60
   7  -1   8   71.09   11.10
  -7  -1  -8   59.29    8.60
   7  -1   8   50.29    9.60
   7   1   8   64.69    8.90
   7   1   8   58.29    8.60
   7   1   8   50.19    9.90
   7   1   8   76.19   10.20
  -7   1  -8   61.89    8.30
   8  -1   8   44.60   11.50
  -8  -1  -8   65.59   10.20
   8  -1   8   36.60    9.10
   8   1   8   60.89    9.90
  -8   1  -8   33.80   10.90
   8   1   8   57.99   11.80
 -12  -2   8   45.70   10.70
 -12  -2   8   36.70    7.60
 -12  -2   8   33.50    7.80
 -12  -2   8   42.90   10.10
 -12   2   8   31.60    7.70
 -12   2   8   32.70    7.40
 -12   2   8   40.10    8.90
 -12   2   8   32.40    9.80
 -11  -2   8   56.29    8.50
 -11  -2   8   34.80    5.80
 -11  -2   8   33.90    6.40
  11  -2  -8   41.80    8.80
 -11  -2   8   23.80    8.60
 -11   2   8   38.90    8.90
 -11   2   8   39.30    6.50
 -11   2   8   46.10    6.50
 -11   2   8   23.10    8.10
 -11   2   8   50.99    7.80
 -10  -2   8  317.97   13.30
  10  -2  -8  286.87   14.40
 -10  -2   8  309.17   11.10
  10  -2  -8  272.57   10.80
 -10  -2   8  315.87   10.50
 -10  -2   8  280.87   14.80
  10   2  -8  272.77   10.40
 -10   2   8  287.57   10.70
 -10   2   8  308.67   14.00
 -10   2   8  291.27   13.30
 -10   2   8  283.77   12.60
 -10   2   8  288.97   11.00
  10   2  -8  287.57    9.10
  -9  -2   8  150.08    7.30
  -9  -2   8  151.58    9.80
   9  -2  -8  141.49    6.80
  -9  -2   8  152.58   11.50
  -9  -2   8  142.29    7.70
   9   2  -8  155.88    6.70
  -9   2   8  136.09    9.40
   9   2  -8  153.18    6.80
  -9   2   8  139.09   10.20
  -9   2   8  135.79    8.00
   9   2  -8  124.29    5.70
  -9   2   8  149.99    7.60
  -9   2   8  156.48    9.50
   9   2  -8  149.49    5.50
  -9   2   8  152.18    7.70
  -8  -2   8  137.09    6.40
  -8  -2   8  134.49    5.10
  -8  -2   8  130.29    5.60
  -8  -2   8  157.48    9.80
  -8  -2   8  128.19    8.40
   8  -2  -8  149.09    8.90
   8  -2  -8  133.99    5.80
  -8  -2   8  135.79    4.90
  -8  -2   8  126.19    5.90
  -8   2   8  127.49    6.60
  -8   2   8  125.39    8.30
  -8   2   8  133.09    7.80
  -8   2   8  141.09    9.20
  -8   2   8  134.69    7.00
   8   2  -8  135.49    5.30
  -8   2   8  136.89    6.40
  -8   2   8  129.89    6.40
   8   2  -8  130.79    5.00
  -7  -2   8  114.89    6.00
  -7  -2   8  123.49    7.30
  -7  -2   8  136.69    8.70
   7  -2  -8  129.19    4.80
  -7  -2   8  132.09    5.50
  -7  -2   8  127.89    5.00
  -7  -2   8  125.89    5.10
  -7   2   8  139.89    7.70
  -7   2   8  128.79    5.40
  -7   2   8  125.89    5.60
  -7   2   8  129.59    6.80
  -7   2   8  123.09    5.60
  -7   2   8  132.69    8.20
  -7   2   8  131.69    6.00
  -6  -2   8  295.37    9.20
   6  -2  -8  276.67    6.50
  -6  -2   8  292.47    7.10
  -6  -2   8  293.97    7.50
  -6  -2   8  294.87   10.30
  -6  -2   8  284.87    6.30
  -6   2   8  283.37   10.10
  -6   2   8  290.17    7.50
  -6   2   8  281.27    7.40
  -6   2   8  287.17    7.50
  -6   2   8  292.47    9.90
  -6   2   8  284.67    7.20
  -6   2   8  286.37    8.30
  -6   2   8  286.77    7.70
  -5  -2   8  292.37    7.60
  -5  -2   8  286.27    8.50
  -5  -2   8  294.37    9.70
  -5   2   8  286.87    7.10
  -5   2   8  302.67    8.00
  -5   2   8  290.57    9.80
  -5   2   8  295.27    7.40
  -5   2   8  283.37    6.70
  -5   2   8  290.17    7.30
  -5   2   8  293.17    9.60
  -5   2   8  277.97    6.90
  -4  -2   8  228.88    8.30
  -4  -2   8  224.38    6.80
  -4  -2   8  224.88    8.70
  -4  -2   8  225.48    7.00
  -4   2   8  226.38    5.30
  -4   2   8  224.38    7.20
  -4   2   8  212.78    5.60
  -4   2   8  221.78    6.10
  -4   2   8  225.08    5.90
  -4   2   8  226.88    8.30
  -3  -2   8  269.47    7.20
  -3  -2   8  277.37    8.50
  -3  -2   8  266.97    9.10
  -3  -2   8  257.77    7.50
  -3   2   8  267.47    6.60
  -3   2   8  278.47    9.10
  -3   2   8  265.27    8.10
  -3   2   8  259.87    6.00
  -3   2   8  247.38    6.10
  -3   2   8  269.17    6.30
  -3   2   8  261.07    6.60
  -2  -2   8 1419.46   25.60
  -2  -2   8 1390.66   28.60
  -2  -2   8 1419.76   27.50
  -2  -2   8 1405.96   26.30
  -2   2   8 1398.16   28.80
  -2   2   8 1396.96   28.00
  -2   2   8 1396.36   26.30
  -2   2   8 1386.66   26.00
  -2   2   8 1404.86   26.20
  -2   2   8 1404.96   26.40
  -2   2   8 1383.46   25.90
   1  -2  -8  532.65   11.20
  -1  -2   8  526.15   10.80
   1  -2  -8  529.95   10.60
  -1  -2   8  544.25   13.80
  -1  -2   8  547.55   12.30
  -1  -2   8  534.85   10.80
  -1  -2   8  530.35   11.10
   1   2  -8  530.05   10.20
  -1   2   8  536.65   11.40
  -1   2   8  529.55   13.30
  -1   2   8  516.45   11.00
  -1   2   8  527.95   11.50
  -1   2   8  538.25   11.50
   1   2  -8  550.54   10.20
  -1   2   8  535.15   11.90
  -1   2   8  539.55   11.80
  -1   2   8  535.85   13.80
  -1   2   8  536.55   11.00
   0  -2   8  582.74   14.90
   0  -2   8  587.84   14.60
   0  -2  -8  586.44   13.20
   0  -2   8  581.54   12.50
   0  -2   8  593.44   12.90
   0  -2  -8  590.14   12.90
   0  -2   8  584.14   11.60
   0  -2  -8  579.44   12.40
   0  -2   8  590.24   11.50
   0  -2   8  595.84   12.70
   0   2  -8  596.04   11.70
   0   2  -8  590.64   11.70
   0   2   8  582.74   13.20
   0   2   8  592.14   13.00
   0   2   8  615.74   14.70
   0   2   8  598.94   13.40
   0   2   8  589.54   12.80
   0   2  -8  581.44   12.10
   0   2   8  590.94   13.00
   1  -2   8    7.90    2.70
   1  -2   8    6.00    3.70
  -1  -2  -8    7.70    2.90
   1  -2   8    8.80    3.60
   1  -2   8    6.10    2.70
   1  -2   8    8.40    2.60
  -1  -2  -8    8.00    2.60
   1  -2   8    7.30    1.60
  -1  -2  -8    5.70    2.80
   1   2   8    6.90    3.00
   1   2   8    4.90    3.30
  -1   2  -8    5.30    2.30
   1   2   8    8.10    3.80
   1   2   8    5.70    2.90
  -1   2  -8    6.80    2.30
  -1   2  -8    7.40    3.80
   1   2   8   10.60    3.40
  -1   2  -8    5.90    2.50
   2  -2   8  123.29    8.40
  -2  -2  -8  129.19    6.90
   2  -2   8  117.49    6.20
  -2  -2  -8  112.69    6.30
  -2  -2  -8  129.39    6.80
   2  -2   8  118.19    6.40
   2  -2   8  120.69    3.90
   2  -2   8  119.29    7.50
  -2   2  -8  124.49    8.30
   2   2   8  123.69    7.50
   2   2   8  119.59    7.20
   2   2   8  116.49    6.60
   2   2   8  115.59    7.10
  -2   2  -8  128.29    6.20
  -2   2  -8  113.89    6.00
   2   2   8  117.39    6.70
   3  -2   8  438.96   12.10
  -3  -2  -8  454.25   12.50
   3  -2   8  447.56   12.20
   3  -2   8  420.26    9.30
   3  -2   8  419.66   14.80
   3  -2   8  423.76   13.90
  -3  -2  -8  435.06   12.20
  -3  -2  -8  429.86   12.70
   3   2   8  401.76   15.50
   3   2   8  445.26   13.10
  -3   2  -8  436.26   11.80
   3   2   8  434.96   12.60
  -3   2  -8  442.76   11.80
   3   2   8  439.66   12.90
  -3   2  -8  425.06    9.30
   3   2   8  426.96   12.40
   4  -2   8  131.39    5.50
   4  -2   8  125.99    8.50
   4  -2   8  139.79    9.10
   4  -2   8  119.39    8.50
   4  -2   8  124.59   10.20
  -4  -2  -8  139.19    9.70
  -4  -2  -8  144.69    8.70
   4   2   8  121.59    9.10
   4   2   8  125.19    9.70
   4   2   8  125.99    9.20
  -4   2  -8  134.99   11.50
  -4   2  -8  127.69    4.50
   4   2   8  135.29    9.10
  -4   2  -8  141.69    8.20
  -4   2  -8  132.09    8.10
   4   2   8  138.09    9.40
  -5  -2  -8   74.79    8.40
   5  -2   8   63.79    5.40
   5  -2   8   61.09    6.90
  -5  -2  -8   63.39    6.60
   5  -2   8   53.79    7.50
  -5  -2  -8   52.29    6.30
   5  -2   8   58.69    6.80
   5  -2   8   66.79    6.80
   5   2   8   58.89    7.20
   5   2   8   61.69    8.30
   5   2   8   66.49    7.10
  -5   2  -8   41.10    5.80
   5   2   8   48.00    6.30
  -5   2  -8   66.49    6.50
   5   2   8   52.89    7.00
  -6  -2  -8  154.98   12.10
   6  -2   8  161.68    9.20
   6  -2   8  160.38   11.90
  -6  -2  -8  181.48   12.00
   6  -2   8  164.78   12.60
   6  -2   8  164.68   13.70
   6  -2   8  158.78   13.40
  -6   2  -8  162.58   11.80
  -6   2  -8  182.08   11.80
   6   2   8  187.18   13.50
   6   2   8  188.98   13.60
   6   2   8  179.78   13.90
   6   2   8  163.68   13.20
   6   2   8  168.38   12.50
   7  -2   8   17.60    9.20
   7  -2   8   12.80    7.50
  -7  -2  -8   10.00    7.50
   7  -2   8   29.30   13.60
   7   2   8    2.90    7.80
   7   2   8   17.10   10.20
  -7   2  -8   17.20    7.60
   8  -2   8  150.18   12.40
   8  -2   8  167.48   15.40
  -8  -2  -8  163.18   13.10
   8   2   8  156.98   13.10
  -8   2  -8  138.19   12.40
 -12  -3   8   18.50   10.20
 -12  -3   8   29.80   10.10
 -12  -3   8   28.80    8.00
 -12  -3   8   20.60    8.20
 -12   3   8    1.40    9.10
 -12   3   8   46.50   10.80
 -12   3   8   34.00    8.30
 -12   3   8   32.40    8.00
 -11  -3   8   71.79    7.70
 -11  -3   8   67.89    7.20
 -11  -3   8   59.49   10.10
 -11  -3   8   78.39    9.60
 -11   3   8   78.89    9.90
 -11   3   8   72.49    7.70
 -11   3   8   82.69    7.80
 -11   3   8   79.49    9.20
 -10  -3   8   49.60    8.00
 -10  -3   8   72.29    6.30
 -10  -3   8   63.79    6.40
 -10  -3   8   53.39    7.50
 -10   3   8   62.49    7.70
 -10   3   8   56.89    6.30
 -10   3   8   73.29   10.60
  10   3  -8   62.19    6.00
  10   3  -8   61.19    6.10
 -10   3   8   68.19    7.00
 -10   3   8   58.49    7.80
 -10   3   8   60.59    6.40
 -10   3   8   84.59    8.90
  10   3  -8   69.09    5.30
  -9  -3   8  198.68    7.20
  -9  -3   8  204.48   12.50
  -9  -3   8  202.18   10.70
   9  -3  -8  201.78   12.70
  -9  -3   8  204.78    9.10
  -9  -3   8  207.68    8.60
   9  -3  -8  188.38    8.90
  -9   3   8  212.08   10.40
  -9   3   8  186.58    9.40
   9   3  -8  185.58    7.10
   9   3  -8  189.88    6.90
  -9   3   8  160.28   13.90
  -9   3   8  201.18    9.10
  -9   3   8  223.38    9.00
  -9   3   8  184.68   11.70
  -9   3   8  217.78   11.40
  -8  -3   8   84.69    7.70
  -8  -3   8   83.39    6.30
  -8  -3   8   87.59    6.50
  -8  -3   8  103.49    7.90
  -8  -3   8   78.09    6.20
   8  -3  -8   72.69    5.80
   8  -3  -8   73.39    6.00
   8   3  -8   88.29    5.10
  -8   3   8   90.59    6.30
  -8   3   8   92.29    7.80
  -8   3   8   79.89    7.10
  -8   3   8   71.69    6.70
   8   3  -8   77.49    5.20
   8   3  -8   84.69    3.90
  -8   3   8   82.89    6.50
  -8   3   8   70.59    6.20
  -8   3   8   90.69    7.30
  -7  -3   8   14.40    4.10
   7  -3  -8   17.60    3.10
  -7  -3   8   23.70    4.40
  -7  -3   8   20.00    3.30
  -7  -3   8   21.90    3.20
  -7  -3   8   17.80    7.20
  -7   3   8   15.80    4.70
  -7   3   8   16.20    3.20
  -7   3   8   22.80    4.10
  -7   3   8   20.20    4.70
   7   3  -8   20.00    2.40
  -7   3   8   19.70    3.60
   7   3  -8   19.70    2.50
  -7   3   8   16.50    3.20
  -7   3   8   18.50    3.80
  -6  -3   8  129.89    8.20
  -6  -3   8  135.29    5.50
   6  -3  -8  128.79    5.20
  -6  -3   8  140.69    6.80
  -6  -3   8  126.89    4.90
  -6   3   8  132.29    6.40
  -6   3   8  128.79    5.60
  -6   3   8  131.19    4.60
  -6   3   8  137.09    5.90
  -6   3   8  136.39    5.70
  -6   3   8  134.69    8.00
  -6   3   8  123.09    6.00
  -6   3   8  127.19    8.20
  -6   3   8  133.99    4.40
  -5  -3   8  131.69    4.50
  -5  -3   8  134.89    7.80
  -5  -3   8  130.39    4.80
  -5  -3   8  128.29    6.10
  -5   3   8  152.08    8.10
  -5   3   8  123.89    5.30
  -5   3   8  135.59    5.20
  -5   3   8  153.78    8.00
  -5   3   8  134.29    5.50
  -5   3   8  132.39    6.00
  -5   3   8  138.89    6.00
  -4  -3   8   38.60    3.30
  -4  -3   8   37.40    3.00
  -4  -3   8   34.40    4.90
  -4  -3   8   43.40    4.60
  -4   3   8   41.60    3.60
  -4   3   8   38.50    4.80
  -4   3   8   31.00    3.00
  -4   3   8   32.00    3.80
  -4   3   8   37.60    3.00
  -4   3   8   39.20    3.80
  -3  -3   8  426.56    9.60
  -3  -3   8  449.46   12.90
  -3  -3   8  438.96   11.80
  -3   3   8  432.66   10.10
  -3   3   8  435.26   10.00
  -3   3   8  444.46   10.50
  -3   3   8  422.66    9.80
  -3   3   8  435.36   12.40
  -3   3   8  444.16   11.40
   2  -3  -8   13.60    3.40
  -2  -3   8   18.80    2.10
  -2  -3   8   16.10    1.90
  -2  -3   8   17.60    3.40
  -2  -3   8   10.60    3.80
  -2  -3   8   20.50    2.30
  -2   3   8   16.90    1.90
  -2   3   8   16.70    4.00
   2   3  -8   19.10    1.50
  -2   3   8   17.40    2.90
  -2   3   8   16.50    2.60
  -2   3   8   13.50    2.40
  -2   3   8   20.70    3.00
  -2   3   8   16.90    3.70
  -2   3   8   15.20    2.70
   1  -3  -8  181.08    7.60
  -1  -3   8  161.08    6.90
  -1  -3   8  163.48    5.60
   1  -3  -8  156.58    5.30
  -1  -3   8  168.28    8.20
  -1  -3   8  157.48    5.20
   1  -3  -8  155.18    5.80
   1   3  -8  158.98    4.90
  -1   3   8  156.68    7.40
   1   3  -8  159.68    4.80
  -1   3   8  165.58    6.60
  -1   3   8  160.38    6.20
  -1   3   8  156.38    8.00
  -1   3   8  157.48    6.00
   1   3  -8  161.68    4.10
   1   3  -8  159.88    4.10
  -1   3   8  160.48    5.30
  -1   3   8  159.78    5.80
  -1   3   8  152.68    5.20
   0  -3   8   11.10    3.20
   0  -3   8   12.60    2.70
   0  -3  -8   12.90    2.90
   0  -3  -8    9.60    2.70
   0  -3  -8    5.00    3.60
   0  -3  -8   16.60    2.80
   0  -3   8   14.10    2.80
   0  -3   8   13.10    4.20
   0   3  -8   14.30    2.20
   0   3   8   13.80    2.90
   0   3  -8   14.60    3.00
   0   3   8   21.60    3.40
   0   3  -8   12.70    2.60
   0   3   8   13.20    3.20
   0   3   8   10.80    2.70
   0   3   8   16.10    3.70
   0   3  -8   14.20    2.30
   0   3   8    9.80    4.20
   0   3   8   17.50    3.00
   1  -3   8  162.38    6.70
   1  -3   8  176.48    6.90
  -1  -3  -8  169.58    6.60
  -1  -3  -8  168.18    7.00
  -1  -3  -8  136.19    8.30
  -1  -3  -8  165.68    7.20
   1  -3   8  165.08    8.80
   1   3   8  164.48    7.40
   1   3   8  173.88    7.10
   1   3   8  160.78    6.90
  -1   3  -8  177.28    6.40
   1   3   8  159.88    8.20
   1   3   8  159.58    7.40
  -1   3  -8  164.38    6.40
  -1   3  -8  174.58    6.50
  -1   3  -8  169.88    6.30
  -1   3  -8  158.88    6.00
   1   3   8  179.48    6.90
   2  -3   8  107.99    8.60
   2  -3   8   92.49    6.50
  -2  -3  -8   84.99    6.50
   2  -3   8   98.89    6.60
   2  -3   8  113.49    8.40
  -2  -3  -8  102.59    6.80
   2   3   8  100.09    7.10
   2   3   8   89.19    7.70
  -2   3  -8   90.09    6.20
  -2   3  -8   88.79    5.20
   2   3   8   94.19    6.50
   2   3   8  104.39    6.90
   2   3   8   92.09    7.90
  -2   3  -8   92.09    5.80
   2   3   8  104.39    7.30
  -3  -3  -8   19.30    4.60
  -3  -3  -8   17.70    4.60
   3  -3   8   20.10    4.50
   3  -3   8   22.60    5.60
   3  -3   8   20.90    4.50
   3  -3   8   38.10    6.00
  -3  -3  -8   24.70    4.60
   3  -3   8   22.80    4.50
   3   3   8   22.00    4.70
   3   3   8   30.20    5.00
   3   3   8   31.10    5.50
  -3   3  -8   28.20    4.30
  -3   3  -8   26.70    3.40
   3   3   8   21.70    4.90
   3   3   8   28.40    5.40
  -3   3  -8   21.30    4.40
  -3   3  -8   22.50    6.00
   4  -3   8   37.90    5.90
  -4  -3  -8   33.20    5.90
   4  -3   8   27.80    5.30
   4  -3   8   34.40    7.40
  -4  -3  -8   39.00    5.80
   4  -3   8   34.30    5.50
   4  -3   8   26.70    6.20
  -4  -3  -8   36.00    5.50
  -4   3  -8   33.50    3.70
   4   3   8   37.40    6.20
   4   3   8   32.00    6.00
   4   3   8   43.00    7.20
  -4   3  -8   38.80    5.20
  -4   3  -8   42.10    5.30
   4   3   8   35.80    6.00
   5  -3   8  178.88   11.50
  -5  -3  -8  176.78   11.20
  -5  -3  -8  188.08   11.80
   5  -3   8  177.08   11.20
   5  -3   8  202.08   13.50
   5  -3   8  182.28   11.30
  -5   3  -8  177.88    7.30
   5   3   8  179.48   12.70
  -5   3  -8  155.48   10.20
   5   3   8  149.29   12.40
   5   3   8  188.98   12.60
   5   3   8  163.28   11.70
  -5   3  -8  186.78   10.70
   6  -3   8   73.99    8.80
  -6  -3  -8   95.49    9.20
   6  -3   8   95.69   10.40
   6  -3   8  102.09    9.10
  -6  -3  -8   97.29    8.90
   6   3   8  100.89    9.70
  -6   3  -8   95.49    9.00
  -6   3  -8   77.99    8.40
   6   3   8  100.19   10.30
   7  -3   8   54.79    9.00
   7  -3   8   63.89   11.00
  -7  -3  -8   75.19   10.20
  -7   3  -8   68.79    9.00
   7   3   8   52.29    9.30
   8  -3   8   21.40    9.40
  -8  -3  -8   31.90   11.30
   8  -3   8   13.40   13.10
   8   3   8   29.70   10.30
  -8   3  -8    9.00   10.60
 -11  -4   8   40.00    7.30
 -11  -4   8   38.80   10.40
 -11  -4   8   39.50    8.70
 -11  -4   8   29.20    7.60
 -11   4   8   32.60    7.40
 -11   4   8   39.90    7.50
 -11   4   8   35.20    9.70
 -11   4   8   34.50    9.60
 -10  -4   8   63.99    9.50
 -10  -4   8   47.40    7.50
 -10  -4   8   38.10    6.10
 -10  -4   8   38.20    6.60
 -10   4   8   42.30    6.50
 -10   4   8   40.30    7.90
 -10   4   8   37.90    8.10
 -10   4   8   39.60    6.50
  -9  -4   8   47.60    5.60
   9  -4  -8   30.60    5.60
  -9  -4   8   47.00    5.80
  -9  -4   8   51.39    6.70
  -9  -4   8   36.40    7.40
  -9  -4   8   47.40    5.30
  -9   4   8   40.50    5.50
  -9   4   8   52.79    8.00
  -9   4   8   56.69    7.80
  -9   4   8   45.40    5.70
  -9   4   8   55.69    9.70
  -9   4   8   45.60    4.60
  -9   4   8   45.80    6.40
   9   4  -8   42.80    7.70
   9   4  -8   33.60    5.40
   9   4  -8   46.20    5.60
   9   4  -8   42.00    4.50
   8  -4  -8  276.97   10.10
  -8  -4   8  263.97   10.80
  -8  -4   8  271.27   12.80
  -8  -4   8  263.87    9.30
   8  -4  -8  263.87   13.50
  -8  -4   8  267.67   10.30
  -8  -4   8  258.17    9.80
   8   4  -8  245.48    9.00
  -8   4   8  255.77    9.90
  -8   4   8  281.67   12.70
  -8   4   8  264.27   10.50
   8   4  -8  261.07    7.60
  -8   4   8  253.37   12.00
   8   4  -8  245.18    7.90
  -8   4   8  251.57    7.20
  -8   4   8  274.37    9.70
  -8   4   8  257.67   10.90
   8   4  -8  277.37    8.60
  -7  -4   8    6.60    3.60
   7  -4  -8    1.50    3.30
  -7  -4   8   -0.30    3.20
  -7  -4   8    2.70    4.90
  -7  -4   8    5.60    4.00
   7  -4  -8    5.90    5.80
  -7  -4   8    6.90    4.50
   7  -4  -8    2.60    3.60
  -7   4   8    6.30    4.70
   7   4  -8    3.20    2.10
  -7   4   8    0.90    6.20
   7   4  -8    4.50    2.90
  -7   4   8    4.20    4.40
  -7   4   8    5.40    3.50
  -7   4   8    4.10    3.90
   7   4  -8    1.00    2.80
  -7   4   8    1.70    3.30
  -6  -4   8   49.70    4.50
   6  -4  -8   44.50    4.00
  -6  -4   8   40.30    5.30
  -6  -4   8   47.40    4.50
  -6  -4   8   47.40    3.90
  -6   4   8   42.60    4.70
   6   4  -8   42.60    3.80
  -6   4   8   51.29    5.30
  -6   4   8   43.00    5.90
  -6   4   8   35.00    4.00
  -6   4   8   42.20    4.20
  -6   4   8   42.70    4.70
   6   4  -8   43.50    3.30
  -6   4   8   35.50    5.40
  -5  -4   8  282.77    8.50
   5  -4  -8  284.67    8.20
  -5  -4   8  282.37    8.00
   5  -4  -8  277.17    8.40
  -5  -4   8  277.17   10.70
  -5   4   8  290.47    8.70
  -5   4   8  273.47    9.10
   5   4  -8  275.47    6.90
  -5   4   8  287.87   11.00
  -5   4   8  292.07    8.50
  -5   4   8  280.37    8.90
   5   4  -8  272.57    6.70
  -5   4   8  271.37    9.20
  -4  -4   8   42.00    4.90
  -4  -4   8   47.80    4.30
   4  -4  -8   55.89    5.40
  -4  -4   8   39.00    3.40
  -4  -4   8   41.50    5.40
  -4  -4   8   45.60    3.30
  -4   4   8   44.60    4.70
  -4   4   8   47.80    4.50
  -4   4   8   42.40    4.10
  -4   4   8   51.99    5.70
  -4   4   8   40.10    4.70
  -4   4   8   45.70    3.80
   4   4  -8   30.60    3.40
   4   4  -8   43.50    3.30
  -4   4   8   51.39    4.60
  -3  -4   8  707.93   14.80
  -3  -4   8  691.93   14.70
  -3  -4   8  707.23   18.10
  -3  -4   8  704.73   17.00
  -3  -4   8  702.93   14.00
   3  -4  -8  722.13   16.40
  -3   4   8  656.83   18.30
  -3   4   8  716.83   17.60
  -3   4   8  692.63   15.40
  -3   4   8  723.03   16.10
  -3   4   8  719.63   15.30
   3   4  -8  729.73   14.00
  -3   4   8  703.33   16.60
  -3   4   8  691.93   15.60
  -2  -4   8  320.77   10.40
  -2  -4   8  344.97    8.80
  -2  -4   8  326.37    9.10
  -2  -4   8  330.57   11.50
  -2  -4   8  337.47    8.50
   2  -4  -8  333.67    9.30
   2  -4  -8  344.07   10.50
  -2   4   8  326.07    9.60
  -2   4   8  330.27    9.30
  -2   4   8  334.77   10.70
  -2   4   8  339.87    9.30
  -2   4   8  338.57   10.50
  -2   4   8  340.77   11.40
  -2   4   8  329.47    9.10
   2   4  -8  334.87    8.00
   2   4  -8  326.87    7.30
   2   4  -8  344.77    7.40
   2   4  -8  345.27    8.10
  -1  -4   8   43.40    5.30
  -1  -4   8   45.70    4.70
   1  -4  -8   45.60    4.10
   1  -4  -8   41.90    3.70
  -1  -4   8   47.90    3.90
   1  -4  -8   49.20    5.10
  -1  -4   8   40.60    4.30
  -1   4   8   49.99    4.10
   1   4  -8   39.90    3.90
  -1   4   8   47.70    4.60
  -1   4   8   47.20    4.60
  -1   4   8   51.09    5.40
   1   4  -8   44.90    4.50
  -1   4   8   51.19    4.10
   1   4  -8   44.50    4.10
  -1   4   8   48.10    4.40
  -1   4   8   38.50    4.80
   1   4  -8   44.40    3.70
   0  -4  -8  178.48    7.20
   0  -4  -8  172.48    8.80
   0  -4   8  172.18    7.10
   0  -4   8  168.38    6.80
   0  -4  -8  174.78    7.60
   0  -4   8  182.58    8.00
   0  -4   8  179.88    9.30
   0  -4   8  162.78    7.90
   0   4  -8  172.38    7.60
   0   4  -8  145.39    6.20
   0   4   8  182.58    8.70
   0   4  -8  184.48    6.60
   0   4  -8  172.08    6.60
   0   4   8  182.38    8.00
   0   4  -8  173.68    6.20
   0   4   8  172.78    7.90
   0   4   8  173.18    7.30
   0   4   8  189.58    7.20
   0   4   8  172.78    8.90
   0   4   8  166.68    5.10
   1  -4   8   94.99    7.60
  -1  -4  -8   94.39    6.80
   1  -4   8   93.69    6.50
   1  -4   8   78.59    6.50
   1  -4   8   98.49    8.50
   1  -4   8  106.79    6.90
  -1  -4  -8   90.79    5.20
  -1  -4  -8   93.49    6.70
   1   4   8   86.19    7.30
  -1   4  -8   91.19    5.70
  -1   4  -8   88.99    6.20
   1   4   8  104.49    6.70
   1   4   8   87.39    7.60
   1   4   8   91.09    7.80
  -1   4  -8   94.69    6.20
  -1   4  -8   98.89    6.10
   2  -4   8  159.98    8.00
   2  -4   8  160.68    7.90
   2  -4   8  169.68    8.40
  -2  -4  -8  154.38    8.40
   2  -4   8  154.78    9.60
   2  -4   8  158.08   10.20
  -2  -4  -8  164.08    8.30
  -2  -4  -8  163.18   10.60
  -2  -4  -8  142.59    7.40
  -2   4  -8  153.88    8.10
   2   4   8  158.18    9.30
  -2   4  -8  145.09   10.90
  -2   4  -8  164.38    7.70
   2   4   8  158.28    8.90
   2   4   8  153.08   10.10
   2   4   8  163.68    8.20
   2   4   8  166.28    9.10
  -2   4  -8  165.58    7.60
   2   4   8  139.29   10.90
   3  -4   8   20.30    6.60
   3  -4   8   17.60    5.10
   3  -4   8   18.10    4.60
   3  -4   8   10.40    5.60
  -3  -4  -8   20.40    5.00
  -3  -4  -8   22.80    4.80
  -3   4  -8   17.40    6.60
   3   4   8   13.20    4.60
  -3   4  -8   13.10    4.30
   3   4   8   17.10    5.40
   3   4   8   19.10    5.60
   3   4   8   22.40    4.60
   3   4   8   26.40    5.70
   3   4   8    5.80    5.60
  -3   4  -8   13.90    5.00
  -3   4  -8   20.10    4.40
   4  -4   8  107.19    9.50
   4  -4   8  111.69    9.80
  -4  -4  -8   88.39    7.50
   4  -4   8   98.79    8.70
  -4  -4  -8  108.39    8.00
  -4  -4  -8   96.99    9.70
   4  -4   8  103.39    8.30
  -4   4  -8   97.29    9.00
   4   4   8  114.79   10.50
   4   4   8   89.59    8.00
  -4   4  -8  102.49    7.40
   4   4   8  106.79    9.10
  -4   4  -8   97.39    9.30
   4   4   8  120.69   11.90
   4   4   8  100.59    8.30
  -5  -4  -8  223.58   15.80
  -5  -4  -8  244.38   13.30
   5  -4   8  240.38   14.00
   5  -4   8  243.98   14.90
   5  -4   8  237.18   13.10
   5  -4   8  222.48   13.20
  -5   4  -8  231.18   12.20
  -5   4  -8  242.38   10.10
   5   4   8  248.98   14.30
   5   4   8  243.58   13.70
  -5   4  -8  230.68   12.00
   5   4   8  241.08   15.10
   6  -4   8   32.40   15.10
  -6  -4  -8   39.20    8.40
   6  -4   8   34.30    8.20
   6  -4   8   47.90    9.00
   6   4   8   42.00   10.20
   6   4   8   32.10    7.70
  -6   4  -8   43.10    7.80
   7  -4   8   -1.50   10.10
   7  -4   8   13.50    8.70
  -7  -4  -8    5.20    9.40
   7   4   8    3.80    8.10
  -7   4  -8   -0.90    8.90
 -11  -5   8   57.79   10.20
 -11  -5   8   58.09    8.80
 -11  -5   8   32.10   11.10
 -11  -5   8   56.49    9.10
 -11   5   8   68.59   11.90
 -11   5   8   49.90    9.10
 -11   5   8   50.89   10.40
 -11   5   8   57.29    9.20
 -10  -5   8   52.09    8.80
 -10  -5   8   59.79    8.30
 -10  -5   8   55.99    7.70
 -10  -5   8   50.29    9.30
 -10   5   8   51.69    7.60
 -10   5   8   62.49    9.50
 -10   5   8   58.79    9.70
 -10   5   8   54.49    7.80
  -9  -5   8  112.39    8.30
  -9  -5   8  113.59   10.10
  -9  -5   8   99.79    9.10
  -9  -5   8  123.69    9.00
  -9  -5   8  113.79    9.70
  -9   5   8  109.79   10.20
  -9   5   8  131.89   10.00
  -9   5   8  131.69   10.40
  -9   5   8  116.09   10.20
  -8  -5   8   18.40    6.50
  -8  -5   8   17.80    5.10
  -8  -5   8    7.10    5.20
  -8  -5   8   12.50    4.70
  -8  -5   8    9.50    6.00
  -8   5   8    8.30    5.80
  -8   5   8   11.30    5.00
   8   5  -8   13.90    4.40
  -8   5   8    7.40    5.80
   8   5  -8    8.90    4.90
  -8   5   8   12.90    4.90
  -8   5   8    7.10    5.40
  -8   5   8   12.20    6.60
  -7  -5   8   43.10    5.20
   7  -5  -8   48.70    5.50
  -7  -5   8   47.60    6.90
  -7  -5   8   49.10    5.10
  -7  -5   8   51.09    7.10
  -7  -5   8   38.80    5.30
  -7   5   8   43.80    5.20
  -7   5   8   44.50    5.90
  -7   5   8   47.10    5.40
  -7   5   8   50.99    7.10
   7   5  -8   41.90    4.10
  -7   5   8   44.10    6.80
   7   5  -8   47.00    5.80
  -7   5   8   44.30    5.90
  -7   5   8   43.20    7.40
  -6  -5   8  584.44   14.20
  -6  -5   8  570.64   16.60
  -6  -5   8  596.44   17.30
  -6  -5   8  583.34   14.50
   6  -5  -8  530.85   14.20
  -6  -5   8  594.24   14.50
   6  -5  -8  608.84   13.80
   6   5  -8  594.44   13.40
  -6   5   8  603.24   15.70
  -6   5   8  645.24   17.90
  -6   5   8  596.34   15.50
  -6   5   8  573.64   17.50
   6   5  -8  574.04   14.90
  -6   5   8  584.74   15.00
   6   5  -8  571.74   12.70
  -6   5   8  633.14   17.60
  -6   5   8  587.54   14.90
   5  -5  -8  295.77    9.30
   5  -5  -8  242.78    9.10
  -5  -5   8  282.77   18.10
  -5  -5   8  282.97    8.80
  -5  -5   8  276.27    8.90
  -5  -5   8  283.37   12.90
  -5   5   8  290.67    9.40
  -5   5   8  277.87   10.30
   5   5  -8  278.07    8.10
  -5   5   8  286.67   11.80
  -5   5   8  282.57   10.00
  -5   5   8  300.37   11.80
  -5   5   8  274.07    9.40
   5   5  -8  281.57    8.00
   5   5  -8  261.77    9.00
  -5   5   8  295.07   10.40
   4  -5  -8   24.60    4.10
  -4  -5   8   20.90    3.10
  -4  -5   8   14.10    6.20
  -4  -5   8   24.10    5.00
   4   5  -8   20.40    2.60
  -4   5   8   19.50    5.10
  -4   5   8   18.60    4.40
  -4   5   8   16.80    3.70
   4   5  -8   23.10    3.20
  -4   5   8   17.40    4.40
  -4   5   8   20.10    3.80
  -4   5   8   15.40    4.40
   4   5  -8    8.10    2.70
   4   5  -8   18.90    3.10
  -4   5   8   23.00    5.00
  -3  -5   8  208.48    6.40
  -3  -5   8  230.98    9.90
   3  -5  -8  226.28    9.00
  -3  -5   8  179.38   14.80
  -3  -5   8  220.78    7.70
  -3   5   8  177.58   15.70
   3   5  -8  208.08    6.80
  -3   5   8  193.38    8.80
   3   5  -8  222.48    6.40
  -3   5   8  180.38    9.40
  -3   5   8  220.18    9.30
  -3   5   8  216.08    8.90
  -3   5   8  221.08    8.10
  -3   5   8  212.78    9.10
  -2  -5   8   61.49    5.50
   2  -5  -8   69.19    6.60
   2  -5  -8   73.69    6.00
  -2  -5   8   61.19    5.70
  -2  -5   8   51.69    6.80
  -2  -5   8   70.79    6.20
  -2  -5   8   60.19    5.10
  -2   5   8   53.79    6.50
  -2   5   8   61.19    5.50
  -2   5   8   70.59    5.80
   2   5  -8   65.79    4.50
  -2   5   8   71.49    6.00
   2   5  -8   67.89    6.00
  -2   5   8   65.39    5.10
  -2   5   8   64.89    6.80
  -2   5   8   62.89    8.10
   2   5  -8   76.39    5.40
   2   5  -8   60.89    5.00
  -1  -5   8  556.74   13.50
  -1  -5   8  575.54   15.00
  -1  -5   8  574.34   13.70
   1  -5  -8  547.25   14.00
   1  -5  -8  546.15   13.60
   1   5  -8  552.94   13.00
  -1   5   8  559.04   14.60
  -1   5   8  533.15   14.50
   1   5  -8  550.04   12.50
  -1   5   8  552.04   15.90
   1   5  -8  540.95   13.00
  -1   5   8  555.04   13.90
  -1   5   8  535.85   12.90
  -1   5   8  533.05   14.10
  -1   5   8  561.64   15.50
   1   5  -8  556.24   14.90
   0  -5   8  130.69    8.30
   0  -5   8  114.49    7.10
   0  -5  -8  121.19    7.50
   0  -5   8  119.99    9.60
   0  -5   8  106.09    7.30
   0  -5   8  116.99    7.20
   0  -5  -8  128.09    7.80
   0   5  -8  102.59   10.00
   0   5  -8  107.09    6.30
   0   5   8  119.39    7.30
   0   5  -8  111.09    6.90
   0   5   8  132.69    8.80
   0   5   8  118.99    7.20
   0   5  -8  130.49    7.80
   0   5   8  100.89    8.30
   0   5  -8  123.39    7.20
   0   5   8  121.09    8.70
   0   5   8  107.49    8.30
   0   5   8  111.19    5.60
  -1  -5  -8   66.89    7.20
   1  -5   8   57.29    6.50
   1  -5   8   71.79    7.10
  -1  -5  -8   72.99    6.10
   1  -5   8   59.09    5.90
   1  -5   8   69.19    5.70
  -1  -5  -8   61.59    4.90
   1  -5   8   68.39    6.20
  -1  -5  -8   69.09    5.80
   1   5   8   57.19    5.80
   1   5   8   75.39    7.20
  -1   5  -8   61.39    5.40
  -1   5  -8   70.39    6.50
   1   5   8   73.89    6.40
  -1   5  -8   73.29    7.20
   1   5   8   79.49    7.30
   1   5   8   67.29    4.00
  -1   5  -8   77.39    6.40
   1   5   8   61.49    6.00
   1   5   8   75.49    7.20
   2  -5   8  577.94   17.70
   2  -5   8  552.44   15.10
  -2  -5  -8  567.14   15.90
  -2  -5  -8  539.85   13.60
   2  -5   8  534.65   15.90
   2  -5   8  565.84   15.30
   2  -5   8  558.84   15.30
  -2   5  -8  540.95   14.70
  -2   5  -8  545.45   15.40
   2   5   8  538.15   17.70
   2   5   8  547.85   15.50
   2   5   8  567.34   16.70
   2   5   8  554.24   16.90
   2   5   8  571.74   16.50
  -2   5  -8  581.04   15.10
   2   5   8  583.24   16.90
  -2   5  -8  576.94   15.00
   2   5   8  580.34   15.70
  -3  -5  -8  138.69   10.20
  -3  -5  -8  136.19   10.00
   3  -5   8  136.19   12.10
   3  -5   8  141.29   10.00
   3  -5   8  149.49   10.60
  -3  -5  -8  141.49    8.70
   3  -5   8  130.99   11.20
  -3   5  -8  151.58    9.40
   3   5   8  153.48   11.20
   3   5   8  146.09   11.40
   3   5   8  133.79   11.50
  -3   5  -8  137.19    9.00
  -3   5  -8  140.29    9.60
   3   5   8  153.98    9.90
   3   5   8  129.59    9.90
   3   5   8  152.78   10.90
  -4  -5  -8   90.89    7.80
   4  -5   8   88.79    8.00
  -4  -5  -8   82.39    8.10
   4  -5   8   87.59    8.20
   4  -5   8   86.59    9.20
  -4  -5  -8  101.09    8.40
   4   5   8  105.69   10.40
   4   5   8   87.59    8.70
   4   5   8   89.99    9.10
  -4   5  -8   99.09    8.00
   4   5   8  104.09    9.30
   4   5   8   96.29    8.10
  -4   5  -8   96.49    9.20
   5  -5   8   43.00    8.20
   5  -5   8   15.20    8.30
  -5  -5  -8   30.50    7.90
   5  -5   8   36.10    9.20
  -5   5  -8   18.80    6.90
   5   5   8   22.40    6.70
   5   5   8   29.20    8.30
   5   5   8   36.20    9.30
   5   5   8   23.80    7.30
  -5   5  -8   36.20    6.80
   6  -5   8   16.20    8.10
   6  -5   8   28.70    9.90
  -6  -5  -8   29.40    9.10
   6   5   8   18.00    9.50
  -6   5  -8   25.20    8.40
   6   5   8   33.90    8.70
   7  -5   8  181.58   21.10
  -7  -5  -8  142.79   13.60
   7  -5   8  173.58   17.50
   7   5   8  155.78   17.90
   7   5   8  102.99   12.80
 -10  -6   8    3.10    7.80
 -10  -6   8    6.10    7.80
 -10  -6   8   13.90    8.70
 -10  -6   8    8.00    9.40
 -10   6   8   22.40    8.20
 -10   6   8   14.90   10.00
 -10   6   8   11.60    9.90
 -10   6   8   16.60    8.00
  -9  -6   8   67.89    8.10
  -9  -6   8   64.09    8.30
  -9  -6   8   79.79   10.00
  -9  -6   8   75.99    7.90
  -9   6   8   68.09   10.30
  -9   6   8   88.79   10.30
  -9   6   8   69.69    7.90
  -9   6   8   74.19    8.30
  -8  -6   8  118.69   10.30
  -8  -6   8  132.69    9.80
  -8  -6   8  126.39   10.30
  -8  -6   8  137.59   13.00
  -8   6   8  151.18   11.00
   8   6  -8  119.59    9.70
  -8   6   8  133.49   10.60
  -8   6   8  137.79   13.20
  -8   6   8   99.49    9.70
  -7  -6   8    7.20    4.90
  -7  -6   8   -2.40    6.40
  -7  -6   8   10.50    5.20
   7  -6  -8    8.00    4.40
  -7  -6   8   20.00    7.60
  -7  -6   8   19.90    5.30
  -7   6   8   13.20    5.10
   7   6  -8    8.40    5.80
  -7   6   8   13.90    6.10
  -7   6   8    7.50    6.90
  -7   6   8    3.80    5.70
   7   6  -8   17.40    4.60
  -7   6   8   12.80    6.40
   7   6  -8   14.50    5.10
  -7   6   8   14.30    5.30
   7   6  -8    6.90    5.30
  -6  -6   8   69.39    8.30
  -6  -6   8   63.29    7.50
  -6  -6   8   65.39    6.10
  -6  -6   8   63.29    5.80
   6  -6  -8   75.09    5.60
  -6  -6   8   74.59    7.40
   6  -6  -8   56.99    6.50
  -6   6   8   82.59    8.20
  -6   6   8   80.59    8.20
   6   6  -8   74.99    6.50
  -6   6   8   67.09    8.90
  -6   6   8   72.29    6.90
   6   6  -8   87.29    9.60
  -6   6   8   78.29    8.50
   6   6  -8   77.79    7.50
   6   6  -8   63.29    5.50
  -6   6   8   64.19    7.10
  -5  -6   8   42.90    7.40
  -5  -6   8   42.40    6.50
  -5  -6   8   51.89    4.70
  -5  -6   8   44.50    5.10
   5  -6  -8   53.59    5.50
  -5  -6   8   53.59    7.90
   5  -6  -8   46.40    5.90
  -5   6   8   48.80    5.40
  -5   6   8   55.69    5.50
  -5   6   8   52.69    6.20
   5   6  -8   50.99    4.30
   5   6  -8   44.30    4.80
  -5   6   8   51.19    6.30
  -5   6   8   55.29    7.60
  -5   6   8   45.70    5.80
   5   6  -8   51.89    4.60
  -5   6   8   45.40    7.00
  -4  -6   8   89.49    8.60
   4  -6  -8  101.39    8.30
  -4  -6   8   87.59    7.40
  -4   6   8  102.79    8.60
   4   6  -8   91.79    5.80
  -4   6   8   87.29    7.40
  -4   6   8   81.09    6.90
   4   6  -8   68.09    5.30
  -4   6   8   78.59    7.30
  -4   6   8   90.99    8.60
   4   6  -8   74.49    6.70
  -4   6   8  101.99   10.10
   4   6  -8   79.69    6.60
  -4   6   8   96.99    9.80
  -3  -6   8  111.29   10.60
  -3  -6   8  110.49    4.70
  -3  -6   8  129.49    7.90
   3  -6  -8  121.39    8.90
  -3   6   8  102.99    7.60
  -3   6   8  109.79    8.50
   3   6  -8  100.29    7.00
  -3   6   8  102.49    9.20
  -3   6   8  115.29    7.50
  -3   6   8  101.29    8.90
   3   6  -8  113.99    7.20
   3   6  -8  119.99    7.00
  -3   6   8  124.99    9.70
  -3   6   8   96.79    9.00
   3   6  -8  109.99   10.60
   3   6  -8  102.29    6.00
  -2  -6   8    8.00    5.20
  -2  -6   8   16.40    3.60
  -2  -6   8   11.30    5.40
   2  -6  -8   14.00    4.60
  -2  -6   8   19.60    4.30
  -2   6   8   17.20    5.00
  -2   6   8   16.90    4.30
  -2   6   8   16.20    4.30
   2   6  -8   14.90    4.10
  -2   6   8   16.10    5.00
   2   6  -8   10.70    3.90
  -2   6   8   18.30    5.50
   2   6  -8    9.70    3.50
  -2   6   8   18.60    5.10
  -2   6   8   25.30    4.90
  -1  -6   8   99.99    7.60
  -1  -6   8  107.49    7.40
   1  -6  -8  128.89   10.70
  -1  -6   8   99.99    9.00
  -1  -6   8  121.19   10.40
   1  -6  -8   90.79    7.80
  -1  -6   8  101.59    7.20
   1  -6  -8   90.59    8.10
  -1   6   8   91.69    7.70
   1   6  -8   98.09    6.90
   1   6  -8   90.29    7.70
  -1   6   8   94.19    7.70
  -1   6   8   96.99    9.40
   1   6  -8   94.99    7.00
  -1   6   8   88.99    8.90
  -1   6   8   88.89    9.00
   0  -6   8  166.48   10.20
   0  -6  -8  137.59   11.60
   0  -6  -8  157.78    9.40
   0  -6   8  184.78   11.50
   0  -6   8  152.18    8.60
   0  -6  -8  157.88    9.30
   0  -6   8  157.38    8.70
   0  -6   8  150.98    8.90
   0   6   8  173.58   11.10
   0   6   8  163.38    9.10
   0   6   8  132.59    7.20
   0   6   8  157.68   10.70
   0   6   8  157.78   10.40
   0   6   8  161.98    8.90
   0   6   8  163.18   10.70
   0   6  -8  164.38    8.40
   0   6  -8  146.29    9.20
   0   6  -8  155.08    8.10
  -1  -6  -8  133.69   10.10
   1  -6   8  137.69    9.10
   1  -6   8  125.99    9.00
   1  -6   8  152.18   11.50
   1  -6   8  141.99   10.20
   1  -6   8  129.69    9.60
  -1  -6  -8  132.29    5.30
  -1   6  -8  139.99    8.70
  -1   6  -8  142.79    9.90
  -1   6  -8  141.49    8.50
   1   6   8  147.89    9.20
   1   6   8  152.78    9.20
   1   6   8  144.89   10.80
   1   6   8  158.78   10.80
   1   6   8  123.29   12.10
   1   6   8  150.58   10.90
  -1   6  -8  113.79    9.80
   1   6   8  132.59    6.40
  -2  -6  -8   41.90    4.40
  -2  -6  -8   39.60    6.50
   2  -6   8   49.80    6.40
   2  -6   8   42.30    7.50
  -2  -6  -8   45.20    6.70
   2  -6   8   36.30    5.90
   2  -6   8   53.69    6.70
   2  -6   8   53.99    7.60
   2   6   8   44.10    7.30
  -2   6  -8   43.50    5.90
  -2   6  -8   34.60    5.90
   2   6   8   52.29    7.80
   2   6   8   36.20    6.10
   2   6   8   52.29    6.40
  -2   6  -8   37.10    6.40
   2   6   8   39.10    7.40
   2   6   8   34.70    6.60
   3  -6   8   -3.50    6.80
   3  -6   8    3.60   10.30
   3  -6   8   17.80    6.20
   3  -6   8   -0.90    6.50
  -3  -6  -8    1.90    6.20
  -3  -6  -8    7.80    5.10
  -3  -6  -8    7.20    6.30
  -3   6  -8    5.60    5.70
   3   6   8   -6.90    6.40
   3   6   8   -0.50    5.40
   3   6   8   10.40    7.90
   3   6   8    0.40    5.90
   3   6   8    3.90    7.20
   3   6   8    8.20    6.40
  -3   6  -8    6.20    5.70
   4  -6   8  117.69   10.80
  -4  -6  -8  114.29   10.30
  -4  -6  -8  112.69    9.10
   4  -6   8  113.49   12.00
   4   6   8  136.69   12.80
   4   6   8  134.39   11.90
   4   6   8  126.49   13.10
  -4   6  -8  117.99    9.30
   4   6   8  108.19    9.70
   4   6   8  134.19   12.50
   5  -6   8   77.79   11.20
  -5  -6  -8   75.29   10.20
   5   6   8   73.99   10.90
   5   6   8   55.19    9.40
   5   6   8   78.39   10.00
  -5   6  -8   69.39    9.30
   5   6   8   59.79    9.10
   6  -6   8   10.90    9.40
   6  -6   8   10.40   10.90
  -6  -6  -8   -0.50   10.10
   6   6   8   14.40   10.20
   6   6   8   15.20   11.20
   6   6   8   -6.90    8.70
   6   6   8    6.90    9.30
  -9  -7   8   28.60    8.20
  -9  -7   8   24.60    8.40
  -9  -7   8   17.00   10.20
  -9  -7   8   34.00    9.00
  -9   7   8   51.59   11.50
  -9   7   8   31.80    8.30
  -9   7   8   42.00    8.80
  -9   7   8   21.60    9.60
  -8  -7   8   12.50    6.90
  -8  -7   8    6.20    6.60
  -8  -7   8   19.20    7.20
  -8  -7   8   15.10    9.20
  -8   7   8    8.30    7.10
  -8   7   8   17.30    9.70
  -8   7   8   16.80    7.20
  -8   7   8    7.90    8.30
  -7  -7   8   17.80    6.60
  -7  -7   8   21.90    6.30
  -7  -7   8   23.20    8.30
  -7  -7   8   22.20    6.10
   7   7  -8   15.90    8.10
  -7   7   8   21.40    6.40
  -7   7   8   29.80    8.50
  -7   7   8   25.20    9.20
  -7   7   8   22.30    6.50
  -6  -7   8  153.08   10.30
  -6  -7   8  196.98   11.10
   6  -7  -8  154.68   10.40
  -6  -7   8  171.18   15.10
  -6  -7   8  172.28   14.20
   6   7  -8  170.18   10.30
  -6   7   8  190.48   14.60
  -6   7   8  178.18   15.40
  -6   7   8  170.28   11.00
  -6   7   8  175.48   13.90
  -6   7   8  137.99   10.70
   6   7  -8  162.18   10.00
  -5  -7   8   47.30    6.20
  -5  -7   8   32.80    7.80
   5  -7  -8   45.50    6.70
  -5  -7   8   42.70    7.50
  -5   7   8   39.00    7.80
  -5   7   8   45.00    7.90
   5   7  -8   28.40    5.80
  -5   7   8   37.90    8.50
  -5   7   8   42.00    7.30
   5   7  -8   58.59    6.30
  -5   7   8   48.90    6.50
   5   7  -8   36.50    5.40
  -5   7   8   49.60    6.50
  -4  -7   8  117.59   11.50
  -4  -7   8   74.89    8.60
  -4   7   8   96.89    9.10
   4   7  -8   85.49    7.10
  -4   7   8   82.09    8.00
   4   7  -8   99.79    7.70
  -4   7   8   77.29    8.10
  -4   7   8   83.99    8.20
   4   7  -8   95.29    8.40
  -4   7   8   90.09    9.00
  -4   7   8   90.99    7.80
  -4   7   8   95.39    9.10
  -3  -7   8   45.00    5.90
  -3  -7   8   35.00    6.90
  -3  -7   8   54.79    8.20
   3  -7  -8   34.40    7.30
  -3   7   8   29.50    6.90
   3   7  -8   39.80    5.40
  -3   7   8   43.90    5.90
   3   7  -8   42.50    6.30
  -3   7   8   41.60    5.80
   3   7  -8   37.10    5.20
  -3   7   8   36.10    7.20
  -3   7   8   39.30    6.70
  -3   7   8   33.10    7.00
  -2  -7   8   24.30    4.00
  -2  -7   8   15.60    7.10
  -2  -7   8   23.60    6.40
  -2  -7   8   16.50    5.30
  -2  -7   8   27.80    5.80
   2  -7  -8   18.60    7.10
   2   7  -8   23.40    7.80
   2   7  -8   22.10    4.70
  -2   7   8   25.00    6.70
   2   7  -8   34.00    6.00
  -2   7   8   27.80    5.20
  -2   7   8   12.90    5.30
  -2   7   8   15.30    6.00
   2   7  -8   18.20    4.90
  -2   7   8   25.40    6.40
  -2   7   8   20.00    6.50
  -2   7   8   15.20    6.40
  -1  -7   8   55.39    6.40
  -1  -7   8   48.20    5.90
  -1  -7   8   57.09    5.60
   1  -7  -8   58.79    6.90
  -1  -7   8   55.89    7.50
  -1  -7   8   52.89    8.30
   1  -7  -8   48.50    6.90
  -1   7   8   49.70    5.90
  -1   7   8   42.90    7.50
  -1   7   8   41.20    7.40
   1   7  -8   59.39    5.90
  -1   7   8   44.60    7.00
   1   7  -8   51.29    6.00
   1   7  -8   52.79    7.40
   1   7  -8   43.10    6.60
  -1   7   8   41.80    6.00
  -1   7   8   54.79    6.60
   0  -7   8    2.90    5.70
   0  -7  -8    9.00    5.90
   0  -7   8    6.00    5.70
   0  -7   8    7.60    5.50
   0  -7   8    4.00    6.40
   0  -7   8    3.00    6.50
   0   7   8   13.20    6.90
   0   7   8    6.10    4.70
   0   7   8   15.40    7.20
   0   7   8    2.40    5.30
   0   7   8    8.60    6.80
   0   7   8    9.70    5.40
   0   7  -8    9.70    7.10
   0   7   8    4.70    6.70
   0   7  -8    3.70    5.30
   0   7  -8   13.00    5.10
   1  -7   8   93.49    8.00
  -1  -7  -8  128.99   11.70
   1  -7   8  109.19   11.10
  -1  -7  -8  108.99   10.90
   1  -7   8  112.79    9.10
   1  -7   8  105.79   10.70
   1  -7   8   99.49    9.40
   1   7   8   96.99    9.00
  -1   7  -8  105.29   10.10
  -1   7  -8   96.19    7.90
   1   7   8   99.99   10.20
  -1   7  -8   97.69    9.40
   1   7   8  105.49   10.00
   1   7   8  111.09    8.30
   1   7   8   99.19    9.90
   1   7   8  118.99   10.50
   1   7   8   94.49    9.30
   2  -7   8  155.98   12.70
   2  -7   8  144.69   12.30
  -2  -7  -8  149.19   12.40
  -2  -7  -8  171.68   13.30
   2  -7   8  141.39   13.50
   2  -7   8  150.58   14.40
  -2   7  -8  160.88   14.20
  -2   7  -8  155.78   11.90
   2   7   8  161.88   11.80
   2   7   8  180.38   13.70
   2   7   8  161.58   11.80
   2   7   8  204.78   14.80
   2   7   8  178.28   16.20
   3  -7   8    0.60    8.50
  -3  -7  -8    4.30    7.70
   3   7   8    4.00    7.20
   3   7   8   15.50    8.00
   3   7   8    6.10    6.80
   3   7   8    6.50    9.80
  -3   7  -8    4.50    7.40
   3   7   8  -10.40    8.40
  -3   7  -8   14.60    8.30
  -4  -7  -8   27.00    9.10
   4  -7   8   21.30   10.10
   4   7   8   26.80   10.60
   4   7   8   18.30    9.00
  -4   7  -8   34.20    8.90
   4   7   8   40.20    9.50
   4   7   8   36.70    8.50
  -5  -7  -8   -1.80   10.70
   5  -7   8    2.80   11.10
   5   7   8  -25.30   10.60
   5   7   8   -3.40   10.00
   5   7   8    5.20    9.10
   5   7   8  -13.30    9.40
  -8  -8   8   50.39   13.80
  -8  -8   8   56.89    9.60
  -8   8   8   89.09   13.70
  -8   8   8   79.99   14.00
  -8   8   8   63.49   10.00
  -7  -8   8   41.50    8.70
  -7  -8   8   36.10    8.10
  -7  -8   8   48.90   10.90
  -7   8   8   31.20    8.40
  -7   8   8   44.80   10.90
  -7   8   8   59.69   11.50
  -7   8   8   20.40    8.40
  -6  -8   8   18.90    7.40
  -6  -8   8   22.10    9.30
  -6  -8   8   24.40    7.10
  -6  -8   8   10.00    9.70
  -6   8   8   33.50    7.80
  -6   8   8   15.30    9.90
  -6   8   8   14.00    7.50
  -5  -8   8   89.09   11.70
  -5  -8   8   72.69    9.60
   5  -8  -8   54.19    9.50
  -5  -8   8   80.89    8.10
  -5   8   8   73.89    8.30
  -5   8   8   93.19   10.90
  -5   8   8   81.79    8.60
  -4  -8   8   49.70    9.10
   4  -8  -8   34.00    8.70
  -4  -8   8   39.40    9.60
   4   8  -8   45.10    8.00
  -4   8   8   47.90    7.40
  -4   8   8   47.20    9.00
  -4   8   8   35.10    7.10
  -3  -8   8  178.38   15.20
  -3  -8   8  183.18   14.50
  -3   8   8  174.78   15.90
  -3   8   8  175.18   11.80
  -3   8   8  205.58   14.60
  -3   8   8  187.48   12.30
  -3   8   8  180.98   13.50
   3   8  -8  174.68   11.90
  -3   8   8  140.69   14.40
  -2  -8   8   87.39    9.10
  -2  -8   8   72.49   10.00
  -2   8   8   70.79    8.10
   2   8  -8   77.49    7.60
  -2   8   8   95.59   10.10
  -2   8   8   72.49    9.10
  -2   8   8   81.69    9.70
  -2   8   8   87.79    8.80
  -2   8   8   69.99    7.60
   1  -8  -8   55.79    8.00
  -1  -8   8   63.49    9.80
  -1  -8   8   60.29    8.90
  -1  -8   8   49.60    8.10
  -1   8   8   51.99    7.80
  -1   8   8   50.79    8.70
  -1   8   8   57.49    7.60
  -1   8   8   48.90    8.80
   1   8  -8   61.39    7.60
  -1   8   8   55.19    7.60
  -1   8   8   61.89    9.50
   0  -8   8   62.49    7.90
   0  -8   8   72.49   10.40
   0  -8  -8   72.29    8.50
   0  -8   8   77.49    9.20
   0   8   8   61.49    7.90
   0   8   8   57.69   10.20
   0   8  -8   56.19    8.10
   0   8   8   58.79    8.10
   0   8   8   61.89    8.20
   0   8   8   64.49    9.70
   0   8   8   71.09    9.40
   1  -8   8   33.50    9.30
   1  -8   8   31.60    9.00
  -1  -8  -8   28.00    8.00
   1  -8   8   26.10    8.70
   1   8   8   38.80    9.90
   1   8   8   22.00    8.80
   1   8   8   33.80    7.80
  -1   8  -8   31.50    7.80
   1   8   8   29.30    7.70
  -2  -8  -8   41.40    9.00
   2  -8   8   24.00   10.00
   2  -8   8   37.20    9.10
  -2   8  -8   30.00    8.90
   2   8   8   40.10    8.80
   2   8   8   10.80   10.30
   2   8   8   45.30    9.40
   2   8   8   47.50    8.60
  -3  -8  -8   47.10   12.40
   3  -8   8   61.19   11.70
   3   8   8   62.19   11.10
   3   8   8   75.99   12.60
   3   8   8   55.79    9.20
   3   8   8   42.80    9.70
  -4  -8  -8   59.09   13.00
   4   8   8    0.80   10.60
   4   8   8   42.00   11.30
  -6  -9   8   19.50   11.20
  -6   9   8   34.40    9.80
  -5  -9   8   48.80   11.10
  -5  -9   8   36.80   11.40
  -5   9   8   49.30    9.60
  -5   9   8   38.90    9.10
  -5   9   8   58.99   11.60
  -4  -9   8   46.50   10.60
  -4  -9   8   44.50   10.70
  -4   9   8   58.79    9.30
  -4   9   8   47.00   11.10
  -4   9   8   35.60    8.80
  -3  -9   8    7.30    9.50
  -3  -9   8   19.70   10.50
  -3   9   8   24.60    7.80
  -3   9   8    3.00    8.00
  -3   9   8   11.10    9.70
  -2  -9   8    5.70    9.80
  -2  -9   8   32.30    9.60
  -2   9   8   15.60    9.40
  -2   9   8   13.00    8.50
  -2   9   8   15.00    8.40
  -2   9   8   30.50    9.80
  -1  -9   8   33.50   10.40
   1  -9  -8   52.39   10.00
  -1  -9   8   49.10   10.60
  -1   9   8   39.80   10.10
  -1   9   8   34.40    8.50
  -1   9   8   34.00    9.10
  -1   9   8   31.50    9.80
   0  -9  -8   54.49   10.60
   0  -9   8   61.59   11.10
   0  -9   8   43.40   11.90
   0   9   8   49.70   11.30
   0   9   8   42.10    9.50
   0   9   8   47.90   10.60
   0   9   8   54.39    9.50
   1  -9   8    3.50    9.60
   1  -9   8   -4.60   10.50
  -1  -9  -8   12.60   10.10
   1   9   8   -0.30    9.50
   1   9   8    9.50    9.10
   1   9   8   14.40    9.30
   1   9   8    9.30   11.40
   2  -9   8  -21.40   17.90
   2  -9   8   20.50   11.00
   2   9   8    6.30   12.90
   2   9   8   23.90   10.30
   2   9   8   12.30   10.40
 -12   0   9   60.09    8.20
 -12   0   9   55.19    7.60
 -12   0   9   68.59   12.10
 -12   0   9   56.99   11.10
 -11   0   9  182.38   10.90
 -11   0   9  180.58   14.50
 -11   0   9  191.08   10.90
  11   0  -9  161.38    9.00
 -11   0   9  179.58   16.20
 -11   0   9  169.28    9.90
  10   0  -9  111.19    6.30
 -10   0   9  128.59   11.50
 -10   0   9  117.79    8.30
 -10   0   9  104.59    9.00
 -10   0   9  114.79   10.70
 -10   0   9  115.09    9.00
 -10   0   9  122.99   10.10
  -9   0   9    9.70    3.40
  -9   0   9    3.40    5.90
  -9   0   9    2.90    3.60
  -9   0   9    8.90    4.80
  -9   0   9   11.70    5.60
  -8   0   9  350.66    9.20
  -8   0   9  360.96    8.30
  -8   0   9  373.46   12.80
  -8   0   9  362.36    8.30
  -8   0   9  377.26   13.60
  -8   0   9  374.76   11.00
  -7   0   9  192.58    5.30
  -7   0   9  196.18    5.30
  -7   0   9  200.08    8.20
  -7   0   9  194.88    5.90
  -7   0   9  207.08    9.90
  -7   0   9  196.28    9.10
  -6   0   9  127.79    5.60
  -6   0   9  126.49    7.50
  -6   0   9  131.59    7.00
  -6   0   9  128.69    7.40
  -6   0   9  129.39    8.00
  -5   0   9  169.08    6.50
  -5   0   9  183.88    8.30
  -5   0   9  175.48    7.50
  -5   0   9  183.28    7.80
  -5   0   9  179.88    7.50
  -4   0   9  284.47    8.50
  -4   0   9  279.57    8.80
  -4   0   9  271.77    8.90
  -4   0   9  271.77    8.90
  -4   0   9  268.07    8.80
  -3   0   9  795.32   17.80
  -3   0   9  809.82   17.50
  -3   0   9  804.82   17.80
  -3   0   9  813.12   17.80
  -3   0   9  852.31   18.50
  -2   0   9  249.48    8.30
  -2   0   9  230.18    8.80
  -2   0   9  248.38    8.50
  -2   0   9  241.98    7.10
  -1   0   9  331.47    9.90
  -1   0   9  328.57    7.40
  -1   0   9  298.07    6.80
  -1   0   9  335.07   10.20
  -1   0   9  329.27    7.70
  -1   0   9  327.27    6.90
   0   0  -9   60.69    3.60
   0   0   9   56.09    4.00
   0   0   9   65.69    5.70
   0   0   9   56.59    4.30
   0   0   9   67.69    6.30
   1   0   9    3.70    3.20
   1   0   9   11.10    4.10
   1   0   9    6.70    2.80
  -1   0  -9    2.30    3.70
   1   0   9    5.40    3.80
  -1   0  -9    5.40    2.40
   1   0   9    3.20    2.90
  -2   0  -9  582.64   13.60
  -2   0  -9  600.84   16.10
   2   0   9  593.24   14.30
   2   0   9  581.24   16.00
   2   0   9  567.44   14.10
  -2   0  -9  601.54   14.00
   2   0   9  594.64   15.90
   3   0   9    5.00    4.80
   3   0   9   -0.90    3.90
  -3   0  -9   -3.10    3.60
   3   0   9   -0.20    4.10
   3   0   9   10.30    4.50
  -3   0  -9    1.80    3.70
   3   0   9    4.20    4.70
  -4   0  -9  110.69    8.80
  -4   0  -9  121.19    8.80
   4   0   9  108.79    8.20
   4   0   9  141.39   10.10
   4   0   9  129.49    9.70
   4   0   9  124.49    9.30
   4   0   9  119.89   10.50
  -4   0  -9  131.89   12.00
   5   0   9  146.39   12.60
   5   0   9  174.78   12.10
   5   0   9  160.98   13.10
   5   0   9  158.68   11.80
   5   0   9  140.29    9.70
  -5   0  -9  151.28   11.10
  -5   0  -9  155.48   10.90
   6   0   9   14.50    7.50
   6   0   9    5.60    8.20
   6   0   9   -4.70    7.40
  -6   0  -9    3.40    6.80
   7   0   9  263.37   17.10
   7   0   9  251.37   20.00
  -7   0  -9  229.78   18.60
 -12  -1   9   16.00   11.00
 -12  -1   9   -1.60    6.50
 -12  -1   9   -7.90    9.20
 -12  -1   9   19.20    7.40
 -12   1   9   12.20    7.10
 -12   1   9   12.60    7.10
 -12   1   9   -0.60    9.80
 -12   1   9   19.30    8.40
 -11  -1   9   39.50    5.90
 -11  -1   9   46.30   10.00
 -11  -1   9   44.60    8.50
 -11  -1   9   27.40    6.10
 -11   1   9   27.40    7.00
 -11   1   9   32.80    5.90
 -11   1   9   35.20    8.90
 -11   1   9   28.50    6.20
 -10  -1   9   72.39    5.80
 -10  -1   9   85.49    9.40
 -10  -1   9   82.69    8.10
 -10  -1   9   71.59    5.80
 -10   1   9  100.69    9.40
 -10   1   9   81.89    7.30
 -10   1   9   82.59    8.60
 -10   1   9   83.79    7.40
 -10   1   9   78.29    6.20
  10   1  -9   70.99    5.80
  -9  -1   9    5.60    3.10
  -9  -1   9    0.90    5.00
  -9  -1   9    0.10    3.50
  -9  -1   9    4.60    6.40
   9  -1  -9   -0.70    2.40
  -9  -1   9   -2.60    3.90
  -9   1   9    4.40    3.60
  -9   1   9   14.60    6.40
  -9   1   9   -1.00    5.20
  -9   1   9    7.00    5.00
  -9   1   9    3.20    3.50
  -9   1   9    2.30    3.20
  -8  -1   9   67.69    7.50
  -8  -1   9   63.39    4.90
  -8  -1   9   68.29    7.00
  -8  -1   9   64.29    4.00
  -8  -1   9   75.09    6.10
  -8   1   9   59.79    4.50
  -8   1   9   51.69    5.00
  -8   1   9   60.69    4.80
  -8   1   9   77.19    7.30
  -8   1   9   63.09    5.40
  -8   1   9   67.79    6.40
  -8   1   9   68.99    6.60
  -7  -1   9   26.80    3.80
  -7  -1   9   21.00    4.30
  -7  -1   9   20.80    5.10
  -7  -1   9   24.80    3.10
  -7   1   9   21.50    2.60
  -7   1   9   20.90    4.90
  -7   1   9   23.70    2.50
  -7   1   9   30.10    4.80
  -7   1   9   21.80    2.70
  -6  -1   9  282.37   10.50
  -6  -1   9  292.27    8.10
  -6  -1   9  304.27    9.80
  -6  -1   9  268.27    8.60
  -6   1   9  273.67    8.90
  -6   1   9  284.27    7.90
  -6   1   9  298.67   10.00
  -6   1   9  273.07   10.30
  -5  -1   9  495.95   11.80
  -5  -1   9  476.45   12.00
  -5  -1   9  493.05   12.60
  -5  -1   9  487.95   13.40
  -5  -1   9  501.55   13.30
  -5   1   9  495.55   11.70
  -5   1   9  489.35   13.20
  -5   1   9  495.75   13.10
  -5   1   9  496.95   11.90
  -4  -1   9   68.39    5.30
  -4  -1   9   68.89    6.20
  -4  -1   9   70.59    5.50
  -4  -1   9   60.39    5.90
  -4  -1   9   70.69    5.40
  -4   1   9   71.79    5.10
  -4   1   9   67.79    5.20
  -4   1   9   74.59    6.30
  -4   1   9   63.29    5.70
  -4   1   9   69.59    6.10
  -3  -1   9  335.97    9.70
  -3  -1   9  329.37    9.70
  -3  -1   9  318.57   10.10
  -3  -1   9  331.87    9.50
  -3  -1   9  313.87    8.90
  -3   1   9  326.67    8.80
  -3   1   9  317.57   10.20
  -3   1   9  315.47    9.50
  -3   1   9  337.87    9.20
  -2  -1   9   53.59    4.80
  -2  -1   9   47.20    3.60
  -2  -1   9   41.20    4.30
  -2  -1   9   53.09    4.00
  -2   1   9   47.40    4.90
  -2   1   9   43.80    2.70
  -2   1   9   45.10    2.80
  -2   1   9   48.00    4.40
  -2   1   9   42.60    4.20
  -2   1   9   52.69    5.20
  -1  -1   9   97.29    6.60
  -1  -1   9   90.99    3.80
  -1  -1   9   93.59    4.80
  -1  -1   9   88.79    4.80
  -1  -1   9   93.19    3.30
  -1  -1   9   90.29    6.60
  -1   1   9   87.69    3.80
  -1   1   9   89.39    5.90
  -1   1   9   90.19    6.50
  -1   1   9   96.79    3.90
  -1   1   9   92.89    4.20
  -1   1   9   95.09    4.30
  -1   1   9   95.79    4.20
   0  -1   9  483.95   10.80
   0  -1   9  525.65   13.90
   0  -1  -9  505.75   10.50
   0  -1   9  516.55   13.70
   0  -1   9  490.15   11.40
   0  -1   9  506.95   10.70
   0  -1   9  497.65   11.20
   0  -1  -9  500.45   10.90
   0   1  -9  493.05   10.40
   0   1   9  489.15   11.20
   0   1   9  512.95   12.90
   0   1   9  511.25   11.60
   0   1   9  515.25   11.20
   0   1   9  503.45   13.60
   1  -1   9  112.99    7.70
  -1  -1  -9  107.69    7.10
   1  -1   9   90.29    5.30
   1  -1   9   97.29    5.00
  -1  -1  -9  104.19    4.90
   1  -1   9   99.39    5.60
  -1  -1  -9   97.89    5.50
   1  -1   9   89.99    7.60
  -1   1  -9   90.39    7.80
   1   1   9   99.09    6.00
   1   1   9   88.79    5.70
  -1   1  -9   96.69    4.60
   1   1   9   95.09    7.00
   1   1   9  111.39    7.50
   1   1   9   87.09    6.70
  -2  -1  -9   99.19    6.40
   2  -1   9   89.09    8.00
  -2  -1  -9   71.69    7.40
   2  -1   9   71.09    6.40
   2  -1   9   84.59    7.40
   2  -1   9   89.29    5.20
   2  -1   9   82.29    8.30
   2   1   9   84.19    7.70
   2   1   9   99.39    6.70
  -2   1  -9   62.09    6.40
   2   1   9   93.79    7.10
  -2   1  -9   84.89    6.10
   2   1   9   85.09    6.80
   2   1   9   80.09    8.10
  -2   1  -9   84.19    5.80
  -3  -1  -9   85.39    7.40
  -3  -1  -9   93.99    7.40
  -3  -1  -9   76.59    7.10
   3  -1   9   94.99   11.50
   3  -1   9   85.39    7.30
   3  -1   9   88.59    7.70
   3  -1   9   94.69    7.50
   3  -1   9   79.19    5.60
   3   1   9   84.39    8.00
  -3   1  -9  103.19   10.70
  -3   1  -9   85.99    6.90
  -3   1  -9   91.49    7.00
   3   1   9   88.39    7.70
   3   1   9  100.29    8.70
   3   1   9   88.69    7.40
   3   1   9   92.79    7.60
   4  -1   9  150.28    7.30
   4  -1   9  141.49   10.40
  -4  -1  -9  157.38    9.50
   4  -1   9  149.59   11.70
   4  -1   9  153.28    9.50
  -4  -1  -9  145.19    9.30
   4  -1   9  162.38    9.90
  -4  -1  -9  163.38   12.10
  -4   1  -9  143.69    9.20
   4   1   9  147.49    9.80
  -4   1  -9  145.69    9.10
  -4   1  -9  125.79   12.80
   4   1   9  128.39    9.80
   4   1   9  128.09   10.40
   4   1   9  152.28   10.40
   5  -1   9  172.18   11.60
   5  -1   9  187.38   12.70
  -5  -1  -9  188.98   11.60
   5  -1   9  204.18   13.60
  -5  -1  -9  179.68   11.20
   5  -1   9  176.08   11.90
   5  -1   9  188.38    8.80
   5   1   9  192.88   13.70
  -5   1  -9  180.18   11.50
   5   1   9  176.78   12.10
   5   1   9  169.68   11.50
   5   1   9  185.28   12.70
  -5   1  -9  180.88   11.40
   5   1   9  184.78   12.30
   6  -1   9    6.20    7.50
   6  -1   9   -1.20    8.40
  -6  -1  -9   -4.10    6.90
   6   1   9   -0.80    8.10
   6   1   9  -11.50    7.70
  -6   1  -9   12.10    7.20
   6   1   9   -0.40    6.90
   7  -1   9   13.40   11.10
  -7  -1  -9    4.30   10.70
   7  -1   9   10.00    9.00
   7   1   9   20.00    9.40
   7   1   9   30.80   11.10
 -12  -2   9   12.60    7.90
 -12  -2   9   31.80   16.70
 -12  -2   9    8.20    7.00
 -12  -2   9   26.40   10.50
 -12   2   9   11.70    7.30
 -12   2   9   30.10   14.20
 -12   2   9    8.90    8.80
 -12   2   9   27.40    9.30
 -11  -2   9   21.70    8.70
 -11  -2   9   31.80    6.60
 -11  -2   9   26.10    5.70
 -11  -2   9   42.00    9.80
 -11   2   9   14.90    6.10
 -11   2   9   19.40    7.80
 -11   2   9   28.10    6.50
 -11   2   9   30.10    8.90
 -10  -2   9  143.89   11.90
 -10  -2   9  140.59    8.20
 -10  -2   9  153.78   13.70
 -10  -2   9  127.19    8.90
  10  -2  -9  117.09    8.20
 -10   2   9  132.69   11.60
 -10   2   9  146.29   11.70
 -10   2   9  139.89   10.00
 -10   2   9  145.49    9.20
 -10   2   9  123.79    8.50
 -10   2   9  142.89   12.80
  -9  -2   9   82.99    8.80
  -9  -2   9   85.39    7.50
  -9  -2   9   68.39    6.70
   9  -2  -9   68.99    5.80
  -9  -2   9   78.29    6.20
  -9   2   9   62.89    6.60
  -9   2   9   74.79    7.80
  -9   2   9   78.99    7.10
  -9   2   9   85.99    7.00
  -9   2   9   89.89    7.50
  -9   2   9   76.49    6.60
  -9   2   9   86.39    7.80
  -8  -2   9   31.80    5.20
  -8  -2   9   26.40    3.20
  -8  -2   9   25.30    3.40
  -8  -2   9   27.30    3.00
   8  -2  -9   29.30    2.50
  -8  -2   9   27.80    5.80
  -8  -2   9   23.80    3.90
  -8  -2   9   28.50    3.50
  -8   2   9   34.60    4.20
  -8   2   9   26.60    5.40
  -8   2   9   26.00    6.10
  -8   2   9   30.70    3.50
  -8   2   9   28.90    3.70
  -8   2   9   27.20    3.60
  -8   2   9   30.20    5.20
  -7  -2   9   50.19    4.60
  -7  -2   9   49.70    3.90
  -7  -2   9   52.69    5.30
  -7  -2   9   51.89    5.00
  -7   2   9   48.00    3.90
  -7   2   9   55.89    6.00
  -7   2   9   48.70    4.10
  -7   2   9   49.20    4.30
  -7   2   9   46.40    6.00
  -7   2   9   51.79    4.80
  -7   2   9   50.09    4.70
  -7   2   9   44.10    4.10
  -6  -2   9   15.00    3.10
  -6  -2   9   19.00    3.30
  -6  -2   9   10.60    3.70
  -6  -2   9   14.40    4.40
  -6   2   9   17.00    3.00
  -6   2   9   25.80    4.80
  -6   2   9   15.00    2.20
  -6   2   9   14.10    2.40
  -6   2   9   17.10    3.30
  -6   2   9   17.20    2.80
  -6   2   9   16.50    4.40
  -5  -2   9  128.49    6.40
  -5  -2   9  136.99    8.30
  -5  -2   9  139.19    6.50
  -5  -2   9  144.79    7.90
  -5  -2   9  139.09    5.90
  -5   2   9  130.39    4.30
  -5   2   9  137.59    7.70
  -5   2   9  132.39    5.30
  -5   2   9  131.09    4.70
  -5   2   9  142.29    6.30
  -5   2   9  146.79    8.20
  -4  -2   9  329.87   10.40
  -4  -2   9  329.17    9.10
  -4  -2   9  343.17   11.20
  -4  -2   9  330.47    9.80
  -4  -2   9  335.37    9.00
  -4   2   9  330.17    9.60
  -4   2   9  338.27    7.40
  -4   2   9  324.57    7.20
  -4   2   9  320.87    8.10
  -4   2   9  315.17   10.70
  -3  -2   9  297.47    8.00
  -3  -2   9  322.07   10.50
  -3  -2   9  303.37    9.00
  -3  -2   9  295.47    9.30
  -3  -2   9  301.57    9.50
  -3   2   9  304.37    7.20
  -3   2   9  288.27    7.70
  -3   2   9  288.77    6.90
  -3   2   9  311.67    9.50
  -3   2   9  286.97   10.30
  -2  -2   9  542.75   13.80
  -2  -2   9  544.85   14.50
  -2  -2   9  547.15   13.00
  -2  -2   9  549.54   10.50
  -2  -2   9  541.25   11.60
  -2   2   9  527.65   13.70
  -2   2   9  538.25   12.00
  -2   2   9  539.05   11.40
  -2   2   9  548.05   14.60
  -2   2   9  528.75   11.00
  -2   2   9  531.25   11.90
  -2   2   9  537.75   11.50
  -1  -2   9  182.18    5.60
  -1  -2   9  180.38    8.70
   1  -2  -9  185.18    5.50
  -1  -2   9  188.38    5.40
  -1  -2   9  184.08    6.90
  -1  -2   9  192.38    8.20
  -1   2   9  172.98    5.00
  -1   2   9  189.38    8.10
  -1   2   9  187.28    5.80
  -1   2   9  182.88    6.30
  -1   2   9  184.68    8.80
  -1   2   9  185.18    6.00
  -1   2   9  178.58    5.00
  -1   2   9  181.48    5.90
  -1   2   9  190.68    6.80
   0  -2   9   80.99    4.50
   0  -2   9   90.39    5.00
   0  -2   9   91.69    7.00
   0  -2   9   82.29    3.60
   0  -2   9   85.69    3.80
   0  -2   9   81.59    7.50
   0  -2  -9   83.19    4.20
   0  -2   9   83.89    5.30
   0   2   9   91.99    5.00
   0   2   9   79.89    6.00
   0   2   9   78.29    6.90
   0   2  -9   84.59    4.20
   0   2   9   81.79    5.10
   0   2  -9   81.89    4.10
   0   2   9   85.89    5.30
   0   2   9   89.19    5.50
   1  -2   9  139.39    5.50
   1  -2   9  138.49    8.90
   1  -2   9  124.49    6.20
  -1  -2  -9  131.99    6.00
   1  -2   9  128.69    4.30
   1  -2   9  129.79    6.50
  -1  -2  -9  139.29    6.60
   1  -2   9  135.39    4.30
  -1  -2  -9  137.59    7.40
   1   2   9  134.59    8.30
   1   2   9  130.39    6.80
   1   2   9  141.59    7.60
   1   2   9  145.59    8.30
   1   2   9  131.09    6.30
   1   2   9  137.19    7.20
  -1   2  -9  137.39    5.30
   2  -2   9   76.29    3.70
  -2  -2  -9   74.29    6.70
   2  -2   9   76.19    6.60
   2  -2   9   85.49    7.10
  -2  -2  -9   81.09    6.40
   2  -2   9   82.29    7.00
  -2  -2  -9   75.09    6.00
   2   2   9   73.59    7.30
   2   2   9   88.79    7.80
   2   2   9   86.39    8.30
  -2   2  -9   67.89    5.70
   2   2   9   75.99    7.10
  -2   2  -9   79.19    6.30
   2   2   9   78.79    8.00
   3  -2   9  100.99    7.90
   3  -2   9  109.29   10.30
   3  -2   9   89.69    4.40
  -3  -2  -9  104.79    8.40
  -3  -2  -9  105.09    8.20
   3  -2   9   86.99    7.30
   3  -2   9   92.99    7.80
  -3  -2  -9  111.19    8.90
   3   2   9  103.49    9.40
  -3   2  -9  107.69    7.40
   3   2   9   94.49    9.00
   3   2   9   97.59    8.00
  -3   2  -9  101.79    7.50
   3   2   9   90.19    8.90
   3   2   9   96.19    8.50
  -3   2  -9   79.09    7.90
   4  -2   9  180.08   10.30
   4  -2   9  191.68   12.80
   4  -2   9  191.18   11.30
   4  -2   9  162.18   10.30
  -4  -2  -9  177.98   10.60
   4  -2   9  163.38    6.20
  -4  -2  -9  169.58   10.30
   4   2   9  192.98   11.70
   4   2   9  173.08   11.30
  -4   2  -9  171.08    9.90
  -4   2  -9  172.98    9.90
   4   2   9  163.68   11.00
   4   2   9  174.18   11.50
   4   2   9  179.48   10.70
   5  -2   9   35.90    4.80
   5  -2   9   36.00    7.10
   5  -2   9   34.30    7.90
   5  -2   9   43.00    8.50
  -5  -2  -9   25.10    8.00
  -5  -2  -9   37.90    7.00
   5  -2   9   35.90    6.80
   5   2   9   34.90    7.90
   5   2   9   46.30    7.80
   5   2   9   23.10    7.40
  -5   2  -9   45.60    6.90
   5   2   9   29.40    7.70
   5   2   9   36.90   10.30
  -6  -2  -9    2.20    7.60
   6  -2   9   13.80    7.40
   6  -2   9   19.30    8.90
   6   2   9   12.50    8.50
   6   2   9    8.50    7.50
  -6   2  -9   12.30    7.60
   7  -2   9   31.00   11.90
   7  -2   9   31.10   10.00
   7   2   9   22.80    9.60
 -11  -3   9   50.99    7.30
 -11  -3   9   48.90    7.10
 -11  -3   9   53.99   10.70
 -11  -3   9   42.70    9.10
 -11   3   9   50.29   10.00
 -11   3   9   39.80    7.30
 -11   3   9   44.00    7.00
 -11   3   9   34.80    9.50
  10  -3  -9   93.19    8.20
 -10  -3   9  101.59    8.60
 -10  -3   9   80.49    9.70
 -10  -3   9  110.39    9.10
 -10  -3   9   87.29    7.10
 -10   3   9   95.19   10.00
 -10   3   9   95.49    9.30
 -10   3   9  109.29    9.70
 -10   3   9   92.69    9.30
  -9  -3   9   33.00    4.30
  -9  -3   9   27.30    4.80
  -9  -3   9   31.60    3.70
  -9  -3   9   29.30    4.50
  -9  -3   9   37.30    7.70
  -9  -3   9   20.00    5.90
  -9   3   9   27.70    4.90
   9   3  -9   30.10    3.60
  -9   3   9   32.60    4.80
   9   3  -9   30.10    3.10
  -9   3   9   27.60    5.00
  -9   3   9   28.60    5.30
  -9   3   9   30.60    6.70
  -9   3   9   30.60    7.10
  -9   3   9   34.50    5.70
  -8  -3   9   65.79    6.10
  -8  -3   9   62.69    5.60
  -8  -3   9   60.59    5.10
  -8  -3   9   50.79    6.10
  -8  -3   9   50.89    7.60
   8  -3  -9   65.79    5.50
  -8   3   9   65.69    5.60
  -8   3   9   57.99    4.60
  -8   3   9   72.89    6.40
  -8   3   9   56.59    5.00
  -8   3   9   72.29    7.70
  -8   3   9   55.79    7.10
  -8   3   9   63.09    5.90
  -7  -3   9  295.57    7.20
   7  -3  -9  288.47    7.70
  -7  -3   9  322.47   10.60
  -7  -3   9  296.67   10.70
  -7  -3   9  300.17    8.30
  -7  -3   9  324.77   12.70
  -7   3   9  298.17    7.80
  -7   3   9  312.57    8.50
  -7   3   9  292.07    8.90
  -7   3   9  308.47   12.10
  -7   3   9  301.97    8.90
  -7   3   9  304.07   12.30
  -7   3   9  310.87    8.10
  -7   3   9  308.37    9.60
  -7   3   9  305.17    7.60
  -6  -3   9  176.28    5.40
  -6  -3   9  174.88    5.30
  -6  -3   9  186.88    9.90
  -6  -3   9  175.88    7.80
  -6   3   9  169.68    7.00
  -6   3   9  183.38    7.20
  -6   3   9  183.08    9.60
  -6   3   9  181.98    6.00
  -6   3   9  165.88    6.50
  -6   3   9  186.98    9.90
  -5  -3   9  293.77    7.80
  -5  -3   9  303.57    9.00
  -5  -3   9  310.17   11.00
  -5  -3   9  302.07   11.80
  -5   3   9  295.07   11.10
  -5   3   9  292.77    7.90
  -5   3   9  287.47   11.10
  -5   3   9  292.67    9.20
  -5   3   9  292.57    7.40
  -5   3   9  299.17    8.50
  -5   3   9  285.37    7.80
  -4  -3   9  182.88    9.50
  -4  -3   9  177.08    6.40
  -4  -3   9  171.18    6.40
  -4  -3   9  191.48    8.50
  -4   3   9  167.38    5.80
  -4   3   9  164.88    5.50
  -4   3   9  184.48    6.50
  -4   3   9  194.58    9.10
  -4   3   9  177.48    5.90
  -4   3   9  177.28    7.80
  -3  -3   9  151.28    7.80
  -3  -3   9  148.99    8.70
  -3  -3   9  150.38    5.40
  -3   3   9  138.99    8.40
  -3   3   9  146.49    7.40
  -3   3   9  154.18    5.60
  -3   3   9  154.28    5.50
  -3   3   9  153.28    5.30
  -3   3   9  157.88    6.10
  -2  -3   9  413.06    8.70
  -2  -3   9  423.36   13.10
  -2  -3   9  422.76    9.20
  -2  -3   9  408.56   11.50
  -2   3   9  412.26   12.00
  -2   3   9  398.26   10.30
  -2   3   9  411.96    9.10
  -2   3   9  429.46   10.10
  -2   3   9  414.46    9.80
  -2   3   9  400.66    9.80
  -2   3   9  396.86   10.10
  -2   3   9  423.16   12.90
   1  -3  -9   10.20    2.90
  -1  -3   9    3.50    4.40
  -1  -3   9    2.90    2.30
  -1  -3   9    7.00    2.60
  -1  -3   9    5.00    3.40
  -1   3   9    9.10    3.20
   1   3  -9    5.80    1.80
  -1   3   9    4.00    2.20
  -1   3   9    6.80    2.80
  -1   3   9   10.30    4.20
  -1   3   9   12.90    3.30
  -1   3   9    6.30    2.20
  -1   3   9    3.40    3.90
  -1   3   9   11.40    2.80
  -1   3   9    4.60    2.80
   0  -3   9  140.39    6.10
   0  -3   9  146.49    6.50
   0  -3   9  148.59    7.10
   0  -3  -9  151.68    6.70
   0  -3   9  139.79    8.50
   0  -3   9  153.18    9.30
   0  -3  -9  140.39    5.90
   0   3   9  151.08    6.60
   0   3   9  119.49   11.40
   0   3   9  148.79    8.60
   0   3  -9  147.89    5.00
   0   3   9  132.49    7.40
   0   3  -9  152.28    5.70
   0   3   9  135.39    7.20
   0   3  -9  138.89    6.50
   0   3  -9  145.89    5.70
   0   3   9  151.58    6.90
  -1  -3  -9  431.36   11.50
   1  -3   9  448.66   11.70
  -1  -3  -9  445.16   11.60
   1  -3   9  441.06   13.70
   1  -3   9  447.06   16.70
   1  -3   9  451.75   11.40
  -1  -3  -9  432.66   15.70
   1  -3   9  431.16   11.40
   1   3   9  435.86   12.30
  -1   3  -9  409.96   12.30
   1   3   9  454.25   14.00
  -1   3  -9  425.56   10.90
  -1   3  -9  429.96   10.50
   1   3   9  447.06   12.10
   1   3   9  454.85   12.00
   1   3   9  445.26   12.40
   1   3   9  419.66   13.80
   1   3   9  436.96   11.70
  -1   3  -9  431.96   11.20
  -2  -3  -9   12.40    4.30
  -2  -3  -9   13.20    4.20
  -2  -3  -9   16.20    4.30
   2  -3   9   12.60    4.20
   2  -3   9   14.50    5.90
   2  -3   9   10.00    4.20
   2  -3   9   11.20    4.70
   2   3   9   13.50    4.70
  -2   3  -9   18.50    6.70
   2   3   9   15.50    4.70
  -2   3  -9    9.80    3.60
   2   3   9   12.20    5.10
   2   3   9   14.50    5.20
   2   3   9   14.50    5.50
  -2   3  -9    8.40    4.00
   2   3   9    9.70    4.50
  -2   3  -9   11.60    4.40
   3  -3   9  211.08   13.30
  -3  -3  -9  228.28   10.40
  -3  -3  -9  214.68   10.40
  -3  -3  -9  227.08   10.40
   3  -3   9  221.18   10.00
   3  -3   9  229.98   12.90
   3  -3   9  218.08   11.60
   3  -3   9  217.78   10.30
   3   3   9  239.38   11.80
   3   3   9  221.78   11.00
   3   3   9  219.68   10.70
   3   3   9  210.38   12.40
  -3   3  -9  214.28    9.20
   3   3   9  217.08   10.90
  -3   3  -9  210.28    9.50
  -3   3  -9  217.28    7.10
  -4  -3  -9  114.79   10.50
  -4  -3  -9  124.89   10.90
   4  -3   9  133.89   10.20
   4  -3   9  121.39   10.90
   4  -3   9  115.69   11.10
   4  -3   9  130.39   10.50
   4   3   9  107.19    9.10
   4   3   9   95.99    8.30
  -4   3  -9  116.09    9.20
   4   3   9  134.39   11.80
  -4   3  -9  106.09    6.00
  -4   3  -9  109.79    9.70
   5  -3   9  163.68   13.10
  -5  -3  -9  134.79   13.90
  -5  -3  -9  141.29   13.00
   5  -3   9  144.09   12.00
  -5   3  -9  148.49   11.90
   5   3   9  132.09   13.20
   5   3   9  142.09   12.30
   6  -3   9  190.38   15.10
   6  -3   9  186.48   17.70
  -6  -3  -9  181.58   15.30
   6   3   9  180.28   15.70
  -6   3  -9  153.88   11.70
   7  -3   9  -14.80   11.60
   7  -3   9   17.20   10.10
   7   3   9   -5.90   10.80
 -11  -4   9   50.19   10.00
 -11  -4   9   43.90    8.00
 -11  -4   9   31.80    7.40
 -11  -4   9   19.40   10.50
 -11   4   9   52.89   10.60
 -11   4   9   34.90    7.70
 -11   4   9   42.70   10.70
 -11   4   9   52.99    8.20
 -10  -4   9   30.70    6.50
 -10  -4   9   26.30    9.10
 -10  -4   9   21.30    6.20
 -10  -4   9   19.00    7.70
 -10   4   9   21.70    6.40
 -10   4   9   34.30    9.00
 -10   4   9   25.90    8.80
 -10   4   9   24.20    6.10
  -9  -4   9  113.19    9.80
  -9  -4   9  125.49    9.00
   9  -4  -9  101.89    8.80
  -9  -4   9  121.09    8.40
  -9  -4   9  132.89   11.20
  -9   4   9  113.69    8.80
  -9   4   9  112.99    9.50
  -9   4   9  134.09   11.00
  -9   4   9  127.79   12.90
  -9   4   9  119.59    9.40
  -8  -4   9   36.90    6.10
  -8  -4   9   37.90    4.80
  -8  -4   9   38.10    6.20
  -8  -4   9   32.80    7.20
  -8  -4   9   31.40    4.30
   8   4  -9   38.20    3.40
  -8   4   9   32.20    5.80
  -8   4   9   36.70    4.70
  -8   4   9   37.30    7.00
  -8   4   9   38.40    5.30
  -8   4   9   37.00    5.10
   8   4  -9   34.40    3.10
  -8   4   9   44.70    7.40
  -7  -4   9   32.00    5.90
  -7  -4   9   29.70    6.10
   7  -4  -9   29.80    4.10
  -7  -4   9   39.40    5.20
  -7  -4   9   37.10    4.20
  -7  -4   9   31.80    3.60
  -7   4   9   33.60    4.10
  -7   4   9   37.10    5.20
  -7   4   9   32.50    6.00
  -7   4   9   27.80    6.30
  -7   4   9   31.30    4.80
  -7   4   9   36.20    4.60
  -6  -4   9  333.27   12.90
  -6  -4   9  310.77    8.80
  -6  -4   9  318.37   10.30
  -6  -4   9  329.87   13.70
  -6   4   9  323.37    9.30
  -6   4   9  317.67   10.10
  -6   4   9  323.67   10.00
  -6   4   9  324.47   10.60
  -6   4   9  332.47   13.10
  -6   4   9  319.17    9.70
  -6   4   9  331.97   12.80
  -5  -4   9    8.40    5.90
  -5  -4   9    7.60    4.60
  -5  -4   9   15.40    3.60
  -5   4   9   15.80    5.20
  -5   4   9   13.20    3.30
  -5   4   9   16.50    3.40
  -5   4   9   15.50    3.70
  -5   4   9   22.70    4.40
  -5   4   9   13.40    4.00
  -4  -4   9  132.09    8.50
  -4  -4   9  121.69    5.50
  -4  -4   9  129.69    5.30
  -4  -4   9  120.99    5.50
  -4  -4   9  110.69   11.00
  -4   4   9  119.59    7.00
  -4   4   9  123.09    6.50
  -4   4   9  103.29    9.60
  -4   4   9  112.89    6.20
  -4   4   9  114.19    7.50
  -4   4   9  113.99    5.80
  -4   4   9  114.79    8.20
  -3  -4   9  528.25   12.40
  -3  -4   9  550.74   16.00
   3  -4  -9  542.15   14.20
  -3  -4   9  520.45   10.80
  -3  -4   9  544.65   14.60
  -3   4   9  505.15   16.60
  -3   4   9  530.05   12.70
  -3   4   9  527.15   12.20
  -3   4   9  548.85   13.30
  -3   4   9  444.76   15.90
  -3   4   9  534.95   14.20
  -2  -4   9  207.78   10.90
   2  -4  -9  218.28    9.60
  -2  -4   9  223.88    7.00
  -2  -4   9  209.58    9.30
  -2  -4   9  223.18    6.70
   2   4  -9  222.48    5.70
  -2   4   9  203.48    8.00
  -2   4   9  220.58    8.40
  -2   4   9  215.88    7.50
   2   4  -9  210.78    5.80
  -2   4   9  215.88   10.30
  -2   4   9  207.48    7.70
  -2   4   9  216.58    9.60
  -2   4   9  203.48    8.00
  -1  -4   9  187.68    6.80
   1  -4  -9  194.68    7.70
  -1  -4   9  196.68    8.60
  -1  -4   9  194.08    7.20
   1  -4  -9  198.38    6.80
  -1  -4   9  191.78    8.90
   1   4  -9  184.08    6.10
  -1   4   9  198.28   10.10
  -1   4   9  207.98    9.80
   1   4  -9  190.08    6.20
  -1   4   9  202.68    8.70
   1   4  -9  182.18    5.10
  -1   4   9  197.88    7.70
   1   4  -9  197.78    5.10
  -1   4   9  186.58    6.40
  -1   4   9  190.08    7.50
  -1   4   9  196.48    8.20
   0  -4  -9   14.90    3.70
   0  -4   9   12.30    4.20
   0  -4   9   14.60    3.70
   0  -4   9   13.40    3.40
   0  -4   9   12.80    4.80
   0  -4  -9   13.20    5.50
   0  -4   9   17.30    5.40
   0   4  -9   11.40    3.90
   0   4  -9   12.00    3.50
   0   4   9   12.80    4.40
   0   4   9   15.00    3.80
   0   4  -9   10.60    2.80
   0   4   9    8.40    3.40
   0   4   9   12.60    4.30
   0   4   9   16.30    5.40
   1  -4   9   62.09    7.30
   1  -4   9   53.79    6.70
   1  -4   9   57.29    5.40
  -1  -4  -9   56.89    7.30
   1  -4   9   58.79    5.20
  -1  -4  -9   52.79    5.40
  -1  -4  -9   62.29    5.40
   1  -4   9   62.19    5.40
  -1  -4  -9   52.99    5.30
  -1   4  -9   57.89    4.90
   1   4   9   70.39    7.30
   1   4   9   59.89    5.80
   1   4   9   42.90    6.20
   1   4   9   40.90    7.00
  -1   4  -9   51.89    4.20
  -1   4  -9   62.29    4.90
  -1   4  -9   45.40    4.70
   1   4   9   50.89    5.70
   1   4   9   58.79    5.30
   1   4   9   44.00    5.90
   2  -4   9  231.88   12.50
   2  -4   9  204.18    9.70
  -2  -4  -9  225.08    8.90
   2  -4   9  213.08   12.40
  -2  -4  -9  204.38    9.90
   2  -4   9  213.28   11.20
   2  -4   9  225.58    9.90
  -2  -4  -9  224.78   10.50
  -2   4  -9  211.48    9.10
   2   4   9  221.68   10.00
  -2   4  -9  210.28   10.00
   2   4   9  211.98    9.70
   2   4   9  215.08   10.70
   2   4   9  240.78   11.90
   2   4   9  226.28   11.60
   2   4   9  218.78   12.70
   2   4   9  215.38   10.80
  -2   4  -9  198.08    8.70
  -2   4  -9  207.98    9.80
   3  -4   9   51.09    7.20
  -3  -4  -9   57.99    6.30
   3  -4   9   55.09    6.10
  -3  -4  -9   49.50    6.60
   3  -4   9   62.99    6.40
   3  -4   9   65.59    8.20
  -3  -4  -9   54.19    6.80
   3   4   9   56.69    6.30
  -3   4  -9   52.39    6.00
   3   4   9   48.10    7.30
   3   4   9   48.30    6.90
   3   4   9   43.60    7.00
   3   4   9   62.39    6.20
  -3   4  -9   54.59    6.00
   4  -4   9   83.99    8.40
  -4  -4  -9   53.89    7.80
  -4  -4  -9   71.39    7.80
   4  -4   9   81.09    9.90
   4  -4   9   60.19    8.70
   4  -4   9   80.19    8.50
   4   4   9   74.39    8.20
   4   4   9   86.89    7.90
  -4   4  -9   64.19    7.50
   4   4   9   64.19    8.80
  -4   4  -9   59.39    7.20
   5  -4   9   96.69   10.00
  -5  -4  -9   93.19   10.60
  -5  -4  -9  104.59   10.00
  -5   4  -9  103.09    9.40
   5   4   9   88.99    8.80
   5   4   9  116.19   10.60
   6  -4   9   45.00    9.90
  -6  -4  -9   32.10   10.90
   6  -4   9   32.10   10.30
   6   4   9   28.00    9.30
 -10  -5   9    9.70    7.00
 -10  -5   9  -11.50    7.90
 -10  -5   9   -0.50    6.40
 -10  -5   9    1.40    8.80
 -10   5   9   -4.50    6.90
 -10   5   9   -7.30    6.50
 -10   5   9   -0.60    9.20
 -10   5   9   -1.90    8.60
  -9  -5   9   -3.50    7.90
  -9  -5   9   15.80    6.90
  -9  -5   9   17.00    6.10
  -9  -5   9   -1.80    5.30
  -9   5   9   17.90    8.20
   9   5  -9    9.50    5.50
  -9   5   9    2.20    5.70
  -9   5   9    8.70    5.90
  -9   5   9    1.70    8.00
  -8  -5   9   -0.60    7.30
  -8  -5   9   14.00    4.90
  -8  -5   9   12.50    5.10
  -8  -5   9    7.30    5.70
  -8  -5   9   10.10    7.30
  -8   5   9   20.30    6.70
  -8   5   9   17.30    4.90
  -8   5   9   13.30    5.40
  -8   5   9   -0.20    7.00
  -8   5   9   -2.20    6.90
  -7  -5   9  122.69   11.60
  -7  -5   9  130.79   11.70
  -7  -5   9   98.59    8.50
  -7  -5   9   97.89    7.80
   7  -5  -9  118.99    8.80
  -7  -5   9  108.79    7.20
  -7   5   9  105.09    9.00
   7   5  -9   94.99    6.20
   7   5  -9  102.79    6.00
  -7   5   9  114.99   11.90
  -7   5   9  113.39    8.10
  -7   5   9   97.29    9.20
  -7   5   9   98.19    9.60
  -7   5   9   98.69    8.40
  -6  -5   9  172.18   11.60
  -6  -5   9  184.58   13.30
  -6  -5   9  178.48    7.80
  -6  -5   9  167.58    8.30
  -6   5   9  163.38    9.50
  -6   5   9  176.78   12.10
   6   5  -9  162.98    5.80
  -6   5   9  171.08    9.70
  -6   5   9  156.98   13.00
   6   5  -9  174.08    6.00
  -6   5   9  161.28    8.90
  -6   5   9  163.48   11.60
  -6   5   9  171.68    8.60
  -6   5   9  157.98    8.40
  -5  -5   9   24.20    3.90
   5  -5  -9   25.80    4.70
  -5  -5   9   25.30    6.50
  -5  -5   9   11.20    5.50
  -5   5   9   24.90    4.90
  -5   5   9   19.90    4.20
   5   5  -9   16.50    2.60
   5   5  -9   22.30    2.80
  -5   5   9   26.30    6.40
  -5   5   9   18.50    5.00
  -5   5   9   30.10    6.40
  -5   5   9   28.40    5.30
  -5   5   9   25.80    4.30
   4  -5  -9   16.60    4.50
  -4  -5   9    2.80    5.60
  -4  -5   9    7.70    2.80
  -4  -5   9    6.80    5.90
  -4   5   9    3.80    5.40
   4   5  -9    9.40    2.50
  -4   5   9    5.70    4.30
  -4   5   9   10.60    4.60
  -4   5   9   11.00    3.70
  -4   5   9    5.00    4.60
   4   5  -9   12.00    2.60
  -4   5   9    8.90    5.40
  -4   5   9    4.30    3.70
   3  -5  -9   51.89    6.10
  -3  -5   9   49.99    6.00
  -3  -5   9   39.30    6.80
  -3  -5   9   45.40    4.30
  -3  -5   9   45.30    3.90
  -3   5   9   44.50    6.40
   3   5  -9   45.60    4.40
  -3   5   9   43.30    5.20
  -3   5   9   44.80    5.50
   3   5  -9   42.50    4.50
  -3   5   9   45.00    5.70
  -3   5   9   40.90    5.70
  -3   5   9   39.70    4.50
  -3   5   9   40.70    4.70
  -2  -5   9  100.29   10.10
  -2  -5   9  106.29    6.60
  -2  -5   9   96.69    6.20
  -2  -5   9   95.99    6.50
  -2  -5   9  102.49    8.80
  -2   5   9  104.69    6.90
   2   5  -9   99.69    4.40
  -2   5   9   95.69    9.60
  -2   5   9  105.49    7.50
   2   5  -9   97.39    5.60
  -2   5   9   88.39    6.90
  -2   5   9  112.39    8.80
  -2   5   9  107.19    8.20
   2   5  -9  110.09    5.80
  -2   5   9  104.39   10.10
   1  -5  -9  151.28    7.60
  -1  -5   9  150.08    7.30
  -1  -5   9  141.59    8.20
   1  -5  -9  149.99    8.30
   1  -5  -9  148.79   10.90
  -1  -5   9  145.19    7.90
  -1  -5   9  149.39    9.20
  -1  -5   9  162.48   11.10
  -1   5   9  143.19    6.60
   1   5  -9  146.39    6.70
  -1   5   9  147.79    9.30
   1   5  -9  155.88    7.10
  -1   5   9  158.18    8.10
  -1   5   9  145.49   13.50
  -1   5   9  164.68    9.00
   1   5  -9  159.88    6.00
   1   5  -9  149.09    9.30
  -1   5   9  162.78   10.40
   0  -5  -9   58.69    5.70
   0  -5  -9   67.59    5.70
   0  -5  -9   54.89    7.50
   0  -5   9   55.39    6.40
   0  -5   9   58.99    6.10
   0  -5   9   53.99    5.20
   0  -5   9   76.19    8.10
   0  -5   9   65.89    5.80
   0   5   9   52.89    5.30
   0   5  -9   55.29    5.60
   0   5  -9   47.80    5.70
   0   5  -9   56.09    4.90
   0   5   9   64.19    6.10
   0   5  -9   53.79    4.80
   0   5   9   52.59    4.30
   0   5   9   61.69    6.90
   0   5   9   60.19    6.20
   0   5   9   64.69    5.70
   0   5   9   55.49    6.70
  -1  -5  -9  178.88    9.90
  -1  -5  -9  188.78    9.90
   1  -5   9  185.78    9.30
   1  -5   9  162.08   10.90
   1  -5   9  185.48   10.40
   1  -5   9  177.48   12.40
   1  -5   9  177.08    9.50
  -1  -5  -9  183.88    7.00
   1   5   9  186.58   10.70
  -1   5  -9  169.88    9.90
   1   5   9  205.18   11.10
   1   5   9  190.98    9.80
   1   5   9  178.28   11.40
  -1   5  -9  175.18    8.20
   1   5   9  198.58    9.50
  -1   5  -9  175.48    9.00
   1   5   9  165.78   11.70
  -1   5  -9  177.98    9.70
   2  -5   9   82.89    9.30
  -2  -5  -9   67.39    7.00
   2  -5   9   70.29    8.60
  -2  -5  -9   77.09    7.30
   2  -5   9   72.19    6.90
   2  -5   9   74.09    6.80
  -2  -5  -9   73.79    7.30
   2   5   9   65.59    6.70
   2   5   9   60.89    7.90
  -2   5  -9   86.39    8.60
  -2   5  -9   90.99    8.50
   2   5   9   77.49    7.00
   2   5   9   69.49    7.70
  -2   5  -9   71.89    6.70
   2   5   9   67.09    8.10
   2   5   9   73.89    8.00
  -3  -5  -9   -1.90    6.20
   3  -5   9   13.20    8.00
   3  -5   9   11.00    6.10
  -3  -5  -9   -2.50    7.40
  -3  -5  -9   -1.00    5.40
   3  -5   9   -0.70    6.60
   3   5   9    7.00    5.80
   3   5   9    5.10    7.00
   3   5   9   21.00    8.90
   3   5   9    7.00    7.10
   3   5   9   12.00    5.70
  -3   5  -9   13.20    5.70
  -3   5  -9   12.40    5.70
   3   5   9    6.10    6.40
   4  -5   9    1.50    8.30
  -4  -5  -9    9.90    7.60
   4  -5   9    8.10    7.10
   4   5   9   19.30    8.20
  -4   5  -9   14.60    7.00
   4   5   9    2.80    7.80
   4   5   9    9.30    6.70
   4   5   9   10.90    6.90
   5  -5   9   10.50    9.00
   5  -5   9   15.70    9.70
  -5  -5  -9    5.30    8.80
   5   5   9   21.40    7.90
   5   5   9    9.20    9.00
   5   5   9   20.90    8.40
   6  -5   9   31.90   13.80
   6   5   9   34.10   13.80
   6   5   9   33.10   11.70
  -9  -6   9  166.28   11.90
  -9  -6   9  142.89   14.00
  -9  -6   9  183.38   17.70
  -9  -6   9  152.08   12.60
  -9   6   9  175.68   13.40
  -9   6   9  187.68   17.70
  -9   6   9  148.59   12.60
  -9   6   9  168.48   12.70
  -8  -6   9   19.50    6.00
  -8  -6   9   26.30    6.60
  -8  -6   9   13.40    7.90
  -8   6   9   17.20    6.20
  -8   6   9   15.60    7.80
  -8   6   9   29.40    9.30
  -8   6   9   18.30    6.60
  -7  -6   9   12.30    5.70
  -7  -6   9   14.90    7.70
  -7  -6   9    6.40    4.90
  -7  -6   9   13.00    9.10
  -7  -6   9   14.40    5.60
  -7   6   9    9.00    5.50
  -7   6   9   10.30    7.70
  -7   6   9   20.70    7.60
   7   6  -9    6.20    4.90
   7   6  -9   11.80    3.70
  -7   6   9   11.90    5.40
  -6  -6   9  173.28    9.10
  -6  -6   9  193.08   13.60
  -6  -6   9  167.18    9.40
   6  -6  -9  191.08    9.90
  -6  -6   9  191.18   14.90
  -6  -6   9  183.28   15.10
   6   6  -9  181.38    6.30
  -6   6   9  175.58    9.80
  -6   6   9  154.08   11.30
   6   6  -9  157.18    9.20
  -6   6   9  192.98   15.80
  -6   6   9  174.88   14.00
  -6   6   9  148.99   14.80
  -6   6   9  174.28   10.20
   5  -6  -9   -2.20    5.30
  -5  -6   9   -7.40    6.60
  -5  -6   9    8.30    6.30
   5   6  -9    1.80    4.40
  -5   6   9    3.50    4.50
  -5   6   9   15.70    7.80
  -5   6   9    4.50    5.50
  -5   6   9   -1.40    6.40
   5   6  -9    2.30    2.90
  -5   6   9    1.20    5.40
   5   6  -9    9.30    2.90
  -5   6   9    3.00    4.70
   5   6  -9    3.00    4.00
  -4  -6   9  166.98   13.40
  -4  -6   9  142.59   11.30
  -4   6   9  133.39   11.50
  -4   6   9  150.48   10.30
   4   6  -9  100.09    6.90
  -4   6   9  129.99    9.90
   4   6  -9  136.39    7.00
  -4   6   9  138.79   10.20
  -4   6   9  133.19   11.50
  -4   6   9  149.79    8.80
   4   6  -9  142.39    5.70
  -4   6   9  134.39    8.40
   4   6  -9  128.89    6.20
  -3  -6   9   34.10    6.40
  -3  -6   9   41.50    4.00
  -3  -6   9   34.30    7.40
  -3  -6   9   41.20    5.30
   3   6  -9   44.60    3.80
  -3   6   9   30.10    5.10
  -3   6   9   29.50    6.10
  -3   6   9   30.70    6.30
  -3   6   9   24.00    6.90
  -3   6   9   31.90    6.30
  -3   6   9   42.50    6.70
  -3   6   9   31.90    5.30
   3   6  -9   32.30    6.60
   3   6  -9   26.70    3.80
  -2  -6   9   24.40    7.20
   2  -6  -9   28.00    7.00
  -2  -6   9   22.20    4.80
  -2  -6   9   18.70    4.70
  -2  -6   9   21.20    4.50
  -2  -6   9   16.90    6.70
  -2   6   9   13.50    4.90
   2   6  -9   22.70    6.90
  -2   6   9   18.10    5.60
  -2   6   9   33.30    6.50
  -2   6   9   16.60    5.90
  -2   6   9   10.50    4.80
   2   6  -9   13.60    4.20
  -2   6   9   22.10    4.80
  -2   6   9   15.80    5.90
  -1  -6   9  166.18   11.00
  -1  -6   9  166.68   12.70
  -1  -6   9  165.28    9.40
   1  -6  -9  176.08   10.00
  -1  -6   9  164.38    9.00
   1  -6  -9  156.18    9.30
  -1  -6   9  157.18    9.00
  -1   6   9  148.49    8.30
  -1   6   9  181.68   11.80
  -1   6   9  154.98   10.60
  -1   6   9  171.88    9.50
   1   6  -9  146.89    7.50
  -1   6   9  170.18    9.50
   1   6  -9  155.28    9.20
  -1   6   9  175.88   10.90
  -1   6   9  174.28   12.20
   1   6  -9  161.28   14.20
   1   6  -9  182.88    8.60
   0  -6   9  123.69   10.20
   0  -6   9  111.19    8.90
   0  -6  -9  116.79    9.80
   0  -6  -9  132.59   10.20
   0  -6   9  100.69    9.70
   0  -6   9  109.39   10.60
   0   6   9  105.99    9.30
   0   6   9  118.09   11.50
   0   6  -9  100.19    7.60
   0   6  -9  121.79    8.70
   0   6   9   96.59    6.40
   0   6   9  101.19    9.40
   0   6   9  110.29   10.90
   0   6  -9  115.39    9.40
   0   6   9  123.09    8.90
   0   6   9  103.99    8.90
   1  -6   9  112.69   11.30
   1  -6   9   83.99    9.20
   1  -6   9  105.59    9.00
   1  -6   9  106.99    9.90
  -1  -6  -9  114.59   10.80
   1  -6   9  100.99    9.80
  -1  -6  -9   91.89    8.00
  -1   6  -9  101.19    9.10
   1   6   9  104.19    9.20
  -1   6  -9  102.49    9.50
   1   6   9  119.89   11.80
   1   6   9   88.99    8.90
   1   6   9  119.19   12.00
   1   6   9   99.39    9.70
   1   6   9  104.49    9.70
   2  -6   9   46.60    9.20
  -2  -6  -9   47.30    7.60
   2  -6   9   54.79    9.20
   2  -6   9   57.79    7.50
   2   6   9   47.80    7.20
   2   6   9   47.10    7.20
   2   6   9   42.70    8.80
   2   6   9   44.20    8.50
  -2   6  -9   55.89    7.20
   2   6   9   49.60    8.80
  -3  -6  -9   31.20    8.30
   3  -6   9   29.10    9.50
   3   6   9   21.80    8.70
   3   6   9   28.30    7.50
   3   6   9   45.40    7.70
  -3   6  -9   36.00    8.50
   3   6   9   32.40    8.70
   4  -6   9   88.69   11.70
  -4  -6  -9  101.59   11.40
   4   6   9  103.59   12.10
   4   6   9  103.39   11.20
   4   6   9   91.59    9.60
   4   6   9   97.69   10.40
   5  -6   9   51.69   20.50
   5  -6   9   30.30   11.20
   5   6   9   35.70   10.10
   5   6   9   37.80   14.70
   5   6   9   41.10   11.20
   5   6   9   38.10    9.90
  -8  -7   9    7.30    7.60
  -8  -7   9    7.70    6.90
  -8  -7   9   10.00    7.60
  -8  -7   9  -12.60    9.90
  -8   7   9   -3.10    7.70
  -8   7   9   10.60    7.50
  -8   7   9  -11.80    9.90
  -8   7   9   -4.10    9.20
  -7  -7   9  117.59   10.90
  -7  -7   9  117.69   12.00
  -7  -7   9  151.38   12.50
  -7  -7   9  128.89   13.50
  -7   7   9  133.79   12.20
  -7   7   9  143.39   12.10
  -7   7   9  124.09   12.40
  -7   7   9  151.68   12.30
  -6  -7   9   52.69   10.40
  -6  -7   9   42.30    9.30
  -6  -7   9   58.39    7.10
  -6   7   9   49.10    7.20
  -6   7   9   50.19    7.40
  -6   7   9   53.59    9.90
  -5  -7   9   15.00    7.70
  -5  -7   9   18.50    8.70
  -5   7   9   31.70   12.70
  -5   7   9   26.60    7.20
  -5   7   9   10.90    7.90
   5   7  -9    5.80    5.60
  -5   7   9   12.70    5.80
  -5   7   9   13.60    6.10
   4  -7  -9   79.79    8.70
  -4  -7   9   71.99    8.80
  -4  -7   9   74.79    9.60
  -4   7   9   74.59    9.20
   4   7  -9   64.69    6.50
  -4   7   9   83.39    9.90
  -4   7   9   80.29    8.50
  -4   7   9   86.29    7.50
   4   7  -9   81.39    8.20
  -4   7   9   75.69    7.20
  -3  -7   9   48.40    8.20
  -3  -7   9   44.70    8.90
   3  -7  -9   24.60    8.20
  -3   7   9   36.00    7.80
  -3   7   9   37.10    9.40
  -3   7   9   26.50    6.00
  -3   7   9   43.70    7.70
  -3   7   9   39.70    6.50
  -3   7   9   42.70    8.10
  -3   7   9   33.80    7.50
   3   7  -9   33.80    6.20
   3   7  -9   44.30    6.10
  -2  -7   9  188.58   13.40
  -2  -7   9  160.38    9.30
  -2  -7   9  199.68   15.30
  -2  -7   9  177.68   11.60
  -2   7   9  189.28   14.40
  -2   7   9  198.68   11.50
  -2   7   9  228.08   13.50
  -2   7   9  171.48   14.20
  -2   7   9  187.78   11.20
  -2   7   9  185.88   10.90
   2   7  -9  186.28   12.50
  -2   7   9  187.58   13.80
   1  -7  -9   16.80    6.70
  -1  -7   9   31.50    8.20
  -1  -7   9   10.50    6.00
  -1  -7   9   34.30    7.40
  -1   7   9   20.70    5.70
  -1   7   9    7.40    7.30
   1   7  -9   10.20    5.50
  -1   7   9   23.20    7.30
  -1   7   9   17.50    6.00
  -1   7   9   18.60    9.20
  -1   7   9   16.40    5.90
   0  -7   9   -5.30    7.70
   0  -7   9   13.80    7.20
   0  -7   9    0.90    7.00
   0  -7  -9    8.50    7.20
   0   7   9    9.80    6.10
   0   7   9   -2.70    7.30
   0   7  -9    9.30    6.40
   0   7   9    5.40    5.80
   0   7   9   -1.20    7.80
   1  -7   9  174.68   13.90
  -1  -7  -9  174.78   13.90
   1  -7   9  137.49   14.20
   1  -7   9  158.98   15.80
   1   7   9  176.18   14.80
   1   7   9  162.38   15.80
   1   7   9  172.58   12.70
   1   7   9  151.88   12.40
   2  -7   9   28.00    9.90
  -2  -7  -9   19.10    8.60
   2  -7   9   12.50    8.00
   2   7   9   17.10    9.70
   2   7   9   17.30    9.30
   2   7   9   19.90    7.30
   2   7   9   28.10    7.70
   3  -7   9   85.79   12.30
   3   7   9   97.49   11.80
   3   7   9   88.79    9.80
   3   7   9   73.69   10.20
   3   7   9   94.09   12.80
   4   7   9   23.60   11.20
   4   7   9  -11.70   10.60
  -7  -8   9   36.50   11.90
  -7   8   9   18.60    8.80
  -6  -8   9   12.60   11.00
  -6  -8   9   -6.10    9.80
  -6   8   9    0.80   10.40
  -6   8   9    4.60    8.00
  -6   8   9   -5.90    7.50
  -5  -8   9   33.50   10.50
  -5  -8   9   37.20   10.00
  -5   8   9   37.90   10.70
  -5   8   9   32.00    8.00
  -5   8   9   40.80    8.00
  -4  -8   9   88.59   11.10
  -4  -8   9  133.89   12.50
  -4   8   9   80.39   10.80
  -4   8   9   93.49    9.10
  -4   8   9   81.09    8.80
  -4   8   9   68.09    9.80
  -3  -8   9   32.70   10.00
  -3  -8   9   67.99   10.30
  -3   8   9   52.19    7.80
  -3   8   9   49.20   10.00
  -3   8   9   47.30    8.00
  -3   8   9   44.60    9.60
  -2  -8   9   12.80    9.70
  -2  -8   9   22.10    8.80
  -2   8   9   28.30    9.50
  -2   8   9   17.90    7.20
  -2   8   9   29.90    7.40
  -2   8   9   20.00    9.20
  -1  -8   9   37.00   10.30
  -1  -8   9   26.60    9.30
  -1   8   9   22.30    7.50
  -1   8   9   18.50    9.10
  -1   8   9   13.00    7.50
  -1   8   9   11.70    9.20
   0  -8   9   10.30    9.30
   0  -8   9   -3.70    9.70
   0   8   9   21.10    7.70
   0   8   9    6.10    7.20
   0   8   9    4.70    9.40
   0   8   9   17.10    9.60
   1  -8   9   26.00   10.20
   1  -8   9   48.70   10.20
   1   8   9   26.20   10.40
   1   8   9   47.20    9.00
   1   8   9   48.20    9.20
   1   8   9   26.80   10.40
   2  -8   9   33.00   13.30
   2   8   9   30.00   11.30
   2   8   9   23.60    9.50
   2   8   9   14.30   11.90
   2   8   9   25.70    9.50
  -4  -9   9    8.90   10.90
  -4   9   9    1.10    9.00
  -3  -9   9  -14.00   10.90
  -3   9   9   15.50    8.70
  -3   9   9   -5.80   10.30
  -2  -9   9   33.20   11.80
  -2   9   9    3.50   11.40
  -2   9   9   13.10    9.30
  -2   9   9    0.10   13.10
  -1  -9   9   37.40   12.00
  -1   9   9   39.60   12.70
  -1   9   9   31.90   10.20
 -11   0  10  226.18   16.30
 -11   0  10  214.18   18.70
 -11   0  10  211.48    9.70
 -11   0  10  192.68   11.00
 -10   0  10   50.59    6.70
 -10   0  10   49.99    4.30
 -10   0  10   53.99    5.30
 -10   0  10   56.79    8.10
 -10   0  10   58.89    9.40
 -10   0  10   50.89   11.20
  -9   0  10  107.19    8.90
  -9   0  10  107.79    8.80
  -9   0  10   85.49    5.90
  -9   0  10   96.69    6.00
  -9   0  10   79.39    8.90
  -8   0  10  224.88   11.20
  -8   0  10  220.08   12.30
  -8   0  10  205.18    9.40
  -7   0  10   55.49    5.70
  -7   0  10   59.99    6.70
  -7   0  10   57.39    6.00
  -7   0  10   50.69    5.20
  -7   0  10   49.00    7.60
  -6   0  10  112.99    6.30
  -6   0  10  107.29    8.80
  -6   0  10  116.79    7.60
  -6   0  10  113.79    8.00
  -6   0  10  126.29    7.80
  -5   0  10   81.99    6.80
  -5   0  10   80.89    7.10
  -5   0  10   97.29    6.90
  -5   0  10   96.39    7.50
  -5   0  10   90.49    6.20
  -4   0  10   40.10    4.50
  -4   0  10   39.90    4.50
  -4   0  10   47.90    5.10
  -4   0  10   43.50    4.60
  -4   0  10   42.30    4.60
  -3   0  10  541.45   13.70
  -3   0  10  548.85   14.00
  -3   0  10  543.75   13.20
  -3   0  10  573.04   14.60
  -3   0  10  565.14   14.20
  -2   0  10   26.50    4.30
  -2   0  10   29.00    4.60
  -2   0  10   19.50    4.20
  -2   0  10   24.70    3.80
  -2   0  10   25.30    3.40
  -1   0  10    8.30    4.20
  -1   0  10   11.90    4.10
  -1   0  10    5.50    2.20
  -1   0  10    6.70    2.20
   0   0  10   33.10    3.40
   0   0 -10   26.00    2.30
   0   0  10   29.90    3.00
   0   0  10   31.30    5.00
   0   0  10   24.00    5.10
   0   0  10   17.30    6.80
  -1   0 -10  118.49    6.10
  -1   0 -10  111.79    4.70
   1   0  10  113.29    7.40
   1   0  10  110.89    8.80
   1   0  10  121.19    6.90
   1   0  10  111.79    9.20
   1   0  10  111.89    6.20
   2   0  10  145.09    8.30
   2   0  10  139.39    8.40
   2   0  10  160.78   10.30
   2   0  10  140.29    7.90
   2   0  10  147.79   10.40
  -2   0 -10  136.49    7.50
  -2   0 -10  142.79    7.00
  -3   0 -10  102.89    8.00
   3   0  10   86.89    9.00
   3   0  10   89.99    8.00
  -3   0 -10   86.59    9.20
   3   0  10   97.89    9.10
   3   0  10   96.89    8.40
  -3   0 -10  104.49    8.30
   3   0  10   87.79    8.10
   4   0  10   -0.90    6.50
   4   0  10   -2.40    6.70
  -4   0 -10   -1.00    5.70
   4   0  10   -8.10    6.20
   4   0  10    7.70    5.30
   5   0  10   36.80    8.90
   5   0  10   37.10    8.50
   6   0  10   26.40    9.00
   6   0  10   52.89   11.60
 -11  -1  10    9.70    5.10
 -11  -1  10   12.20    8.90
 -11  -1  10   -4.30    9.90
 -11  -1  10    6.40    5.80
 -11   1  10    0.20    7.50
 -11   1  10   10.90    5.30
 -11   1  10   -0.70    8.80
 -11   1  10    5.90    5.80
 -10  -1  10   15.20    4.60
 -10  -1  10   17.30    5.30
 -10  -1  10   22.90    3.90
 -10  -1  10   14.50    8.50
 -10  -1  10   24.20    7.20
 -10   1  10   24.80    8.00
 -10   1  10   19.00    7.00
 -10   1  10   11.40    4.70
 -10   1  10   17.50    4.40
 -10   1  10   23.30    5.10
  -9  -1  10   52.49    8.10
  -9  -1  10   61.89    5.70
  -9  -1  10   56.29    7.60
  -9  -1  10   52.79    4.10
  -9   1  10   43.40    7.30
  -9   1  10   55.09    7.80
  -9   1  10   59.59    4.70
  -9   1  10   53.49    6.80
  -9   1  10   53.89    4.30
  -8  -1  10   94.89    8.20
  -8  -1  10  101.29    6.20
  -8  -1  10  119.29    9.50
  -8  -1  10  107.39    7.30
  -8  -1  10  101.49    5.40
  -8   1  10  102.39    4.90
  -8   1  10  104.29    8.90
  -8   1  10  101.09    5.10
  -8   1  10  110.89   10.20
  -7  -1  10   19.90    4.40
  -7  -1  10   11.40    4.60
  -7  -1  10   16.90    5.30
  -7  -1  10   19.60    3.60
  -7  -1  10   10.00    5.80
  -7   1  10   19.90    5.00
  -7   1  10   21.30    3.50
  -7   1  10   15.60    5.20
  -7   1  10   13.30    4.30
  -6  -1  10  383.16   12.60
  -6  -1  10  384.76   11.10
  -6  -1  10  369.66   10.30
  -6  -1  10  364.96   11.60
  -6  -1  10  380.56   12.70
  -6   1  10  378.76   10.30
  -6   1  10  388.06   12.50
  -6   1  10  361.46   12.50
  -6   1  10  384.16   12.20
  -6   1  10  393.76   10.90
  -5  -1  10  243.38    9.80
  -5  -1  10  239.98    8.80
  -5  -1  10  222.18    9.60
  -5  -1  10  239.58    8.50
  -5  -1  10  234.68    8.90
  -5   1  10  241.38    9.60
  -5   1  10  226.88    8.20
  -5   1  10  241.08    9.70
  -5   1  10  230.38    8.30
  -5   1  10  226.18    9.50
  -4  -1  10  377.66   11.80
  -4  -1  10  379.36   11.20
  -4  -1  10  365.76   11.00
  -4  -1  10  381.06   11.00
  -4  -1  10  363.86   10.40
  -4   1  10  366.36   10.10
  -4   1  10  371.86   11.60
  -4   1  10  376.26   11.00
  -4   1  10  350.86   11.50
  -4   1  10  362.86   10.70
  -3  -1  10   45.40    4.30
  -3  -1  10   47.40    4.50
  -3  -1  10   57.79    5.30
  -3  -1  10   51.59    5.20
  -3  -1  10   50.79    5.00
  -3   1  10   48.10    4.20
  -3   1  10   58.59    5.20
  -3   1  10   50.39    4.40
  -3   1  10   52.19    5.70
  -2  -1  10  255.57    8.00
  -2  -1  10  260.17    8.20
  -2  -1  10  263.57    9.70
  -2  -1  10  246.88    9.90
  -2   1  10  268.97    7.50
  -2   1  10  254.97   10.30
  -2   1  10  272.27    9.80
  -2   1  10  264.47    8.80
  -1  -1  10  406.56   10.10
  -1  -1  10  390.86    8.80
  -1  -1  10  395.36    9.70
  -1  -1  10  397.96   12.20
  -1  -1  10  401.26   12.40
  -1   1  10  390.66    9.10
  -1   1  10  394.06    9.20
  -1   1  10  386.66    8.50
  -1   1  10  392.46   11.40
  -1   1  10  391.46    8.60
  -1   1  10  396.36   12.40
  -1   1  10  401.36   12.70
   0  -1  10   89.59    5.70
   0  -1  10   96.29    8.20
   0  -1 -10   88.89    4.60
   0  -1  10   98.29    8.30
   0  -1  10   91.09    5.40
   0  -1  10   88.29    6.20
   0  -1  10   89.89    4.70
   0   1  10   95.29    5.00
   0   1  10   91.09    8.30
   0   1  10  107.49    7.60
   0   1  10   97.49    5.80
   0   1  10   98.49    5.50
   1  -1  10    6.70    3.20
   1  -1  10    9.40    4.70
  -1  -1 -10   11.60    4.50
   1  -1  10    7.70    3.10
  -1  -1 -10    6.00    3.30
   1  -1  10    2.80    4.90
   1  -1  10   10.90    3.70
  -1   1 -10    9.90    2.40
   1   1  10    8.10    3.90
   1   1  10    6.70    5.00
   1   1  10   11.20    3.60
   1   1  10   10.90    4.50
  -1   1 -10    7.70    3.10
   1   1  10    4.70    4.40
   2  -1  10  266.97    8.30
  -2  -1 -10  253.57   12.00
  -2  -1 -10  262.07    9.90
   2  -1  10  288.97   12.30
   2  -1  10  247.88    9.50
   2  -1  10  261.57   13.20
   2  -1  10  287.17   10.00
  -2  -1 -10  272.97    8.80
  -2   1 -10  279.97    9.20
  -2   1 -10  264.07   13.70
   2   1  10  273.17   11.60
  -2   1 -10  270.17    8.60
   2   1  10  289.07   11.10
   2   1  10  261.87   10.60
   2   1  10  287.77   12.30
   2   1  10  261.27   10.20
   3  -1  10   81.09    8.00
  -3  -1 -10   75.89    6.40
   3  -1  10   68.39    6.30
   3  -1  10   67.09    5.10
  -3  -1 -10   77.99    8.60
   3  -1  10   71.09   10.00
  -3  -1 -10   74.29    6.30
   3  -1  10   68.69    7.70
   3   1  10   74.49    6.80
   3   1  10   66.19    8.80
  -3   1 -10   71.29    6.00
  -3   1 -10   66.49    6.20
   3   1  10   72.29    6.80
   3   1  10   72.19    6.90
   3   1  10   68.19    7.90
   4  -1  10  269.47   15.10
  -4  -1 -10  257.07   12.70
   4  -1  10  283.17   14.50
   4   1  10  269.57   14.30
  -4   1 -10  241.98   12.00
   4   1  10  268.67   14.50
   4   1  10  249.78   12.60
   5  -1  10   51.59    9.60
   5  -1  10   51.89    9.00
   5   1  10   41.50    8.40
   5   1  10   50.49    9.60
   6  -1  10   16.80    9.50
   6  -1  10   14.10   11.10
   6   1  10   -2.40   10.80
   6   1  10   14.00    8.60
 -11  -2  10    8.60    9.20
 -11  -2  10   18.00    5.70
 -11  -2  10   13.70   10.30
 -11  -2  10    7.00    6.20
 -11   2  10   24.50    9.60
 -11   2  10   16.20    6.70
 -11   2  10   15.90    9.00
 -11   2  10   11.40    5.80
 -10  -2  10   29.00    9.20
 -10  -2  10   26.80    7.50
 -10  -2  10   21.60    4.30
 -10  -2  10    8.70    4.90
 -10   2  10   30.10    8.30
 -10   2  10    7.70    7.50
 -10   2  10   26.70    6.00
 -10   2  10   13.80    4.60
 -10   2  10   27.30    5.30
  -9  -2  10  168.48   13.80
  -9  -2  10  154.18   11.30
  -9  -2  10  150.38    7.00
  -9  -2  10  155.28    6.60
  -9   2  10  158.68    7.40
  -9   2  10  165.18   13.00
  -9   2  10  149.29    7.60
  -9   2  10  160.28    8.60
  -9   2  10  168.78   11.20
  -9   2  10  154.08    6.70
  -8  -2  10   37.50    4.10
  -8  -2  10   39.00    5.00
  -8  -2  10   38.50    6.10
  -8  -2  10   32.50    7.00
  -8  -2  10   35.80    4.10
  -8   2  10   43.10    7.00
  -8   2  10   41.40    4.20
  -8   2  10   40.80    3.70
  -8   2  10   39.00    5.00
  -8   2  10   42.50    5.70
  -8   2  10   34.00    9.60
  -7  -2  10  249.28   11.90
  -7  -2  10  243.78   11.90
  -7  -2  10  240.58    8.20
  -7  -2  10  256.27   10.20
  -7  -2  10  242.98    8.50
  -7   2  10  254.27   11.20
  -7   2  10  237.08    9.30
  -7   2  10  261.87   12.00
  -7   2  10  249.58    8.50
  -7   2  10  251.27    7.90
  -7   2  10  255.37    7.20
  -7   2  10  253.17    6.70
  -6  -2  10   14.10    3.80
  -6  -2  10    9.20    5.00
  -6  -2  10   13.30    4.10
  -6  -2  10   15.70    3.80
  -6  -2  10   18.50    5.20
  -6   2  10   10.20    5.00
  -6   2  10    7.30    3.60
  -6   2  10   14.80    5.20
  -6   2  10   12.00    3.20
  -5  -2  10  158.18    9.10
  -5  -2  10  165.78    7.80
  -5  -2  10  153.08    7.20
  -5  -2  10  163.98    7.60
  -5  -2  10  158.08    9.50
  -5   2  10  161.98    6.10
  -5   2  10  161.08    7.60
  -5   2  10  166.48    9.10
  -5   2  10  167.18    9.40
  -4  -2  10  345.27   11.30
  -4  -2  10  347.77   10.30
  -4  -2  10  346.37   12.00
  -4  -2  10  354.96    9.80
  -4  -2  10  354.06   11.00
  -4   2  10  330.07    8.80
  -4   2  10  356.16   10.80
  -4   2  10  359.76   11.90
  -4   2  10  348.97   11.90
  -3  -2  10   86.89    5.40
  -3  -2  10   96.89    8.10
  -3  -2  10   98.19    7.10
  -3  -2  10   88.59    7.20
  -3  -2  10  103.69    6.70
  -3   2  10   87.49    3.60
  -3   2  10   94.69    7.10
  -3   2  10   88.19    6.20
  -3   2  10   88.29    8.10
  -3   2  10   88.69    5.40
  -3   2  10   88.99    3.80
  -2  -2  10   50.39    5.30
  -2  -2  10   45.50    4.40
  -2  -2  10   46.60    5.50
  -2  -2  10   54.99    4.70
  -2   2  10   50.59    4.20
  -2   2  10   41.90    5.00
  -2   2  10   53.59    6.10
  -2   2  10   51.69    4.10
  -2   2  10   44.50    3.10
  -2   2  10   48.10    3.80
  -2   2  10   46.10    4.60
  -2   2  10   47.50    3.90
  -2   2  10   42.40    3.20
  -1  -2  10   69.29    4.30
  -1  -2  10   65.19    4.60
  -1  -2  10   59.99    8.70
  -1  -2  10   68.79    5.90
  -1  -2  10   71.19    6.20
  -1  -2  10   72.29    4.40
  -1  -2  10   70.89    3.40
  -1   2  10   58.99    6.10
  -1   2  10   76.69    7.60
  -1   2  10   75.49    5.30
  -1   2  10   71.29    4.70
  -1   2  10   67.59    4.40
  -1   2  10   75.99    6.40
   0  -2  10  155.68    9.60
   0  -2  10  152.08    6.00
   0  -2  10  152.38    5.00
   0  -2 -10  153.88    6.30
   0  -2  10  163.08    6.50
   0  -2  10  147.29    6.40
   0  -2  10  163.38   10.00
   0  -2 -10  158.88    4.70
   0  -2  10  160.58    5.00
   0   2  10  160.68    9.20
   0   2  10  148.99    6.50
   0   2 -10  156.28    4.90
   0   2  10  148.99    7.20
   0   2  10  167.48    6.50
   0   2 -10  156.38    4.90
   0   2  10  159.28    6.80
   0   2  10  166.38    8.20
  -1  -2 -10  506.05   12.00
  -1  -2 -10  512.85   14.00
   1  -2  10  522.15   16.70
   1  -2  10  512.95   13.00
   1  -2  10  498.25   12.40
   1  -2  10  536.65   15.80
   1   2  10  504.25   15.30
  -1   2 -10  491.05   11.10
   1   2  10  503.75   14.40
   1   2  10  505.05   13.40
   1   2  10  517.05   12.90
  -1   2 -10  515.15   11.00
   1   2  10  538.65   15.60
  -1   2 -10  506.15   12.00
   1   2  10  487.05   13.00
  -1   2 -10  507.85   12.00
   2  -2  10   62.99    5.60
   2  -2  10   62.49    5.50
   2  -2  10   55.89    6.80
  -2  -2 -10   55.89    5.00
   2  -2  10   71.19    7.90
  -2  -2 -10   65.19    6.40
  -2   2 -10   70.59    8.40
   2   2  10   69.29    6.90
  -2   2 -10   59.79    6.10
   2   2  10   61.29    5.40
   2   2  10   61.19    6.00
   2   2  10   54.29    6.10
  -2   2 -10   53.29    4.80
   2   2  10   56.49    6.80
   2   2  10   50.09    6.50
  -3  -2 -10  147.99    9.60
   3  -2  10  151.68   11.50
   3  -2  10  148.29   12.80
   3  -2  10  132.99    9.90
   3  -2  10  155.98   12.00
  -3  -2 -10  136.79    9.90
   3   2  10  127.19   11.60
   3   2  10  149.49   11.70
   3   2  10  171.18   10.70
   3   2  10  151.58   10.40
   3   2  10  166.48   11.60
  -3   2 -10  138.09    8.80
  -3   2 -10  159.78    9.50
   4  -2  10   99.49    9.20
   4  -2  10  108.39   10.40
  -4  -2 -10  103.99    8.80
  -4  -2 -10   97.99    9.70
   4   2  10   96.39    9.40
   4   2  10   83.49    9.20
  -4   2 -10  105.09   10.40
   4   2  10  127.59   13.20
   5  -2  10   20.60    9.40
   5  -2  10    9.90    8.20
   5   2  10   -0.70    8.80
   5   2  10   22.10    8.80
   6  -2  10   71.39   12.40
   6  -2  10   58.19   10.90
   6   2  10   59.19   10.90
 -11  -3  10    6.00    6.00
 -11  -3  10  -17.40   11.00
 -11  -3  10    2.50    9.50
 -11  -3  10    5.60    6.60
 -11   3  10   -4.20   12.40
 -11   3  10   -2.80    6.30
 -11   3  10    3.90    6.80
 -11   3  10   19.30   10.10
 -10  -3  10   13.30    5.50
 -10  -3  10   24.10    5.90
 -10  -3  10   17.80    9.70
 -10  -3  10   36.30    8.20
 -10   3  10   14.10    5.70
 -10   3  10   21.60    5.30
 -10   3  10   24.00    8.40
 -10   3  10   23.40    8.60
  -9  -3  10   24.20    4.60
  -9  -3  10   30.50    8.40
  -9  -3  10   22.20    4.30
  -9  -3  10   19.60    6.80
  -9   3  10   17.90    5.60
  -9   3  10   19.80    4.90
  -9   3  10   10.30    7.00
  -9   3  10   19.60    4.40
  -9   3  10   25.50    5.60
  -9   3  10   11.80    7.50
  -8  -3  10   22.20    4.50
  -8  -3  10   21.50    3.30
  -8  -3  10   19.20    6.90
  -8  -3  10   29.70    6.20
  -8   3  10   24.90    3.70
  -8   3  10   32.80    4.80
  -8   3  10   14.20    6.80
  -8   3  10   25.70    4.70
  -8   3  10   25.40    4.20
  -8   3  10   28.90    5.00
  -8   3  10   33.40    6.70
  -8   3  10   25.90    3.80
  -7  -3  10  227.88   13.00
  -7  -3  10  254.47   12.70
  -7  -3  10  267.97   10.50
  -7  -3  10  249.58    9.20
  -7   3  10  273.07   12.70
  -7   3  10  242.28    8.60
  -7   3  10  254.17   12.60
  -7   3  10  264.27    8.70
  -7   3  10  235.48    7.80
  -7   3  10  236.08    7.50
  -7   3  10  254.97    7.10
  -6  -3  10  349.87   10.90
  -6  -3  10  365.56   13.20
  -6  -3  10  336.57    8.90
  -6  -3  10  365.46   14.10
  -6  -3  10  349.27   11.00
  -6   3  10  361.26   13.60
  -6   3  10  334.87    7.90
  -6   3  10  349.17   13.00
  -6   3  10  353.86    8.20
  -6   3  10  340.97    9.50
  -6   3  10  360.86   10.70
  -6   3  10  342.77    8.80
  -5  -3  10   73.09    5.70
  -5  -3  10   70.19   12.10
  -5  -3  10   77.29    6.40
  -5  -3  10   86.69    7.00
  -5   3  10   78.59    7.40
  -5   3  10   74.49    6.90
  -5   3  10   74.49    6.90
  -5   3  10   72.69    5.20
  -5   3  10   83.49    4.70
  -5   3  10   76.39    3.90
  -4  -3  10  180.58    7.50
  -4  -3  10  175.88    6.90
  -4  -3  10  192.38   10.50
  -4  -3  10  178.48    9.50
  -4   3  10  184.68    8.70
  -4   3  10  188.08    5.40
  -4   3  10  181.28    6.50
  -4   3  10  180.88    9.90
  -4   3  10  175.28    5.10
  -3  -3  10   12.30    4.20
  -3  -3  10   12.90    5.10
  -3  -3  10   16.80    4.40
  -3  -3  10    8.00    2.70
  -3  -3  10   10.80    4.10
  -3   3  10   12.10    2.80
  -3   3  10   11.30    3.20
  -3   3  10   12.50    4.30
  -3   3  10   19.30    4.50
  -3   3  10   13.40    2.40
  -3   3  10   11.90    5.00
  -2  -3  10  120.79    7.80
  -2  -3  10  100.99   10.40
  -2  -3  10  106.99    9.30
  -2  -3  10  113.79    4.70
  -2   3  10  126.89    5.90
  -2   3  10  121.59    6.20
  -2   3  10  109.89    8.20
  -2   3  10  117.19    5.80
  -2   3  10  117.59    6.20
  -2   3  10  128.39    9.30
  -2   3  10  114.89    5.20
  -2   3  10  117.09    5.30
  -2   3  10  108.79    5.70
   1  -3 -10   30.50    3.50
  -1  -3  10   35.10    4.70
  -1  -3  10   31.70    5.50
  -1  -3  10   30.90   10.10
  -1  -3  10   30.10    3.60
  -1  -3  10   27.60    3.00
  -1   3  10   27.10    3.70
  -1   3  10   29.20    6.00
  -1   3  10   25.20    3.60
  -1   3  10   37.30    3.70
  -1   3  10   34.60    3.90
  -1   3  10   35.10    4.10
   0  -3  10   -2.40    4.30
   0  -3  10    4.90    2.90
   0  -3  10   -2.60    3.40
   0  -3  10   -1.60    5.20
   0  -3  10    4.80    3.80
   0   3  10    4.00    3.90
   0   3 -10    0.40    2.60
   0   3  10   -0.20    3.80
   0   3  10   -2.20    3.40
   0   3 -10   -2.60    2.60
   0   3  10    0.20    4.00
   0   3  10    0.70    3.20
   0   3  10   -4.50    5.00
   0   3  10    3.30    4.70
   1  -3  10  104.69    6.90
   1  -3  10  128.79   11.00
  -1  -3 -10  109.19    6.70
   1  -3  10  103.49    7.10
   1  -3  10   97.99    9.70
  -1  -3 -10  104.89    7.50
   1  -3  10  107.59    7.60
  -1  -3 -10  101.79    7.80
   1   3  10   96.99    7.60
   1   3  10  106.29    8.50
  -1   3 -10   99.39    6.50
   1   3  10  107.39    7.40
  -1   3 -10  101.69    5.40
   1   3  10   86.99    8.20
  -1   3 -10   93.49    6.20
  -1   3 -10  104.89    6.70
   1   3  10  102.99    8.50
   1   3  10  107.29    9.90
   1   3  10  100.39    8.20
   1   3  10  116.09    8.90
  -2  -3 -10   43.00    5.60
   2  -3  10   39.10    5.60
  -2  -3 -10   40.30    5.40
   2  -3  10   39.10    7.70
   2  -3  10   40.90    5.40
  -2  -3 -10   44.70    6.10
   2  -3  10   32.20    6.70
   2   3  10   42.20    7.20
   2   3  10   48.50    6.40
  -2   3 -10   33.50    5.00
   2   3  10   43.50    7.60
   2   3  10   40.80    6.20
   2   3  10   36.40    5.40
   2   3  10   41.40    5.40
  -2   3 -10   47.60    5.70
   2   3  10   49.40    6.40
  -2   3 -10   40.30    4.60
   3  -3  10   49.10    7.70
  -3  -3 -10   56.49    6.90
  -3  -3 -10   74.39    7.90
   3  -3  10   62.19    9.00
   3  -3  10   59.49    6.90
   3   3  10   59.29    7.20
   3   3  10   67.69    8.70
  -3   3 -10   61.69    6.30
   3   3  10   73.59    8.90
   3   3  10   65.99    9.10
   3   3  10   69.29    6.60
   4  -3  10  100.09    9.60
   4  -3  10  122.49   11.50
  -4  -3 -10   98.49    9.90
  -4  -3 -10  107.09   10.60
   4   3  10  105.29   10.20
   5  -3  10   23.20    8.70
   5  -3  10   27.30    9.90
   5   3  10   30.30    9.70
 -10  -4  10  126.79   11.00
 -10  -4  10  129.29   10.80
 -10  -4  10  116.79   12.00
 -10  -4  10  103.19    9.00
 -10   4  10  174.38   16.90
 -10   4  10  117.99   10.60
 -10   4  10  108.59   11.00
 -10   4  10  168.88   17.30
  -9  -4  10   15.50    4.40
  -9  -4  10   27.70    8.90
  -9  -4  10   13.50    5.20
  -9  -4  10   15.00    7.20
  -9   4  10   10.00    5.40
  -9   4  10   17.10    5.20
  -9   4  10   11.80    8.20
  -9   4  10   16.40    8.70
  -8  -4  10    2.70    4.00
  -8  -4  10    3.20    6.70
  -8  -4  10   -0.90    6.90
  -8   4  10   -1.80    4.40
  -8   4  10   13.80    7.50
  -8   4  10  -12.40    6.80
  -8   4  10   -3.30    5.60
  -8   4  10    3.00    4.10
  -7  -4  10  125.19   12.90
  -7  -4  10  110.39    9.00
  -7  -4  10  100.99    8.80
  -7  -4  10  103.69    9.00
  -7   4  10  105.09    8.60
  -7   4  10   99.29    7.40
  -7   4  10  104.79    6.80
  -7   4  10   96.59    7.60
  -7   4  10  106.29    9.10
  -7   4  10  106.59    7.90
  -7   4  10  130.69   11.80
  -6  -4  10  123.29   10.60
  -6  -4  10  116.29    9.70
  -6  -4  10  112.79    7.70
  -6   4  10  116.79   11.40
  -6   4  10  120.19    7.00
  -6   4  10  108.49    7.00
  -6   4  10  112.59    8.30
  -6   4  10  115.99    8.50
  -6   4  10  124.29   11.10
  -6   4  10  119.09    6.30
  -5  -4  10  168.48   11.10
  -5  -4  10  152.48    5.60
  -5  -4  10  159.28    7.40
  -5  -4  10  154.18    5.90
  -5  -4  10  167.18   11.90
  -5   4  10  149.99    6.40
  -5   4  10  175.28   11.10
  -5   4  10  160.88    9.00
  -5   4  10  151.68    8.10
  -5   4  10  152.18   10.90
  -5   4  10  148.19    6.90
  -5   4  10  151.18    7.10
  -4  -4  10    3.20    5.60
  -4  -4  10    8.50    3.50
  -4  -4  10    1.20    2.90
  -4  -4  10    1.90    3.50
  -4  -4  10   -1.70    4.90
  -4   4  10    2.80    2.90
  -4   4  10    0.00    4.40
  -4   4  10    4.80    5.20
  -4   4  10    3.60    3.40
  -4   4  10    4.00    4.00
  -4   4  10    8.90    3.40
  -4   4  10    3.20    4.90
  -3  -4  10  112.59   10.40
  -3  -4  10  108.59    8.80
  -3   4  10  125.19    6.60
  -3   4  10  121.59    7.60
  -3   4  10  128.59   10.10
  -3   4  10  118.69    6.60
  -3   4  10  112.99    6.00
  -3   4  10  118.39    8.70
  -2  -4  10  219.08   10.10
  -2  -4  10  227.58   12.10
  -2  -4  10  215.78    9.60
  -2  -4  10  211.18    7.20
  -2   4  10  201.58   11.50
  -2   4  10  209.08    9.00
  -2   4  10  209.48    7.80
  -2   4  10  212.88    8.50
  -2   4  10  212.38    7.80
  -2   4  10  206.38    8.10
  -2   4  10  219.38   10.90
  -1  -4  10  116.39    8.60
  -1  -4  10   97.09    5.80
  -1  -4  10   99.99    6.70
  -1  -4  10  119.39   10.50
  -1  -4  10  111.39    9.20
   1   4 -10  114.39    4.70
  -1   4  10   97.79   10.00
  -1   4  10  113.49    9.60
  -1   4  10   90.39    7.50
  -1   4  10  101.79    6.90
  -1   4  10  104.19    8.30
   1   4 -10  101.69    4.60
  -1   4  10  104.99    6.70
   0  -4  10  114.99    8.60
   0  -4  10  109.19    7.70
   0  -4 -10  109.39    6.80
   0  -4  10   96.99    6.60
   0  -4  10  115.09    9.20
   0  -4  10  114.49   10.30
   0  -4 -10  111.09    7.80
   0   4  10  117.79    8.90
   0   4 -10  103.19    4.60
   0   4 -10  107.59    6.10
   0   4  10   88.49    7.80
   0   4 -10  105.09    5.30
   0   4  10   98.89   10.00
   0   4 -10   86.39    6.50
   0   4  10  124.39    7.50
   0   4  10  109.29   11.00
   0   4  10  100.59    8.90
   1  -4  10   83.79    8.30
   1  -4  10   67.59    7.70
   1  -4  10   75.39    8.80
   1  -4  10   87.49    9.00
   1  -4  10   71.19    6.30
   1  -4  10   69.49    5.70
  -1  -4 -10   77.19    7.80
  -1  -4 -10   55.29    6.20
   1   4  10   74.89    6.80
  -1   4 -10   76.69    7.00
   1   4  10   56.89    8.20
   1   4  10   63.59    7.20
   1   4  10   63.89    8.00
   1   4  10   69.39    6.00
   1   4  10   68.89    6.20
  -1   4 -10   62.69    5.90
   2  -4  10  119.19   10.40
   2  -4  10  143.89   10.90
  -2  -4 -10  141.39   10.60
  -2  -4 -10  131.09   12.50
  -2  -4 -10  120.99    9.40
   2  -4  10  131.49   10.80
   2  -4  10  156.68   12.00
   2   4  10  151.48   12.20
   2   4  10  123.69    9.80
   2   4  10  149.29   11.10
   2   4  10  121.19    9.80
   2   4  10  142.09   12.60
   2   4  10  137.09   10.80
  -2   4 -10  125.29    8.60
   3  -4  10  140.19   13.20
  -3  -4 -10  122.09   11.40
   3  -4  10  112.89   10.80
   3   4  10  126.69   11.00
   3   4  10  130.19   10.70
   3   4  10  109.99   10.80
   4  -4  10   33.60    9.00
   4  -4  10   24.90    9.50
   4   4  10   11.50    6.90
   4   4  10   20.30    8.80
   4   4  10   11.50    7.00
   5  -4  10   59.29   12.20
   5  -4  10   19.50   10.00
   5   4  10   47.10    9.40
   5   4  10   31.60   10.60
  -9  -5  10    4.60    9.70
  -9  -5  10   10.00    6.00
  -9  -5  10    1.80    5.40
  -9  -5  10   11.00    7.80
  -9   5  10    4.50    6.40
  -9   5  10    2.20    8.80
  -9   5  10   -5.20    5.90
  -9   5  10    2.80    9.00
  -8  -5  10  124.99   11.10
  -8  -5  10  125.49   10.00
  -8  -5  10  101.29    8.80
  -8   5  10  115.49   10.60
  -8   5  10  106.09   10.00
  -8   5  10  131.29    9.40
  -8   5  10  119.99   11.30
  -7  -5  10   24.50    5.90
  -7  -5  10   29.20    8.80
  -7  -5  10   40.70    8.40
  -7  -5  10   34.50    4.70
  -7  -5  10   52.89    9.20
  -7   5  10   29.80    8.20
  -7   5  10   25.80    5.60
  -7   5  10   35.30    6.70
  -7   5  10   32.50    8.40
  -7   5  10   37.30    5.20
  -6  -5  10   74.99    5.90
  -6  -5  10   38.90    8.50
  -6  -5  10   73.39    8.20
  -6   5  10   55.59    6.70
  -6   5  10   49.70    8.70
  -6   5  10   73.99    6.90
  -6   5  10   56.09    8.10
  -6   5  10   65.19    5.50
  -6   5  10   69.79    5.90
  -6   5  10   76.89    7.00
  -6   5  10   73.29    8.60
  -5  -5  10   32.20    4.40
  -5  -5  10   35.00    6.90
  -5  -5  10   27.10    7.60
  -5   5  10   31.60    7.40
  -5   5  10   33.60    5.30
  -5   5  10   25.90    6.10
  -5   5  10   32.80    4.90
  -5   5  10   22.60    7.10
  -5   5  10   36.70    6.00
  -5   5  10   34.40    4.70
  -4  -5  10    3.10    3.20
  -4  -5  10   -5.20    5.50
  -4  -5  10    0.60    3.20
  -4  -5  10    2.70    6.60
  -4   5  10   -1.80    4.30
  -4   5  10   -3.20    5.80
  -4   5  10    4.50    5.10
  -4   5  10    0.70    5.40
  -4   5  10    4.00    4.10
  -4   5  10    6.00    6.00
  -3  -5  10  375.56   15.50
  -3  -5  10  331.17   15.00
   3  -5 -10  359.46   14.10
  -3  -5  10  326.47   10.30
  -3   5  10  367.16   11.20
  -3   5  10  306.17   10.60
  -3   5  10  332.17   13.80
  -3   5  10  323.47   11.30
  -3   5  10  360.96   14.70
  -3   5  10  347.57   12.40
  -3   5  10  341.77   12.10
  -2  -5  10   29.50    5.40
  -2  -5  10   39.80    7.50
  -2  -5  10   38.30    4.30
  -2  -5  10   36.90    6.20
  -2  -5  10   35.40    4.70
   2  -5 -10   41.50    7.80
  -2   5  10   36.30    7.30
  -2   5  10   35.70    5.60
  -2   5  10   28.50    5.80
  -2   5  10   37.90    4.90
   2   5 -10   35.90    3.20
   2   5 -10   41.70    3.40
  -2   5  10   33.50    4.90
  -2   5  10   48.10    6.70
  -2   5  10   38.20    5.20
  -1  -5  10    5.00    4.10
   1  -5 -10   11.80    4.90
  -1  -5  10    9.00    4.40
  -1  -5  10   14.70    5.70
  -1  -5  10    5.10    7.00
  -1  -5  10    7.20    5.70
  -1   5  10   11.20    5.90
  -1   5  10    9.70    4.60
  -1   5  10   11.70    5.90
   1   5 -10   13.90    3.80
  -1   5  10   10.40    3.40
   1   5 -10    6.30    3.60
  -1   5  10   14.60    4.50
  -1   5  10   13.50    6.70
  -1   5  10    8.00    5.20
   0  -5  10  297.67   11.60
   0  -5 -10  289.37   11.80
   0  -5  10  280.77   13.00
   0  -5  10  309.97   12.50
   0  -5  10  279.27   10.30
   0  -5  10  312.97   15.30
   0  -5 -10  277.57   10.80
   0   5  10  267.07   12.60
   0   5  10  284.07   11.20
   0   5  10  279.67   11.30
   0   5  10  324.27   14.70
   0   5 -10  266.87   10.60
   0   5  10  300.97   13.80
   0   5 -10  283.67    8.60
   0   5  10  231.98   18.00
  -1  -5 -10   26.30    6.50
   1  -5  10   38.60    8.60
   1  -5  10   38.10    6.30
   1  -5  10   30.70    6.20
   1  -5  10   37.90    8.30
  -1   5 -10   33.40    6.00
   1   5  10   44.20    6.50
   1   5  10   28.20    7.90
  -1   5 -10   26.10    6.10
  -1   5 -10   21.50    5.90
   1   5  10   29.80    7.30
   1   5  10   42.10    6.00
   1   5  10   44.70    7.30
  -2  -5 -10   86.39    9.50
   2  -5  10   78.79    8.90
   2  -5  10  113.09   11.00
   2   5  10   97.99    8.30
   2   5  10   84.39    9.40
   2   5  10   79.59    9.60
   2   5  10  100.19   10.50
   3  -5  10   21.90    8.60
   3  -5  10   27.10   10.00
   3   5  10    1.20    6.70
   3   5  10    5.90    9.10
   3   5  10   22.00    9.30
   3   5  10   16.10    7.30
   4  -5  10   17.30   10.40
   4  -5  10   11.90    9.20
   4   5  10   20.60    9.80
   4   5  10    9.80    8.10
   4   5  10   -2.70    7.80
   4   5  10   34.50   10.80
  -8  -6  10    5.30   11.20
  -8  -6  10    5.20    6.20
  -8  -6  10    3.10    9.50
  -8   6  10    5.60   10.10
  -8   6  10   11.00    9.40
  -8   6  10   14.50    6.90
  -8   6  10    6.40    7.00
  -7  -6  10   19.30    9.00
  -7  -6  10   17.00   10.20
  -7  -6  10   32.60    6.50
  -7   6  10   28.40    9.30
  -7   6  10   26.90    6.60
  -7   6  10   15.00    6.10
  -7   6  10   29.40    9.80
  -6  -6  10   21.60    8.20
  -6  -6  10   10.90    5.00
  -6  -6  10    9.30    9.00
  -6   6  10   28.30    8.20
  -6   6  10   10.90    5.70
  -6   6  10   11.10    6.60
  -6   6  10   14.50    5.60
  -6   6  10    9.90    8.70
  -5  -6  10  109.39   11.20
  -5  -6  10   86.79    9.20
  -5   6  10   91.99    8.60
  -5   6  10   90.29    7.00
  -5   6  10   83.29    9.60
  -5   6  10   93.29   10.20
  -5   6  10   94.59   10.40
  -5   6  10   92.89    8.90
   4  -6 -10   26.60    7.80
  -4  -6  10   29.10    8.70
  -4  -6  10   41.80    7.80
   4   6 -10   30.80    3.70
  -4   6  10   34.80    5.50
  -4   6  10   43.50    9.60
  -4   6  10   35.50    7.20
  -4   6  10   38.50    7.70
  -4   6  10   36.20    8.20
  -4   6  10   41.20    6.10
   3  -6 -10   25.80    7.60
  -3  -6  10   14.70    7.90
  -3  -6  10   10.20    7.00
  -3   6  10   14.70    6.90
   3   6 -10   13.50    4.00
  -3   6  10   23.60    6.60
  -3   6  10   21.00    7.20
  -3   6  10   16.30    5.00
  -3   6  10   21.00    5.50
  -3   6  10   11.50    7.30
  -2  -6  10   64.59    6.40
  -2  -6  10   70.39    9.70
  -2  -6  10   68.49    6.30
  -2  -6  10   73.99    8.40
  -2   6  10   50.09    7.70
  -2   6  10   64.39    6.60
  -2   6  10   58.69    6.30
  -2   6  10   59.69    6.40
  -2   6  10   92.09    9.20
  -2   6  10   55.79    8.10
  -1  -6  10   23.50    6.50
  -1  -6  10   19.50    8.50
   1  -6 -10   19.80    6.30
  -1  -6  10   12.00    6.80
  -1  -6  10   19.80    5.30
  -1   6  10    6.80    5.30
  -1   6  10   14.40    7.80
  -1   6  10   16.20    5.60
   1   6 -10    8.80    7.40
  -1   6  10   16.30    7.30
   1   6 -10   14.70    4.00
   1   6 -10   23.20    5.60
   0  -6  10   67.59    9.10
   0  -6  10   83.09    9.10
   0   6  10   98.39   10.30
   0   6  10  119.89   10.30
   0   6  10   87.49    9.30
   0   6 -10   67.89    9.00
   0   6  10   71.09    7.40
   1  -6  10   19.90    9.00
   1  -6  10   22.90    9.30
   1  -6  10   20.00    8.00
   1   6  10    9.20    8.70
   1   6  10   24.30    6.80
   1   6  10    9.70    6.20
   1   6  10   23.40    8.90
   2  -6  10   19.80   10.00
   2   6  10   24.00    9.30
   2   6  10   13.20    7.20
   2   6  10   13.40    8.90
   2   6  10   16.20    7.50
   3  -6  10   53.09   12.00
   3  -6  10   32.60    9.90
   3   6  10   60.09    9.40
   3   6  10   46.10    9.10
   3   6  10   36.70   10.30
   3   6  10   40.00   10.50
  -7  -7  10   99.29   13.90
  -7  -7  10   90.19   12.30
  -7   7  10   95.29   13.50
  -7   7  10   86.09    9.10
  -7   7  10   72.09    9.10
  -7   7  10   72.99   12.60
  -6  -7  10   20.10   11.20
  -6  -7  10   20.80    9.90
  -6   7  10   18.00    7.10
  -6   7  10   -3.20    9.90
  -6   7  10    4.80    7.00
  -5  -7  10   -3.70    8.40
  -5  -7  10   -2.00    9.90
  -5   7  10    4.50    6.40
  -5   7  10    1.80    9.10
  -5   7  10    1.90    7.70
  -5   7  10    1.90    6.50
  -4  -7  10   45.60    9.10
  -4  -7  10   32.40   10.20
  -4   7  10   34.10    9.70
  -4   7  10   28.80    6.70
  -4   7  10   23.20    7.00
  -4   7  10   41.20    9.20
  -3  -7  10   81.99    9.80
  -3  -7  10   89.79   11.40
   3   7 -10   96.99    9.70
  -3   7  10   99.49   11.10
  -3   7  10  105.29   10.50
  -3   7  10  112.99   11.30
  -3   7  10  114.99   10.70
  -2  -7  10   79.09   10.00
  -2  -7  10   78.39   11.10
  -2   7  10   75.09    8.00
  -2   7  10   80.99   10.10
  -2   7  10   72.19    7.90
  -2   7  10  104.19   11.40
  -1  -7  10   29.20    8.80
  -1  -7  10   -4.10    9.50
  -1   7  10   11.00    6.80
  -1   7  10   10.40    7.70
  -1   7  10   13.70    7.10
  -1   7  10   10.40    8.80
   0  -7  10   17.90    9.00
   0  -7  10   12.90    9.90
   0   7  10   13.50    7.00
   0   7  10    9.70    9.30
   0   7  10   28.20    7.50
   0   7  10   24.30   10.10
   1  -7  10   52.69    9.90
   1  -7  10   48.40   11.30
   1   7  10   65.99   11.40
   1   7  10   54.09   12.00
   1   7  10   40.20    8.60
   1   7  10   51.79    8.70
   2  -7  10    1.50   18.60
   2   7  10   17.70   13.30
   2   7  10    2.30   11.80
   2   7  10   24.30    8.90
  -5  -8  10   49.60   11.80
  -5   8  10   49.10    9.30
  -4  -8  10   80.39   14.80
  -4  -8  10   70.59   12.10
  -4   8  10   56.09   17.00
  -4   8  10   66.19    9.20
  -4   8  10   54.39   13.50
  -4   8  10   65.49   11.20
  -3  -8  10   22.40   11.90
  -3  -8  10   16.60   10.50
  -3   8  10   38.50   11.30
  -3   8  10   13.80    8.40
  -3   8  10    9.50    8.20
  -3   8  10   24.90   11.10
  -2  -8  10   22.80   10.70
  -2  -8  10   37.30   12.00
  -2   8  10   37.00   11.30
  -2   8  10   41.20    9.20
  -2   8  10   59.19   12.20
  -2   8  10   49.80    9.20
  -1  -8  10   35.40   10.80
  -1  -8  10   37.40   15.30
  -1   8  10    7.20   15.80
  -1   8  10   21.30   11.50
  -1   8  10   44.40   13.00
  -1   8  10   16.50    8.70
   0  -8  10   23.70   11.20
   0   8  10   43.90   12.00
   0   8  10   36.50    9.10
 -10   0  11  161.58   16.90
 -10   0  11  181.58   17.90
 -10   0  11  188.78   14.90
  -9   0  11   42.30    8.90
  -9   0  11   40.50    7.40
  -9   0  11   40.60    7.90
  -9   0  11   45.90    6.80
  -8   0  11   50.49    8.10
  -8   0  11   32.20    6.90
  -8   0  11   41.10    6.80
  -8   0  11   45.20    4.10
  -8   0  11   44.30    6.30
  -7   0  11   52.89    6.50
  -7   0  11   60.29    7.20
  -7   0  11   56.39    5.00
  -7   0  11   57.49    6.30
  -7   0  11   63.49    6.60
  -6   0  11   28.50    5.60
  -6   0  11   22.40    4.50
  -6   0  11   32.60    5.40
  -6   0  11   35.60    5.60
  -6   0  11   27.20    5.70
  -5   0  11  143.09    8.80
  -5   0  11  142.89    8.20
  -5   0  11  139.99    9.00
  -5   0  11  134.59    8.60
  -5   0  11  138.79    8.60
  -4   0  11   86.69    8.10
  -4   0  11   96.09    7.70
  -4   0  11  101.79    7.90
  -4   0  11   94.29    7.60
  -4   0  11   98.09    7.60
  -3   0  11   22.20    4.90
  -3   0  11   31.00    5.00
  -3   0  11   28.50    4.40
  -3   0  11   17.20    4.30
  -3   0  11   24.40    5.30
  -2   0  11   98.29    5.80
  -2   0  11  100.69    8.10
  -2   0  11  100.29    9.50
  -2   0  11   89.99    7.20
  -1   0  11   18.30    5.20
  -1   0  11   20.00    2.70
  -1   0  11   19.40    5.20
  -1   0  11   16.20    2.40
   0   0  11  189.28    6.60
   0   0  11  193.58    6.30
   0   0  11  200.78   11.10
   0   0  11  196.78    7.50
   0   0  11  214.48   10.90
   0   0  11  206.88    9.20
  -1   0 -11   22.90    3.90
   1   0  11   18.00    5.20
   1   0  11   32.90    4.80
   1   0  11   19.30    6.20
   1   0  11   26.50    6.30
   1   0  11   28.70    4.20
  -2   0 -11    3.40    3.80
   2   0  11    7.90    6.50
  -2   0 -11    5.80    7.20
   2   0  11    4.70    6.60
   2   0  11    8.30    5.10
   2   0  11   -5.10    5.00
   3   0  11    1.10    7.20
   3   0  11    5.00    7.60
   4   0  11   -8.30    8.70
   4   0  11   -3.80    8.30
   5   0  11   43.70   11.90
 -10  -1  11   72.39    9.50
 -10  -1  11   61.49   10.80
 -10   1  11   77.99    8.60
 -10   1  11   54.09    9.50
 -10   1  11   59.39    4.90
 -10   1  11   63.69   10.90
  -9  -1  11    9.10    5.50
  -9  -1  11    6.90    8.00
  -9  -1  11  -10.40    6.60
  -9   1  11    7.60    7.90
  -9   1  11   -0.50    6.10
  -9   1  11    3.40    7.30
  -8  -1  11  125.09   10.60
  -8  -1  11  105.59    6.80
  -8  -1  11  130.49    9.90
  -8  -1  11  105.29    8.60
  -8   1  11  110.59    9.30
  -8   1  11  120.19    9.20
  -8   1  11  105.29   10.40
  -8   1  11  116.19    9.50
  -7  -1  11  104.59    8.30
  -7  -1  11  114.99   10.40
  -7  -1  11  107.39    7.50
  -7  -1  11  101.29    8.40
  -7   1  11  112.69    7.50
  -7   1  11  111.69   11.00
  -7   1  11  104.19    9.90
  -7   1  11  115.49    8.70
  -7   1  11  111.89    8.60
  -6  -1  11   41.70    5.50
  -6  -1  11   34.30    5.90
  -6  -1  11   45.30    6.40
  -6  -1  11   33.40    5.40
  -6  -1  11   42.20    5.10
  -6   1  11   40.30    6.30
  -6   1  11   47.80    6.30
  -6   1  11   45.20    5.20
  -6   1  11   46.80    6.30
  -6   1  11   49.60    5.20
  -5  -1  11  183.08    8.80
  -5  -1  11  180.68    8.80
  -5  -1  11  188.18    9.70
  -5  -1  11  176.38    8.90
  -5  -1  11  204.48   10.10
  -5   1  11  188.18    8.80
  -5   1  11  187.78    9.80
  -5   1  11  169.18    9.60
  -5   1  11  181.78    9.80
  -5   1  11  176.28    8.30
  -4  -1  11   49.60    5.50
  -4  -1  11   41.60    5.80
  -4  -1  11   48.70    5.70
  -4  -1  11   42.10    4.80
  -4  -1  11   42.50    5.10
  -4   1  11   38.50    4.80
  -4   1  11   42.90    5.20
  -4   1  11   45.30    5.10
  -4   1  11   45.20    5.80
  -4   1  11   45.50    5.90
  -3  -1  11  116.09    7.60
  -3  -1  11  118.09    7.10
  -3  -1  11  120.49    8.50
  -3  -1  11  117.49    8.80
  -3  -1  11  126.29    8.50
  -3   1  11  119.69    8.30
  -3   1  11  118.29    7.50
  -3   1  11  141.39    8.50
  -3   1  11  115.89    6.90
  -2  -1  11  374.66   10.60
  -2  -1  11  393.36   12.90
  -2  -1  11  375.96   12.70
  -2  -1  11  403.46   13.00
  -2  -1  11  372.76   10.50
  -2   1  11  378.86   11.80
  -2   1  11  369.16    9.30
  -2   1  11  386.76   13.50
  -1  -1  11    4.40    2.30
  -1  -1  11   -0.70    3.90
  -1  -1  11   -0.60    4.80
  -1  -1  11   11.90    5.00
  -1  -1  11    2.00    3.50
  -1  -1  11    7.60    3.10
  -1   1  11   10.30    2.90
  -1   1  11   13.50    4.90
  -1   1  11    6.90    2.40
  -1   1  11    5.50    5.10
  -1   1  11    1.00    5.30
   0  -1  11  123.09    5.60
   0  -1  11  134.69    7.20
   0  -1  11  129.09    6.60
   0  -1  11  139.39   10.50
   0  -1  11  131.09   10.20
   0  -1  11  138.19    7.00
   0   1  11  138.09    6.60
   0   1  11  130.39   10.00
   0   1  11  141.09   10.30
   0   1  11  129.79    5.90
   0   1  11  142.99    7.20
   0   1  11  129.19    9.30
   1  -1  11   33.10    6.60
   1  -1  11   33.00    4.30
   1  -1  11   32.20    4.80
   1  -1  11   35.20    4.30
   1  -1  11   29.10    6.80
  -1  -1 -11   34.70    4.30
   1   1  11   37.60    5.00
   1   1  11   34.20    6.20
  -1   1 -11   35.80    4.00
   1   1  11   46.70    6.50
   1   1  11   27.80    6.70
  -1   1 -11   33.70    3.70
   1   1  11   34.10    5.30
   1   1  11   34.50    4.60
   2  -1  11   10.30    5.30
   2  -1  11   25.70    7.20
   2  -1  11   15.90    7.00
  -2  -1 -11    6.40    7.50
  -2  -1 -11   15.30    4.20
  -2   1 -11   17.10    4.10
   2   1  11   15.90    5.90
   2   1  11   21.60    6.70
   2   1  11   26.00    6.70
   3  -1  11  225.38   15.00
   3  -1  11  210.88   14.80
   3   1  11  209.18   14.10
   3   1  11  221.98   14.60
   4  -1  11   61.29    9.60
   4  -1  11   43.00    9.70
   4   1  11   47.30    9.10
   4   1  11   53.39   10.20
   5  -1  11   13.10   11.50
   5   1  11   12.10   11.10
 -10  -2  11    5.80   10.10
 -10  -2  11    2.00    8.30
 -10   2  11    4.40    4.80
 -10   2  11    6.60    8.80
 -10   2  11   20.60    9.40
  -9  -2  11  125.19   12.40
  -9  -2  11  126.49   11.40
  -9   2  11  152.98   11.60
  -9   2  11  132.09    6.50
  -9   2  11  147.59   12.70
  -9   2  11  117.99    7.10
  -8  -2  11   26.90    6.60
  -8  -2  11   42.30    7.90
  -8  -2  11   34.90    5.00
  -8  -2  11   33.10    7.80
  -8  -2  11   32.50    4.60
  -8   2  11   48.40    7.80
  -8   2  11   33.30    5.10
  -8   2  11   42.10    7.50
  -7  -2  11  268.97   13.00
  -7  -2  11  237.48    9.70
  -7  -2  11  249.48    9.40
  -7  -2  11  240.28   11.00
  -7  -2  11  242.88   13.40
  -7   2  11  261.07   12.10
  -7   2  11  263.27   12.90
  -7   2  11  237.78    9.20
  -7   2  11  265.77   13.10
  -7   2  11  252.07    9.00
  -6  -2  11   34.90    6.50
  -6  -2  11   31.50    5.00
  -6  -2  11   32.10    5.00
  -6  -2  11   27.10    5.10
  -6   2  11   32.80    4.10
  -6   2  11   37.20    6.50
  -6   2  11   28.40    6.30
  -6   2  11   30.80    5.00
  -6   2  11   31.20    6.20
  -5  -2  11   15.00    5.50
  -5  -2  11    2.40    4.10
  -5  -2  11    1.00    4.80
  -5  -2  11    7.50    4.20
  -5  -2  11   10.80    4.60
  -5   2  11   16.30    5.40
  -5   2  11    8.40    3.50
  -5   2  11    8.00    4.50
  -5   2  11    9.60    5.00
  -4  -2  11  172.68    7.70
  -4  -2  11  144.09    9.30
  -4  -2  11  172.98    9.20
  -4  -2  11  179.68   10.50
  -4  -2  11  163.78    8.70
  -4   2  11  157.88   10.20
  -4   2  11  170.08    8.80
  -4   2  11  176.58    9.10
  -4   2  11  158.98    7.10
  -3  -2  11   16.90    5.50
  -3  -2  11   20.60    4.80
  -3  -2  11   19.80    5.00
  -3  -2  11   18.50    3.70
  -3   2  11   22.70    6.20
  -3   2  11   16.80    3.90
  -3   2  11   26.30    5.10
  -3   2  11   16.30    4.00
  -2  -2  11   27.70    5.70
  -2  -2  11   34.90    3.70
  -2  -2  11   24.70    4.60
  -2  -2  11   30.00    7.10
  -2   2  11   27.90    5.60
  -2   2  11   30.90    3.30
  -2   2  11   30.40    3.10
  -2   2  11   36.70    6.70
  -2   2  11   35.00    2.90
  -2   2  11   27.10    3.00
  -2   2  11   28.40    4.60
  -1  -2  11  137.29    5.90
  -1  -2  11  139.39    5.50
  -1  -2  11  134.99    7.60
  -1  -2  11  134.99   10.00
  -1  -2  11  148.89   10.80
  -1  -2  11  140.29    5.60
  -1   2  11  150.28    6.80
  -1   2  11  138.89    9.80
  -1   2  11  146.39    6.00
  -1   2  11  119.69   10.40
  -1   2  11  138.79    5.30
  -1   2  11  138.79    6.30
  -1   2  11  135.99    8.30
   0  -2  11  172.38    6.80
   0  -2  11  198.08    7.80
   0  -2  11  178.78    6.70
   0  -2 -11  175.38    6.80
   0  -2  11  191.28   11.60
   0  -2  11  186.18   11.80
   0   2  11  189.38   12.00
   0   2  11  188.68    7.60
   0   2  11  176.48    7.20
   0   2  11  179.88   11.90
   0   2  11  185.98    7.80
   0   2  11  167.38    8.40
   0   2  11  192.98   11.50
   0   2  11  178.18    9.70
  -1  -2 -11  318.17    8.60
   1  -2  11  323.77    9.90
   1  -2  11  327.07   14.90
  -1  -2 -11  301.77   10.20
   1  -2  11  348.27   14.40
   1  -2  11  320.87   11.00
   1   2  11  328.57   11.50
   1   2  11  311.37   14.00
   1   2  11  309.07   10.80
  -1   2 -11  310.57    9.40
   1   2  11  334.67   12.80
   1   2  11  321.87   10.80
   1   2  11  337.87   10.50
   1   2  11  359.06   14.50
  -1   2 -11  327.37    9.20
   2  -2  11   85.99    6.90
   2  -2  11   83.89    9.10
   2  -2  11   86.29    9.60
  -2   2 -11   84.39    6.70
   2   2  11   79.79    8.40
   2   2  11   77.09    7.50
   2   2  11   81.89    9.10
  -2   2 -11   83.29    6.70
   2   2  11   78.69    8.10
   2   2  11   93.19    9.60
  -3  -2 -11   23.50    9.90
   3  -2  11   -3.30    8.30
   3  -2  11  -17.40    7.10
   3   2  11    5.30    8.60
   3   2  11   -2.20    5.20
   3   2  11   11.90    7.90
   3   2  11   -2.80    7.50
   4  -2  11   35.60    9.30
   4  -2  11   39.90   10.90
   4   2  11   53.19   10.30
   4   2  11   37.20   10.20
 -10  -3  11   35.70   11.00
 -10  -3  11   39.40    4.80
 -10  -3  11   33.60    9.40
 -10   3  11   22.10   10.20
 -10   3  11   34.10    8.20
 -10   3  11   29.80    6.30
 -10   3  11   49.40   10.50
  -9  -3  11   35.70    9.70
  -9  -3  11   33.10    7.80
  -9   3  11   47.60    5.10
  -9   3  11   41.70    9.30
  -9   3  11   37.90    5.70
  -9   3  11   43.30    8.60
  -8  -3  11   36.00    5.40
  -8  -3  11   27.60    8.00
  -8  -3  11   38.30    8.70
  -8  -3  11   31.30    6.80
  -8   3  11   48.70    8.80
  -8   3  11   26.90    8.00
  -8   3  11   29.70    3.90
  -8   3  11   35.80    4.80
  -7  -3  11  132.49    8.90
  -7  -3  11  114.79    9.80
  -7  -3  11  127.39   12.20
  -7  -3  11  131.89    9.80
  -7   3  11  124.29    8.40
  -7   3  11  126.99    6.30
  -7   3  11  106.79    5.40
  -7   3  11  104.59    9.30
  -7   3  11  126.39   12.30
  -6  -3  11  122.49   11.50
  -6  -3  11  117.59    9.00
  -6  -3  11  116.89    8.50
  -6  -3  11  114.79    7.00
  -6  -3  11  114.19   11.70
  -6   3  11  121.49    8.80
  -6   3  11  129.09   11.50
  -6   3  11  131.09   11.70
  -5  -3  11    4.40    4.20
  -5  -3  11    4.20    9.20
  -5  -3  11    0.80    4.80
  -5  -3  11    6.20    4.20
  -5  -3  11   11.80    6.30
  -5   3  11    6.90    4.90
  -5   3  11   -3.90    5.60
  -5   3  11    5.80    5.90
  -4  -3  11   36.20    5.90
  -4  -3  11   29.00    5.00
  -4  -3  11   31.30    4.20
  -4  -3  11   31.10    6.80
  -4   3  11   31.40    6.20
  -4   3  11   35.20    3.20
  -4   3  11   29.40    5.60
  -4   3  11   25.60    5.60
  -4   3  11   31.10    2.90
  -3  -3  11   27.40    5.20
  -3  -3  11   19.90    5.20
  -3  -3  11   23.00    3.30
  -3  -3  11   29.20    6.70
  -3  -3  11   31.00    5.90
  -3   3  11   24.40    5.50
  -3   3  11   22.50    3.40
  -3   3  11   25.50    4.90
  -3   3  11   23.60    3.10
  -3   3  11   25.20    4.70
  -3   3  11   25.50    6.60
  -2  -3  11   65.29    6.70
  -2  -3  11   75.09    6.30
  -2  -3  11   53.59    7.10
  -2   3  11   76.09    8.20
  -2   3  11   65.59    5.80
  -2   3  11   70.29    6.30
  -2   3  11   65.99    5.70
  -2   3  11   63.59    5.20
  -2   3  11   64.59    4.60
  -2   3  11   66.19    5.00
  -2   3  11   68.99    6.90
  -2   3  11   69.09    5.20
  -1  -3  11   79.99    7.60
  -1  -3  11   88.89    8.30
  -1  -3  11   70.79    7.90
  -1  -3  11   82.89    5.90
  -1   3  11   74.89    7.40
  -1   3  11   70.39    7.10
  -1   3  11   80.59    5.80
  -1   3  11   92.19    7.40
  -1   3  11   79.39    8.50
  -1   3  11   83.69    6.50
  -1   3  11   73.49    6.30
   0  -3  11   15.50    4.30
   0  -3  11   19.30    7.00
   0  -3  11   12.80    6.20
   0  -3 -11   12.50    4.10
   0  -3  11   11.10    4.80
   0   3  11   17.40    6.40
   0   3  11   10.70    4.10
   0   3  11   14.70    5.30
   0   3  11    9.00    6.60
   0   3  11   14.00    4.40
   0   3  11    6.50    4.50
   0   3  11   14.80    5.20
   0   3  11   21.80    7.90
   1  -3  11   45.10    5.70
   1  -3  11   49.80    8.40
   1  -3  11   50.09    8.00
  -1  -3 -11   45.50    4.70
   1   3  11   55.89    8.60
   1   3  11   51.09    8.30
   1   3  11   47.00    5.50
   1   3  11   50.49    5.90
   1   3  11   41.90    9.30
   1   3  11   52.69    6.70
   1   3  11   39.50    6.60
   2  -3  11   11.20    7.60
   2  -3  11   11.40    8.10
   2   3  11   10.30    5.70
   2   3  11    8.80    7.70
   2   3  11   -1.30    5.20
   3  -3  11   17.40    8.40
   3  -3  11   35.00    9.80
   3   3  11   31.20    9.30
   3   3  11   28.30    6.90
   3   3  11   35.20    7.10
   4  -3  11   26.40    9.80
   4  -3  11   35.70   11.00
   4   3  11   22.20    9.90
   4   3  11   38.60    8.40
  -9  -4  11    3.60   10.40
  -9  -4  11    8.10    8.10
  -9  -4  11   -3.90    9.50
  -9   4  11  -10.60    9.00
  -9   4  11   -6.50    9.30
  -9   4  11    5.60    4.80
  -9   4  11   10.40    5.60
  -8  -4  11   17.30    5.90
  -8  -4  11   29.10    9.00
  -8  -4  11   28.30    7.50
  -8  -4  11   18.50    9.80
  -8   4  11   29.50    9.00
  -8   4  11   27.00    6.30
  -8   4  11   33.90    8.80
  -8   4  11   23.80    5.10
  -7  -4  11   -1.30    7.20
  -7  -4  11    7.30    5.70
  -7  -4  11    7.90    5.70
  -7  -4  11    6.80    8.40
  -7   4  11    5.10    4.10
  -7   4  11    8.80    5.60
  -7   4  11    9.50    7.90
  -7   4  11   11.40    4.90
  -7   4  11   -3.20    7.20
  -7   4  11    9.30    3.50
  -6  -4  11  136.69   14.10
  -6  -4  11  127.49    9.90
  -6  -4  11  118.59    8.80
  -6   4  11  119.19    8.20
  -6   4  11  112.29    9.90
  -6   4  11  139.49    7.30
  -6   4  11  130.19    5.70
  -6   4  11  124.19    6.10
  -6   4  11  139.89   13.10
  -6   4  11  124.49   10.00
  -6   4  11  145.69   14.40
  -5  -4  11   25.80    6.90
  -5  -4  11   30.20    7.60
  -5  -4  11   30.50    4.60
  -5  -4  11   28.10    4.20
  -5   4  11   22.40    7.00
  -5   4  11   32.10    6.30
  -5   4  11   46.10    7.70
  -5   4  11   34.80    3.80
  -5   4  11   30.00    3.20
  -5   4  11   29.40    4.10
  -5   4  11   15.90    7.20
  -5   4  11   24.80    4.50
  -4  -4  11   22.50    7.30
  -4  -4  11   13.20    6.10
  -4  -4  11   17.80    4.80
  -4  -4  11   14.90    3.30
  -4   4  11   11.70    3.10
  -4   4  11   11.30    6.70
  -4   4  11   10.40    5.80
  -4   4  11   15.00    4.50
  -4   4  11   10.70    3.60
  -4   4  11    4.20    5.90
  -4   4  11   18.20    3.80
  -3  -4  11  108.89    9.10
  -3  -4  11  108.79   10.20
  -3  -4  11  112.89    8.40
  -3  -4  11  119.99   12.20
  -3   4  11  105.89    8.40
  -3   4  11  108.69    6.10
  -3   4  11   85.39    6.10
  -3   4  11   99.39    8.10
  -3   4  11  107.29    9.90
  -3   4  11  106.39    6.80
  -3   4  11   91.29    8.60
  -2  -4  11   19.80    7.10
  -2  -4  11   27.00    6.80
  -2  -4  11   22.30    3.60
  -2  -4  11   24.80    6.30
  -2  -4  11   27.70    5.90
  -2   4  11   21.90    7.50
  -2   4  11   19.00    5.10
  -2   4  11   25.20    6.50
  -2   4  11   28.20    4.50
  -2   4  11   26.70    4.10
  -2   4  11   27.40    3.90
  -2   4  11   26.60    3.80
  -2   4  11   25.70    4.60
  -1  -4  11  142.69   11.70
  -1  -4  11  125.19   12.50
  -1  -4  11  141.09   10.10
  -1  -4  11  127.49   11.60
  -1  -4  11  129.09    6.40
  -1  -4  11  109.99    7.70
  -1   4  11  123.99   11.60
  -1   4  11  117.39    9.20
  -1   4  11  117.59    7.50
  -1   4  11  114.99    8.20
  -1   4  11  123.79   12.70
  -1   4  11  140.19    9.50
   0  -4  11  110.19    9.00
   0  -4  11  107.99    8.70
   0  -4  11  108.69   10.30
   0  -4  11  130.39   10.80
   0  -4  11  121.69   10.10
   0   4  11  102.79    9.70
   0   4  11  104.49    8.20
   0   4  11  113.89    9.00
   0   4  11  122.39   10.30
   0   4 -11  107.89    6.40
   0   4  11  126.09   10.00
   1  -4  11   12.10    7.10
   1  -4  11   13.90    8.00
   1  -4  11   27.70    7.00
   1   4  11   24.80    8.60
  -1   4 -11   18.20    5.60
   1   4  11   32.40    5.80
   1   4  11   20.90    7.60
   1   4  11   36.50    6.30
   2  -4  11   84.99   10.70
   2  -4  11   73.39   10.00
   2   4  11   86.79   10.80
   2   4  11   84.99    8.20
   2   4  11   94.69   10.90
   2   4  11   84.09    7.60
   3  -4  11   -0.70    9.20
   3  -4  11  -12.60    9.70
   3   4  11    8.80    7.20
   3   4  11   10.80    8.70
   3   4  11   -3.40    8.80
   3   4  11   -6.30    7.10
  -8  -5  11   79.89   11.80
  -8  -5  11   86.19   12.70
  -8   5  11   74.09    7.20
  -8   5  11   48.40   11.00
  -8   5  11   94.49   11.60
  -8   5  11   85.99    6.80
  -7  -5  11    6.00    9.90
  -7  -5  11    4.30    8.70
  -7  -5  11    9.90    6.30
  -7   5  11   44.70    9.60
  -7   5  11   14.80    9.40
  -7   5  11   15.20    5.50
  -7   5  11   17.00    5.20
  -6  -5  11   41.30    7.10
  -6  -5  11   26.70    9.40
  -6  -5  11   27.50    8.30
  -6   5  11   29.60    4.90
  -6   5  11   21.30    7.10
  -6   5  11   40.90    7.00
  -6   5  11   21.80    9.80
  -6   5  11   28.60    9.00
  -6   5  11   15.30    8.40
  -6   5  11   24.40    5.40
  -5  -5  11   44.10    8.40
  -5  -5  11   36.50    9.20
  -5   5  11   44.60    5.30
  -5   5  11   36.10    8.60
  -5   5  11   45.20    7.80
  -5   5  11   40.40    6.40
  -5   5  11   40.20    9.60
  -5   5  11   45.50    4.90
  -4  -5  11   95.99    6.80
  -4  -5  11  103.39    9.30
  -4  -5  11  102.59   10.30
  -4   5  11   91.09    8.30
  -4   5  11  113.19    7.80
  -4   5  11  119.09   10.00
  -4   5  11   80.79    9.40
  -4   5  11  119.29   11.60
  -3  -5  11  253.27   10.30
  -3  -5  11  276.87   16.00
  -3  -5  11  257.37   13.70
  -3   5  11  242.48    9.70
  -3   5  11  254.07   13.60
  -3   5  11  261.97   14.90
  -3   5  11  260.97   12.10
  -3   5  11  241.18   10.30
  -2  -5  11   32.10    4.90
  -2  -5  11   27.20    8.50
  -2  -5  11   32.50    8.50
  -2   5  11   33.60    7.70
  -2   5  11   36.50    5.60
  -2   5  11   31.50    6.70
  -2   5  11   33.90    5.20
  -2   5  11   22.30    8.30
  -1  -5  11   16.90    7.70
  -1  -5  11   13.30    8.50
  -1  -5  11   31.00    7.10
  -1  -5  11   27.00    5.30
  -1   5  11   28.90    5.70
  -1   5  11   23.10    5.40
  -1   5  11   25.50    7.50
  -1   5  11   30.10    8.90
   0  -5  11  136.89   13.90
   0  -5  11  133.59   12.50
   0  -5  11  132.49   12.00
   0  -5  11  110.39   11.10
   0   5  11  121.79   10.50
   0   5  11  112.99   10.20
   0   5  11  139.99   10.20
   0   5  11  129.49   11.70
   1  -5  11   46.20   10.50
   1  -5  11   37.50    9.20
   1   5  11   39.30    6.70
   1   5  11   31.10    7.00
   1   5  11   44.10    9.40
   1   5  11   31.30    9.70
   2  -5  11   47.10   11.40
   2  -5  11   40.20   10.10
   2   5  11   52.39    8.00
   2   5  11   69.19    8.60
   2   5  11   51.39   11.00
   2   5  11   64.89   11.20
   3  -5  11    0.10   11.70
   3   5  11   -4.20    8.00
  -7  -6  11    8.20   11.80
  -7  -6  11   34.60   10.80
  -7   6  11   37.30   11.20
  -7   6  11   45.60   11.90
  -7   6  11   41.00    7.00
  -7   6  11   32.70    7.60
  -6  -6  11   97.79   12.80
  -6  -6  11   72.79   10.80
  -6   6  11   76.69    7.70
  -6   6  11   77.29   11.60
  -6   6  11   87.09    9.70
  -6   6  11   86.89    7.20
  -6   6  11   77.99   11.40
  -5  -6  11   11.80   10.20
  -5  -6  11   17.30    8.80
  -5   6  11   21.10    6.00
  -5   6  11   21.80    9.60
  -5   6  11   23.10    6.20
  -5   6  11   20.60    8.40
  -4  -6  11   23.00    8.60
  -4  -6  11   11.40    9.50
  -4   6  11   20.20    5.90
  -4   6  11   15.30    6.10
  -4   6  11   20.30    9.40
  -4   6  11   21.40    8.60
  -3  -6  11   69.69    9.50
  -3  -6  11   88.79   11.00
  -3   6  11   79.99    9.90
  -3   6  11   83.39   10.00
  -3   6  11   81.79    7.20
  -3   6  11   96.49    7.80
  -2  -6  11    5.40    8.10
  -2  -6  11    0.60    9.40
  -2   6  11    1.50    5.70
  -2   6  11  -12.40    8.00
  -2   6  11   -2.80    8.10
  -2   6  11    3.20    6.00
  -1  -6  11   50.49    9.10
  -1  -6  11   39.50   10.50
  -1   6  11   50.19   10.40
  -1   6  11   48.70    9.60
  -1   6  11   38.60    7.10
  -1   6  11   46.50    6.80
   0  -6  11    3.20    8.40
   0  -6  11    4.10   10.40
   0   6  11   -7.80    9.50
   0   6  11    6.20    6.70
   0   6  11    4.00    6.80
   0   6  11    0.00    9.80
   1  -6  11   26.00   11.70
   1  -6  11   33.50    9.30
   1   6  11   26.00    8.20
   1   6  11   30.80    8.00
   1   6  11   13.20   10.30
   1   6  11    6.00   10.60
  -5  -7  11   -9.40   13.20
  -5  -7  11    7.20   10.70
  -5   7  11    6.50    7.50
  -5   7  11   28.40    9.90
  -4  -7  11   38.80   11.00
  -4  -7  11   57.59   12.90
  -4   7  11   44.30   11.70
  -4   7  11   48.00    8.00
  -4   7  11   51.69    8.30
  -4   7  11   47.10   11.00
  -3  -7  11   48.00   10.80
  -3  -7  11   40.00   12.20
  -3   7  11   31.80    7.80
  -3   7  11   46.90   10.70
  -3   7  11   51.29    8.20
  -3   7  11   49.50   11.90
  -2  -7  11   17.10   11.80
  -2  -7  11   19.50   10.00
  -2   7  11   10.20    7.60
  -2   7  11    2.20    7.20
  -2   7  11   17.50   11.50
  -2   7  11   11.90   10.80
  -1  -7  11   41.20   10.60
  -1  -7  11   38.40   14.60
  -1   7  11   26.50   11.30
  -1   7  11   36.90    8.20
  -9   0  12  -13.30    8.90
  -9   0  12    3.30    8.50
  -9   0  12   -1.00    8.90
  -8   0  12   99.69   10.00
  -8   0  12  116.29    9.00
  -8   0  12  111.69    9.90
  -8   0  12  117.49   11.90
  -7   0  12   -1.90    6.40
  -7   0  12   -6.90    6.10
  -7   0  12   -0.10    4.80
  -7   0  12   -1.70    6.60
  -7   0  12    9.30    6.20
  -6   0  12  137.59   10.70
  -6   0  12  134.69   11.30
  -6   0  12  152.88   10.80
  -6   0  12  141.39    9.20
  -6   0  12  146.79   10.90
  -5   0  12  230.48   11.30
  -5   0  12  239.98   10.80
  -5   0  12  216.48   11.30
  -5   0  12  232.18   11.10
  -4   0  12   63.19    6.30
  -4   0  12   67.19    6.20
  -4   0  12   61.89    6.60
  -4   0  12   49.99    6.70
  -3   0  12   -1.10    5.40
  -3   0  12    1.50    5.20
  -3   0  12    2.50    4.40
  -3   0  12    4.60    4.80
  -3   0  12    4.80    5.80
  -2   0  12  220.58    7.60
  -2   0  12  244.18   10.40
  -2   0  12  207.78   11.70
  -2   0  12  232.28   12.10
  -2   0  12  245.48   11.60
  -1   0  12   30.10    5.40
  -1   0  12   42.50    6.40
  -1   0  12   33.30    7.30
  -1   0  12   37.40    6.90
  -1   0  12   47.30    7.40
   0   0  12  200.08    8.30
   0   0  12  219.88   15.60
   0   0  12  208.98   13.10
   1   0  12   22.50    5.20
   1   0  12   13.00    4.30
   1   0  12   16.20    7.50
   1   0  12   22.70    7.80
   2   0  12   -7.30    8.50
   2   0  12    8.90    8.20
   3   0  12   42.50    9.60
   3   0  12   65.29   10.90
  -9  -1  12   26.90    8.70
  -9  -1  12   45.00    9.30
  -9  -1  12   21.00   10.20
  -9   1  12   38.90   10.40
  -9   1  12   29.20    9.30
  -9   1  12   33.90    8.30
  -8  -1  12   28.60    7.30
  -8  -1  12   30.80    7.60
  -8  -1  12   35.20    8.10
  -8  -1  12   20.60    8.40
  -8   1  12   50.19    9.20
  -8   1  12   21.60    7.90
  -8   1  12   35.10    7.60
  -7  -1  12    8.30    5.30
  -7  -1  12    6.00    7.00
  -7  -1  12   26.40    6.60
  -7  -1  12   13.20    6.90
  -7  -1  12   25.70    6.30
  -7   1  12   24.70    5.30
  -7   1  12   14.60    7.10
  -7   1  12   11.70    5.60
  -7   1  12    9.70    7.10
  -7   1  12   15.90    7.40
  -6  -1  12   20.00    6.70
  -6  -1  12   18.90    5.60
  -6  -1  12   18.40    6.00
  -6  -1  12   10.30    6.40
  -6  -1  12   15.30    6.00
  -6   1  12   15.20    6.90
  -6   1  12   13.80    6.30
  -6   1  12   28.70    6.60
  -6   1  12   16.30    5.40
  -6   1  12   13.70    5.50
  -5  -1  12    6.70    5.50
  -5  -1  12    8.90    5.50
  -5  -1  12    4.60    5.20
  -5  -1  12    3.00    6.00
  -5  -1  12    1.00    5.50
  -5   1  12    2.90    5.10
  -5   1  12   -0.80    5.40
  -5   1  12    3.60    5.10
  -5   1  12    3.60    6.10
  -5   1  12    3.10    5.70
  -4  -1  12   14.00    5.50
  -4  -1  12   19.70    6.00
  -4  -1  12   13.40    5.00
  -4  -1  12   13.90    5.70
  -4  -1  12   16.50    5.80
  -4   1  12   13.20    5.00
  -4   1  12   23.80    6.20
  -4   1  12    8.50    8.40
  -4   1  12    9.60    5.00
  -3  -1  12  254.07    9.90
  -3  -1  12  228.38   14.00
  -3  -1  12  279.57   12.30
  -3  -1  12  261.67   12.30
  -3  -1  12  242.88   10.20
  -3   1  12  236.08   11.80
  -3   1  12  258.77   11.70
  -3   1  12  264.07   10.80
  -3   1  12  249.88   12.70
  -3   1  12  252.27    9.30
  -2  -1  12   25.30    4.60
  -2  -1  12   23.60    6.30
  -2  -1  12   18.10    4.60
  -2  -1  12   23.30    6.50
  -2   1  12   22.50    7.00
  -2   1  12   32.10    5.90
  -2   1  12   22.10    6.10
  -1  -1  12   66.89    5.30
  -1  -1  12   66.09    8.10
  -1  -1  12   62.89    7.80
  -1   1  12   68.79    8.70
  -1   1  12   68.69    7.00
  -1   1  12   55.99    7.20
  -1   1  12   52.29    3.80
  -1   1  12   57.79    4.80
   0  -1  12   15.90    7.30
   0  -1  12   10.00    4.60
   0  -1  12   13.90    7.00
   0  -1  12   12.30    4.00
   0   1  12   17.00    6.80
   0   1  12    6.80    3.20
   0   1  12   13.00    4.50
   0   1  12    0.90    7.20
   0   1  12    8.00    3.80
   0   1  12    7.50    6.60
   0   1  12    9.90    6.30
   1  -1  12    0.00    7.70
   1  -1  12  -10.30    7.30
   1  -1  12    0.30    4.90
   1   1  12   -3.60    5.40
   1   1  12    4.60    4.60
   1   1  12   -3.20    7.50
   1   1  12   -5.30    4.20
   2  -1  12  114.99   10.80
   2  -1  12  124.39   11.40
   2   1  12  112.49   10.70
   2   1  12   91.19    9.30
   2   1  12  104.29   10.50
   3  -1  12    6.40    9.80
   3  -1  12   -3.10    9.80
   3   1  12   11.40   10.00
   3   1  12   25.10    9.40
  -9  -2  12    6.90    8.50
  -9  -2  12   -8.00    9.70
  -9  -2  12    6.90    9.60
  -9   2  12   -1.30    8.50
  -9   2  12    6.00    9.60
  -9   2  12  -11.10    9.30
  -8  -2  12   37.80    9.30
  -8  -2  12   42.80    8.10
  -8  -2  12   19.30    8.90
  -8   2  12   35.50    9.10
  -8   2  12   28.90    8.60
  -8   2  12   30.40    8.80
  -7  -2  12   51.89    6.50
  -7  -2  12   63.99    7.90
  -7  -2  12   60.89    8.60
  -7  -2  12   53.49    8.40
  -7  -2  12   59.79    8.60
  -7   2  12   44.10    8.30
  -7   2  12   59.09    8.40
  -7   2  12   57.59    8.80
  -6  -2  12   28.90    6.20
  -6  -2  12   26.00    5.90
  -6  -2  12   20.10    7.20
  -6  -2  12   17.90    5.60
  -6  -2  12   18.80    7.00
  -6   2  12   10.80    6.00
  -6   2  12   25.80    7.60
  -6   2  12    6.80    6.80
  -6   2  12   21.60    6.90
  -5  -2  12   17.20    9.90
  -5  -2  12   23.80    5.70
  -5  -2  12   23.30    5.30
  -5  -2  12   24.10    7.10
  -5  -2  12   22.90    6.40
  -5   2  12   21.70    5.90
  -5   2  12   14.80    6.00
  -5   2  12   25.80    6.80
  -5   2  12   26.50    4.40
  -5   2  12   22.40    7.30
  -4  -2  12   18.40    6.00
  -4  -2  12    5.90    5.90
  -4  -2  12    7.20    4.60
  -4  -2  12    1.50    6.40
  -4  -2  12    6.10    5.80
  -4   2  12   -2.10   11.60
  -4   2  12   11.40    6.60
  -4   2  12    7.30    6.10
  -4   2  12    9.00    4.40
  -4   2  12    3.30    5.20
  -3  -2  12    5.20    6.40
  -3  -2  12   18.80    6.20
  -3  -2  12   14.10    4.30
  -3  -2  12    8.30    5.30
  -3  -2  12   13.70    5.90
  -3   2  12   16.40    4.20
  -3   2  12   12.00    6.80
  -3   2  12    8.20    6.00
  -3   2  12    9.50    4.70
  -2  -2  12  101.69    9.00
  -2  -2  12  109.89   11.10
  -2  -2  12  111.99    6.40
  -2  -2  12  101.69    8.90
  -2  -2  12  104.29   10.40
  -2   2  12   95.09    8.80
  -2   2  12   97.49    8.90
  -2   2  12  114.59   10.90
  -1  -2  12   47.40    7.60
  -1  -2  12   46.20    7.70
  -1  -2  12   34.80    4.70
  -1   2  12   34.90    4.00
  -1   2  12   32.60    6.10
  -1   2  12   41.40    8.00
  -1   2  12   41.60    4.40
  -1   2  12   21.10    6.90
   0  -2  12  115.29   10.20
   0  -2  12  131.09   12.60
   0  -2  12  117.39    7.50
   0   2  12  118.99    8.60
   0   2  12  125.69   12.50
   0   2  12  109.09    7.80
   0   2  12   74.19   10.20
   0   2  12  111.09   10.60
   0   2  12  115.59   11.10
   1  -2  12   76.29    9.80
   1  -2  12   77.19    9.70
   1  -2  12   74.99    9.70
   1   2  12   64.39    8.60
   1   2  12   81.09    6.60
   1   2  12   82.29   10.20
   1   2  12   70.99    9.30
   1   2  12   73.49    6.10
   2  -2  12   -2.30    9.00
   2  -2  12   -0.20    8.50
   2   2  12    0.60    6.00
   2   2  12    3.30    8.10
   2   2  12    0.90    8.40
   2   2  12    2.60    5.90
   3  -2  12   12.30   11.10
   3   2  12   24.30   10.30
   3   2  12   16.10    7.10
   3   2  12   13.90   13.40
  -8  -3  12   21.00    9.50
  -8  -3  12   32.00    7.70
  -8  -3  12   14.90    9.90
  -8   3  12   47.20   10.00
  -8   3  12   26.60    9.50
  -7  -3  12   26.90    8.60
  -7  -3  12   23.20    8.80
  -7  -3  12   21.20    6.50
  -7  -3  12   27.30    6.90
  -7   3  12   17.10    8.60
  -7   3  12   25.50    8.70
  -6  -3  12   59.09    6.50
  -6  -3  12   52.99    9.10
  -6  -3  12   54.39    8.60
  -6  -3  12   53.79    8.20
  -6   3  12   56.29    7.00
  -6   3  12   35.70    8.50
  -6   3  12   42.90   13.00
  -6   3  12   47.60    8.60
  -5  -3  12   59.19    8.70
  -5  -3  12   60.59    5.80
  -5  -3  12   61.79    8.00
  -5  -3  12   45.80    7.10
  -5  -3  12   56.59    6.10
  -5   3  12   49.50    7.10
  -5   3  12   47.90    7.10
  -5   3  12   56.59    8.80
  -5   3  12   45.20    8.40
  -4  -3  12  107.89    8.10
  -4  -3  12  114.19    8.80
  -4  -3  12  117.79   11.70
  -4  -3  12  122.29   10.20
  -4  -3  12  115.79    9.60
  -4   3  12  106.59    9.20
  -4   3  12  114.59    9.60
  -4   3  12  109.29    8.80
  -4   3  12  132.19   12.30
  -3  -3  12  194.98   12.40
  -3  -3  12  220.58   13.80
  -3  -3  12  210.58   11.20
  -3  -3  12  177.08   11.70
  -3   3  12  196.58    8.50
  -3   3  12  190.58    6.30
  -3   3  12  185.28   13.50
  -3   3  12  217.58   12.50
  -2  -3  12   61.99    8.40
  -2  -3  12   56.89    8.30
  -2  -3  12   80.59    7.30
  -2   3  12   70.09    6.10
  -2   3  12   77.29    8.30
  -2   3  12   72.89    9.40
  -2   3  12   68.99    4.90
  -1  -3  12  148.19   13.30
  -1  -3  12  136.39    6.50
  -1  -3  12  169.38   14.80
  -1  -3  12  153.48    9.70
  -1   3  12  149.09   13.00
  -1   3  12  143.49    8.70
  -1   3  12  161.98   14.10
  -1   3  12  129.29    7.70
  -1   3  12  132.59    6.70
   0  -3  12   31.40    5.00
   0  -3  12   16.40    8.50
   0  -3  12   24.20    8.50
   0   3  12   39.50    8.90
   0   3  12   41.50    9.50
   0   3  12   30.60    5.00
   0   3  12   28.70    5.50
   0   3  12   51.59   10.80
   1  -3  12   14.60    8.60
   1  -3  12   32.40   10.10
   1   3  12   13.60    5.50
   1   3  12   24.00    8.40
   1   3  12   15.20    9.20
   1   3  12   19.20    6.20
   2  -3  12   29.30   10.90
   2  -3  12   22.90   10.10
   2   3  12   36.40   10.90
   2   3  12   43.10   10.00
   2   3  12   46.50    7.50
   2   3  12   49.70    7.30
  -8  -4  12   13.80   11.30
  -8  -4  12   37.40   11.10
  -8   4  12   12.80   10.40
  -8   4  12   35.00   10.90
  -8   4  12   28.50    4.80
  -7  -4  12   52.99   10.20
  -7  -4  12   75.29   11.50
  -7  -4  12   68.49    8.10
  -7   4  12   58.39   10.80
  -7   4  12   68.49   10.70
  -7   4  12   66.19    6.40
  -7   4  12   69.29    5.70
  -6  -4  12   32.30    7.70
  -6  -4  12   40.70    8.80
  -6  -4  12   35.40    9.70
  -6   4  12   33.20    9.50
  -6   4  12   31.20    9.50
  -6   4  12   36.60    7.50
  -6   4  12   38.50    3.80
  -5  -4  12    3.40    7.70
  -5  -4  12    9.20    6.90
  -5  -4  12    9.40    8.30
  -5   4  12    0.90    3.50
  -5   4  12    7.80    4.00
  -5   4  12    4.70    8.10
  -5   4  12    9.90    8.70
  -5   4  12    2.20   12.10
  -4  -4  12   98.09    9.10
  -4  -4  12  101.89    8.90
  -4  -4  12  103.59   10.70
  -4  -4  12   85.39    8.70
  -4   4  12   95.39    6.40
  -4   4  12   91.69   10.10
  -4   4  12   83.89    7.30
  -4   4  12   86.29    8.90
  -4   4  12   99.09    7.50
  -3  -4  12   33.00    7.70
  -3  -4  12   25.40    7.60
  -3  -4  12   34.50    6.70
  -3  -4  12   20.00    8.40
  -3   4  12   32.10    9.10
  -3   4  12   26.40    4.60
  -3   4  12   32.90    5.10
  -3   4  12   35.70    3.50
  -3   4  12   29.80    7.80
  -2  -4  12   13.10    8.20
  -2  -4  12   33.90    8.00
  -2  -4  12   34.40    7.30
  -2   4  12   35.40    9.00
  -2   4  12   37.60    8.70
  -2   4  12   23.80    5.50
  -2   4  12   26.70    5.00
  -1  -4  12   47.70    4.70
  -1  -4  12   53.39    7.30
  -1  -4  12   48.20    9.10
  -1  -4  12   48.40    9.80
  -1   4  12   37.20    5.70
  -1   4  12   37.50    5.20
  -1   4  12   35.50    8.60
  -1   4  12   55.09   10.10
   0  -4  12  105.39   11.20
   0  -4  12  116.49   12.00
   0   4  12  103.79   10.30
   0   4  12   88.89    9.30
   0   4  12  108.79   11.60
   0   4  12   85.99   10.60
   1  -4  12   43.40   10.60
   1  -4  12   53.79   11.50
   1   4  12   56.89   11.50
   1   4  12   37.40   10.70
   1   4  12   44.20    7.80
   1   4  12   47.60    7.00
  -6  -5  12    1.00    9.40
  -6  -5  12  -12.90   10.40
  -6   5  12   -6.50   10.20
  -6   5  12   -4.90    5.40
  -6   5  12  -11.60    9.50
  -5  -5  12   28.90   10.60
  -5  -5  12    6.30    8.50
  -5   5  12   -1.40    8.10
  -5   5  12   11.60    5.10
  -5   5  12   32.60   10.40
  -5   5  12    4.00    9.20
  -5   5  12   10.90    5.30
  -4  -5  12   50.59   10.70
  -4  -5  12   59.59    9.50
  -4   5  12   50.29    5.20
  -4   5  12   61.59    6.20
  -4   5  12   64.99    9.60
  -4   5  12   84.69   11.10
  -3  -5  12   21.30    8.80
  -3  -5  12    4.10    9.70
  -3  -5  12   21.20    8.60
  -3   5  12    8.40    5.00
  -3   5  12    2.40    5.50
  -3   5  12   13.60    8.70
  -3   5  12   -3.10    8.70
  -2  -5  12   -3.30    8.00
  -2  -5  12   -3.00    8.40
  -2  -5  12   -6.50    9.90
  -2   5  12    7.90    9.90
  -2   5  12   -4.50    5.20
  -2   5  12    8.80    5.70
  -2   5  12    0.90    8.80
  -1  -5  12    4.10    9.80
  -1  -5  12    1.30    7.80
  -1  -5  12    5.80    8.70
  -1   5  12    6.00    9.50
  -1   5  12   -2.80    9.70
  -1   5  12   -2.30    5.60
  -1   5  12    2.40    6.40
   0  -5  12    5.60   11.20
   0  -5  12    6.90    9.70
   0   5  12    9.40    6.90
   0   5  12   12.90    6.50
   0   5  12    4.60   11.30
   0   5  12    6.80    9.90
  -3  -6  12   22.60   10.30
  -3  -6  12   19.80   12.00
  -3   6  12    7.40    7.10
  -3   6  12    1.40   10.00
  -3   6  12   21.10    6.70
  -7   0  13   24.50    9.10
  -7   0  13   29.60    8.60
  -7   0  13   33.50    8.20
  -6   0  13  189.58   13.70
  -6   0  13  154.08   13.00
  -6   0  13  165.38   11.80
  -6   0  13  177.48   12.20
  -6   0  13  143.49   13.30
  -5   0  13   23.20    7.00
  -5   0  13   18.70    7.80
  -5   0  13   28.00    7.10
  -5   0  13   21.40    6.70
  -5   0  13   27.10    7.10
  -4   0  13   49.20    8.30
  -4   0  13   49.50    7.90
  -4   0  13   55.79    7.70
  -4   0  13   78.39    8.90
  -4   0  13   58.09    7.60
  -3   0  13   -5.50    6.90
  -3   0  13    2.60    7.40
  -3   0  13    6.90    7.20
  -3   0  13    0.90    5.90
  -2   0  13    7.60    5.90
  -2   0  13    2.50    7.20
  -2   0  13    3.90    8.00
  -1   0  13  144.29   11.00
  -1   0  13  146.19   14.10
  -1   0  13  154.78   14.60
   0   0  13   34.40    9.30
   0   0  13   32.00    4.30
   0   0  13   48.40    9.30
   1   0  13   -1.80    9.20
   1   0  13  -10.90    9.10
   1   0  13    5.90    6.70
  -7  -1  13   24.70    7.80
  -7  -1  13   42.70    8.50
  -7  -1  13   16.40    8.90
  -7   1  13   29.70    9.30
  -7   1  13   29.60    8.90
  -7   1  13   26.50    9.10
  -6  -1  13   47.50   13.00
  -6  -1  13   38.50    7.40
  -6  -1  13   33.20    8.40
  -6  -1  13   22.40    8.30
  -6  -1  13   34.90    8.60
  -6   1  13   25.50    8.60
  -6   1  13   35.90    8.00
  -6   1  13   18.10    7.70
  -6   1  13   28.80    7.20
  -5  -1  13    7.00    7.20
  -5  -1  13   11.90    7.10
  -5  -1  13   24.50    6.60
  -5  -1  13    8.30    7.30
  -5  -1  13   20.00    7.70
  -5   1  13   19.30    7.20
  -5   1  13    6.50    6.50
  -5   1  13    5.00    8.00
  -5   1  13   15.30    7.30
  -4  -1  13  121.99   11.80
  -4  -1  13  100.49   10.10
  -4  -1  13  125.99   10.70
  -4  -1  13  117.09    9.40
  -4  -1  13  108.69    9.40
  -4   1  13   93.09    8.80
  -4   1  13  135.19   12.10
  -4   1  13  103.29    9.10
  -4   1  13   97.49    9.90
  -3  -1  13   90.49    9.20
  -3  -1  13   93.89    9.40
  -3  -1  13   89.69    7.50
  -3  -1  13   86.49    9.20
  -3   1  13   95.99    9.10
  -3   1  13   75.99    7.70
  -3   1  13   99.09    8.50
  -3   1  13   89.59   10.00
  -2  -1  13   59.79    8.90
  -2  -1  13   60.89    9.10
  -2  -1  13   58.99    8.80
  -2   1  13   65.19    9.70
  -2   1  13   67.89    7.90
  -2   1  13   53.39    9.20
  -2   1  13   55.59    8.50
  -1  -1  13    1.50    7.80
  -1  -1  13   -0.20    8.20
  -1  -1  13   16.10    8.40
  -1   1  13    7.00    7.50
  -1   1  13   12.10    8.70
  -1   1  13    9.20    8.40
   0  -1  13   23.90    9.30
   0  -1  13   11.00    8.90
   0   1  13    4.10    7.90
   0   1  13   24.50    9.40
   0   1  13    7.70    4.30
   0   1  13    7.40    9.80
   1  -1  13  106.69   11.90
   1  -1  13  113.59   12.30
   1   1  13  109.39   11.50
   1   1  13   80.89   11.00
   1   1  13  103.89    8.50
   1   1  13   96.49    7.20
  -7  -2  13   54.79    9.40
  -7  -2  13   58.99   10.10
  -7  -2  13   51.09   10.50
  -7   2  13   56.49    9.90
  -7   2  13   50.09    9.70
  -7   2  13   52.59   10.40
  -6  -2  13   75.49    8.30
  -6  -2  13  105.49   13.20
  -6  -2  13   78.19    9.90
  -6  -2  13   82.09   10.20
  -6   2  13   83.29    9.90
  -6   2  13   70.99   10.40
  -6   2  13   72.19   10.40
  -6   2  13   86.19   11.80
  -5  -2  13   40.30    8.10
  -5  -2  13   43.60    7.70
  -5  -2  13   57.09    9.10
  -5  -2  13   48.30    8.00
  -5   2  13   46.50    8.10
  -5   2  13   37.70    9.20
  -5   2  13   56.09    8.80
  -4  -2  13   17.80    8.20
  -4  -2  13   16.90    6.90
  -4  -2  13   20.70    7.60
  -4  -2  13   16.90    7.40
  -4   2  13    7.20    7.50
  -4   2  13   18.80    8.50
  -4   2  13   29.50    8.20
  -3  -2  13   31.50    7.90
  -3  -2  13   46.40    9.00
  -3  -2  13   32.70    8.20
  -3   2  13   24.50    8.80
  -3   2  13   52.29    8.60
  -3   2  13   30.40    8.20
  -2  -2  13   39.30    8.70
  -2  -2  13   39.70    8.50
  -2  -2  13   29.60    8.90
  -2   2  13   32.00    9.40
  -2   2  13   31.60    8.60
  -1  -2  13   49.30    9.80
  -1  -2  13   54.19   10.20
  -1   2  13   44.30    9.60
  -1   2  13   47.10    4.40
  -1   2  13   59.49   10.70
   0  -2  13   10.60    8.90
   0  -2  13   18.00   10.00
   0   2  13   11.90    5.20
   0   2  13   15.40   10.00
   0   2  13   21.30   10.80
  -6  -3  13   14.90    9.30
  -6  -3  13    0.70    9.60
  -6  -3  13   16.30    7.80
  -6   3  13    6.20   10.00
  -6   3  13   -0.30    9.40
  -5  -3  13   62.89   10.80
  -5  -3  13   88.19    9.90
  -5  -3  13   61.89    8.90
  -5   3  13   71.19   10.70
  -5   3  13   75.79    9.10
  -5   3  13   63.79   10.40
  -4  -3  13   89.79    9.50
  -4  -3  13   92.19   10.70
  -4  -3  13   83.59   10.00
  -4  -3  13   66.89   10.80
  -4   3  13   78.49   10.30
  -4   3  13   81.39    9.60
  -4   3  13   70.69   10.40
  -3  -3  13   74.89   10.40
  -3  -3  13   49.99    8.20
  -3  -3  13   57.79    9.30
  -3   3  13   57.79    9.20
  -3   3  13   71.59   11.20
  -2  -3  13   32.10    8.60
  -2  -3  13   24.80   10.00
  -2  -3  13   24.20    8.70
  -2   3  13   39.50   10.30
  -2   3  13   25.70    9.10
  -1  -3  13    3.50    9.80
  -1  -3  13   -3.70    9.00
  -1   3  13   20.70    9.90
  -1   3  13   17.80    5.10
  -1   3  13   -0.20    9.80
  -4  -4  13   75.49   10.30
  -4  -4  13   53.29   11.70
  -4  -4  13   75.29   10.00
  -4   4  13   67.09   10.30
  -4   4  13   78.19   11.60
  -4   4  13   52.49   11.00
  -3  -4  13   47.00   10.10
  -3  -4  13   48.50   11.30
  -3   4  13   54.79   11.30
  -3   4  13   35.60    9.90
  -3   4  13   40.90    4.80
  -2  -4  13  -19.30   10.20
  -2  -4  13   -0.30    9.60
  -2  -4  13   10.50   11.20
  -2   4  13   13.70   10.70
  -2   4  13   13.70    9.70
   0   0   0    0.00    0.00

_computing_structure_solution     'SHELXT 2014/5 (Sheldrick, 2014)'
;
_shelx_hkl_checksum              81721
loop_
_space_group_symop_operation_xyz
'x, y, z'
'-x, y+1/2, -z'
loop_
_atom_site_type_symbol
_atom_site_label
_atom_site_fract_x
_atom_site_fract_y
_atom_site_fract_z
_atom_site_U_iso_or_equiv
_atom_site_adp_type
_atom_site_calc_flag
_atom_site_refinement_flags_adp
_atom_site_refinement_flags_posn
_atom_site_occupancy
I I1 0.18920(3) 0.40559(4) 0.24097(3) 0.03653(7) Uani d . . 1
I I2 0.58328(3) 0.49223(3) 0.58466(3) 0.03222(6) Uani d . . 1
Se Se1 0.19194(4) 0.71542(5) 0.57055(4) 0.02968(8) Uani d . . 1
Cu Cu1 0.30546(6) 0.45697(7) 0.50928(6) 0.04108(14) Uani d . . 1
Cu Cu2 0.54102(6) 0.80880(7) 0.63873(6) 0.04064(13) Uani d . . 1
N N1 0.2023(4) 0.3517(4) 0.6450(3) 0.0318(7) Uani d . . 1
N N2 0.4258(3) 0.8025(4) 0.7896(3) 0.0304(7) Uani d . . 1
C C1 0.0900(4) 0.4282(5) 0.6752(4) 0.0292(8) Uani d . . 1
C C2 0.0263(5) 0.3740(6) 0.7794(5) 0.0411(10) Uani d . . 1
H H2 -0.05078 0.42837 0.799005 0.049 Uiso calc U R 1
C C3 0.0798(6) 0.2372(6) 0.8537(5) 0.0491(12) Uani d . . 1
H H3 0.040094 0.199548 0.925231 0.059 Uiso calc U R 1
C C4 0.1912(6) 0.1580(6) 0.8212(5) 0.0488(12) Uani d . . 1
H H4 0.2277 0.065369 0.869423 0.059 Uiso calc U R 1
C C5 0.2488(5) 0.2179(5) 0.7153(5) 0.0394(9) Uani d . . 1
H H5 0.323417 0.162256 0.692061 0.047 Uiso calc U R 1
C C6 0.2897(4) 0.7518(4) 0.7675(4) 0.0256(7) Uani d . . 1
C C7 0.2241(5) 0.7315(5) 0.8776(4) 0.0360(9) Uani d . . 1
H H7 0.130089 0.692834 0.858818 0.043 Uiso calc U R 1
C C8 0.2985(5) 0.7688(6) 1.0143(5) 0.0426(10) Uani d . . 1
H H8 0.256914 0.75438 1.089955 0.051 Uiso calc U R 1
C C9 0.4361(5) 0.8281(7) 1.0369(5) 0.0466(11) Uani d . . 1
H H9 0.487977 0.857995 1.128124 0.056 Uiso calc U R 1
C C10 0.4968(5) 0.8428(6) 0.9234(4) 0.0429(11) Uani d . . 1
H H10 0.590371 0.882165 0.940153 0.051 Uiso calc U R 1
C C11 0.0357(4) 0.5754(5) 0.5919(5) 0.0338(9) Uani d . . 1
H H11A -0.025937 0.633044 0.639634 0.041 Uiso calc U R 1
H H11B -0.022577 0.545365 0.497972 0.041 Uiso calc U R 1
loop_
_atom_site_aniso_label
_atom_site_aniso_U_11
_atom_site_aniso_U_22
_atom_site_aniso_U_33
_atom_site_aniso_U_12
_atom_site_aniso_U_13
_atom_site_aniso_U_23
I1 0.02862(12) 0.04797(16) 0.03121(12) 0.00472(12) 0.00458(9) 0.00341(12)
I2 0.02935(12) 0.03266(12) 0.03419(12) 0.00099(11) 0.00743(9) -0.00615(11)
Se1 0.02943(19) 0.02903(19) 0.02956(18) -0.00060(15) 0.00585(15) 0.00270(15)
Cu1 0.0355(3) 0.0545(4) 0.0372(3) 0.0014(2) 0.0165(2) -0.0034(2)
Cu2 0.0354(3) 0.0565(3) 0.0328(3) -0.0057(3) 0.0138(2) 0.0016(2)
N1 0.0315(17) 0.0343(18) 0.0294(16) -0.0029(13) 0.0077(13) -0.0050(13)
N2 0.0306(17) 0.0368(18) 0.0246(15) 0.0017(14) 0.0087(13) 0.0009(13)
C1 0.0233(16) 0.0307(19) 0.0331(18) -0.0062(15) 0.0065(14) -0.0052(15)
C2 0.036(2) 0.047(3) 0.045(2) -0.0137(19) 0.0190(19) -0.006(2)
C3 0.062(3) 0.047(3) 0.041(2) -0.022(2) 0.019(2) 0.002(2)
C4 0.068(3) 0.032(2) 0.042(3) -0.006(2) 0.007(2) 0.0044(19)
C5 0.044(2) 0.029(2) 0.042(2) 0.0047(19) 0.0063(19) -0.0021(18)
C6 0.0274(18) 0.0233(18) 0.0280(17) 0.0033(14) 0.0104(14) 0.0028(14)
C7 0.039(2) 0.035(2) 0.038(2) -0.0046(18) 0.0192(18) -0.0016(18)
C8 0.052(3) 0.047(3) 0.036(2) 0.006(2) 0.023(2) 0.0075(19)
C9 0.046(3) 0.068(3) 0.0245(19) 0.008(2) 0.0079(18) -0.003(2)
C10 0.029(2) 0.068(3) 0.030(2) 0.002(2) 0.0057(16) -0.006(2)
C11 0.0213(17) 0.031(2) 0.047(2) -0.0001(16) 0.0068(16) 0.0006(18)
loop_
_atom_type_symbol
_atom_type_description
_atom_type_scat_dispersion_real
_atom_type_scat_dispersion_imag
_atom_type_scat_source
C C 0.0033 0.0016 'International Tables Vol C Tables 4.2.6.8 and 6.1.1.4'
H H 0.0000 0.0000 'International Tables Vol C Tables 4.2.6.8 and 6.1.1.4'
Cu Cu 0.3201 1.2651 'International Tables Vol C Tables 4.2.6.8 and 6.1.1.4'
I I -0.4742 1.8119 'International Tables Vol C Tables 4.2.6.8 and 6.1.1.4'
N N 0.0061 0.0033 'International Tables Vol C Tables 4.2.6.8 and 6.1.1.4'
Se Se -0.0929 2.2259 'International Tables Vol C Tables 4.2.6.8 and 6.1.1.4'
loop_
_geom_angle_atom_site_label_1
_geom_angle_atom_site_label_2
_geom_angle_atom_site_label_3
_geom_angle_site_symmetry_1
_geom_angle_site_symmetry_3
_geom_angle
Cu1 I1 Cu2 . 2_646 59.818(17)
Cu1 I2 Cu2 . 2_646 59.767(17)
Cu1 I2 Cu2 . . 88.482(18)
Cu2 I2 Cu2 2_646 . 130.804(15)
C6 Se1 C11 . . 100.33(17)
C6 Se1 Cu1 . . 103.82(11)
C11 Se1 Cu1 . . 84.04(13)
N1 Cu1 Se1 . . 85.03(10)
N1 Cu1 I1 . . 114.96(10)
Se1 Cu1 I1 . . 106.07(2)
N1 Cu1 I2 . . 120.16(10)
Se1 Cu1 I2 . . 107.68(2)
I1 Cu1 I2 . . 116.45(2)
N1 Cu1 Cu2 . 2_646 125.51(10)
Se1 Cu1 Cu2 . 2_646 149.37(3)
I1 Cu1 Cu2 . 2_646 61.697(18)
I2 Cu1 Cu2 . 2_646 61.767(18)
N2 Cu2 Cu1 . 2_656 152.35(11)
N2 Cu2 I1 . 2_656 109.62(10)
Cu1 Cu2 I1 2_656 2_656 58.484(18)
N2 Cu2 I2 . 2_656 112.59(10)
Cu1 Cu2 I2 2_656 2_656 58.467(18)
I1 Cu2 I2 2_656 2_656 110.73(2)
N2 Cu2 I2 . . 104.06(10)
Cu1 Cu2 I2 2_656 . 102.93(2)
I1 Cu2 I2 2_656 . 101.76(2)
I2 Cu2 I2 2_656 . 117.31(2)
C5 N1 C1 . . 118.2(4)
C5 N1 Cu1 . . 122.9(3)
C1 N1 Cu1 . . 118.6(3)
C6 N2 C10 . . 117.6(3)
C6 N2 Cu2 . . 125.4(3)
C10 N2 Cu2 . . 116.9(3)
N1 C1 C2 . . 121.8(4)
N1 C1 C11 . . 117.6(3)
C2 C1 C11 . . 120.6(4)
C3 C2 C1 . . 118.7(4)
C3 C2 H2 . . 120.7
C1 C2 H2 . . 120.7
C4 C3 C2 . . 119.5(4)
C4 C3 H3 . . 120.2
C2 C3 H3 . . 120.2
C3 C4 C5 . . 118.8(5)
C3 C4 H4 . . 120.6
C5 C4 H4 . . 120.6
N1 C5 C4 . . 122.9(4)
N1 C5 H5 . . 118.5
C4 C5 H5 . . 118.5
N2 C6 C7 . . 122.5(4)
N2 C6 Se1 . . 114.4(3)
C7 C6 Se1 . . 123.1(3)
C8 C7 C6 . . 119.5(4)
C8 C7 H7 . . 120.3
C6 C7 H7 . . 120.3
C7 C8 C9 . . 118.3(4)
C7 C8 H8 . . 120.8
C9 C8 H8 . . 120.8
C8 C9 C10 . . 119.5(4)
C8 C9 H9 . . 120.2
C10 C9 H9 . . 120.2
N2 C10 C9 . . 122.5(4)
N2 C10 H10 . . 118.8
C9 C10 H10 . . 118.8
C1 C11 Se1 . . 112.8(3)
C1 C11 H11A . . 109.0
Se1 C11 H11A . . 109.0
C1 C11 H11B . . 109.0
Se1 C11 H11B . . 109.0
H11A C11 H11B . . 107.8
loop_
_geom_bond_atom_site_label_1
_geom_bond_atom_site_label_2
_geom_bond_site_symmetry_2
_geom_bond_distance
I1 Cu1 . 2.5870(6)
I1 Cu2 2_646 2.6718(6)
I2 Cu1 . 2.5879(6)
I2 Cu2 2_646 2.6750(6)
I2 Cu2 . 2.7663(7)
Se1 C6 . 1.921(4)
Se1 C11 . 1.959(4)
Se1 Cu1 . 2.5705(7)
Cu1 N1 . 2.043(3)
Cu1 Cu2 2_646 2.6232(7)
Cu2 N2 . 2.050(3)
N1 C5 . 1.332(6)
N1 C1 . 1.350(5)
N2 C6 . 1.336(5)
N2 C10 . 1.343(5)
C1 C2 . 1.387(5)
C1 C11 . 1.497(6)
C2 C3 . 1.384(7)
C2 H2 . 0.93
C3 C4 . 1.362(8)
C3 H3 . 0.93
C4 C5 . 1.382(7)
C4 H4 . 0.93
C5 H5 . 0.93
C6 C7 . 1.384(5)
C7 C8 . 1.369(6)
C7 H7 . 0.93
C8 C9 . 1.373(7)
C8 H8 . 0.93
C9 C10 . 1.378(6)
C9 H9 . 0.93
C10 H10 . 0.93
C11 H11A . 0.97
C11 H11B . 0.97
loop_
_geom_hbond_atom_site_label_D
_geom_hbond_atom_site_label_H
_geom_hbond_atom_site_label_A
_geom_hbond_site_symmetry_A
_geom_hbond_distance_DH
_geom_hbond_distance_HA
_geom_hbond_distance_DA
_geom_hbond_angle_DHA
C9 H9 I2 2_657 0.93 3.24 3.972(5) 137.1
C10 H10 I1 2_656 0.93 3.09 3.792(5) 134.1
C11 H11A I1 2_556 0.97 3.16 4.101(4) 163.5
loop_
_geom_torsion_atom_site_label_1
_geom_torsion_atom_site_label_2
_geom_torsion_atom_site_label_3
_geom_torsion_atom_site_label_4
_geom_torsion
C5 N1 C1 C2 2.1(6)
Cu1 N1 C1 C2 -171.9(3)
C5 N1 C1 C11 -177.9(4)
Cu1 N1 C1 C11 8.1(4)
N1 C1 C2 C3 -0.2(6)
C11 C1 C2 C3 179.8(4)
C1 C2 C3 C4 -1.2(7)
C2 C3 C4 C5 0.6(7)
C1 N1 C5 C4 -2.7(6)
Cu1 N1 C5 C4 171.0(4)
C3 C4 C5 N1 1.4(7)
C10 N2 C6 C7 -3.7(6)
Cu2 N2 C6 C7 171.6(3)
C10 N2 C6 Se1 174.7(3)
Cu2 N2 C6 Se1 -10.1(4)
N2 C6 C7 C8 2.0(6)
Se1 C6 C7 C8 -176.2(3)
C6 C7 C8 C9 1.1(7)
C7 C8 C9 C10 -2.3(8)
C6 N2 C10 C9 2.4(7)
Cu2 N2 C10 C9 -173.3(4)
C8 C9 C10 N2 0.6(8)
N1 C1 C11 Se1 -43.9(4)
C2 C1 C11 Se1 136.1(3)
