#------------------------------------------------------------------------------
#$Date: 2019-11-17 13:37:03 +0200 (Sun, 17 Nov 2019) $
#$Revision: 230207 $
#$URL: file:///home/coder/svn-repositories/cod/cif/7/05/78/7057828.cif $
#------------------------------------------------------------------------------
#
# This file is available in the Crystallography Open Database (COD),
# http://www.crystallography.net/
#
# All data on this site have been placed in the public domain by the
# contributors.
#
data_7057828
loop_
_publ_author_name
'Luberda-Durna\'s, K.'
'Konieczny, P.'
'Pe\/lka, R.'
'Oszajca, M.'
'Gonzalez Guillen, A.'
'Korecki, J.'
'Ciesielska, Z.'
'\/Lasocha, W.'
_publ_section_title
;
 Two-step magnetic transition in hybrid organic--inorganic materials of
 the (m-xylylenediamine)MeSO4 (Me -- Mn, Fe, Co, Ni) type
;
_journal_issue                   22
_journal_name_full               'New Journal of Chemistry'
_journal_page_first              18225
_journal_paper_doi               10.1039/C8NJ04036B
_journal_volume                  42
_journal_year                    2018
_chemical_formula_moiety         CoSO4(C8H12N2)
_chemical_formula_sum            'C8 H12 Co N2 O4 S'
_chemical_formula_weight         291.2
_chemical_name_systematic        CoSO4(MXDA)
_space_group_IT_number           26
_space_group_name_Hall           'P -2a 2a'
_space_group_name_H-M_alt        'P 21 m a'
_symmetry_cell_setting           orthorhombic
_symmetry_Int_Tables_number      26
_symmetry_space_group_name_Hall  'P -2a 2a'
_symmetry_space_group_name_H-M   'P 21 m a'
_audit_update_record
;
2018-07-19 deposited with the CCDC.
2018-10-10 downloaded from the CCDC.
;
_cell_angle_alpha                90
_cell_angle_beta                 90
_cell_angle_gamma                90
_cell_formula_units_Z            2
_cell_length_a                   9.7312(6)
_cell_length_b                   10.7850(3)
_cell_length_c                   4.8799(3)
_cell_measurement_temperature    293
_cell_volume                     512.15(5)
_diffrn_ambient_temperature      293
_diffrn_measurement_device_type  diffractometer
_diffrn_radiation_probe          x-ray
_diffrn_radiation_type           'Cu K\a'
_diffrn_radiation_wavelength     1.5418
_exptl_absorpt_coefficient_mu    15.097
_exptl_crystal_density_diffrn    1.8882
_exptl_crystal_F_000             298
_pd_char_colour                  violet
_pd_instr_location               ' ?'
_pd_meas_2theta_range_inc        0.02
_pd_meas_2theta_range_max        84.980
_pd_meas_2theta_range_min        3.020
_pd_meas_number_of_points        4099
_pd_proc_2theta_range_inc        0.02
_pd_proc_2theta_range_max        84.98
_pd_proc_2theta_range_min        10.02
_pd_proc_ls_pref_orient_corr     'March & Dollase'
_pd_proc_ls_profile_function     Pseudo-Voigt
_pd_proc_ls_prof_R_factor        0.0240
_pd_proc_ls_prof_wR_expected     0.0137
_pd_proc_ls_prof_wR_factor       0.0351
_refine_ls_goodness_of_fit_all   2.56
_refine_ls_hydrogen_treatment    constr
_refine_ls_number_constraints    35
_refine_ls_number_parameters     35
_refine_ls_number_restraints     20
_refine_ls_R_factor_all          0.0552
_refine_ls_R_factor_gt           0.0550
_refine_ls_shift/su_max          0.0396
_refine_ls_shift/su_mean         0.0100
_refine_ls_weighting_scheme      sigma
_refine_ls_wR_factor_all         0.0632
_refine_ls_wR_factor_gt          0.0632
_cod_data_source_file            c8nj04036b2.cif
_cod_data_source_block           I
_cod_depositor_comments
;
The following automatic conversions were performed:

'_diffrn_radiation_probe' value 'X-ray' changed to 'x-ray' according
to
/home/data/users/saulius/crontab/automatic-downloads/rss-feeds/RSC/lib/dictionaries/cif_core.dic
dictionary named 'cif_core.dic' version 2.4.2 from 2011-04-26.

Automatic conversion script
Id: cif_fix_values 4973 2017-02-22 13:04:09Z antanas 

 Adding full bibliography for 7057828--7057831.cif.
;
_cod_original_sg_symbol_Hall     'P 2xa;-2y;-2za'
_cod_original_formula_sum        'C8 H12 Co1 N2 O4 S1'
_cod_database_code               7057828
loop_
_space_group_symop_id
_space_group_symop_operation_xyz
1 x,y,z
2 x+1/2,-y,-z
3 x+1/2,y,-z
4 x,-y,z
loop_
_atom_site_label
_atom_site_type_symbol
_atom_site_fract_x
_atom_site_fract_y
_atom_site_fract_z
_atom_site_adp_type
_atom_site_U_iso_or_equiv
_atom_site_site_symmetry_multiplicity
_atom_site_occupancy
_atom_site_calc_flag
Co1 Co 0.1140(6) 0.5 0.1475(18) Uiso 0.027(3) 2 1 d
S1 S -0.1918(11) 0.5 0.421(3) Uiso 0.007(4) 2 1 d
O1 O -0.0403(18) 0.5 0.450(4) Uiso 0.007(4) 2 1 d
O2 O 0.2716(16) 0.5 -0.128(4) Uiso 0.007(4) 2 1 d
O3 O -0.2470(13) 0.6078(7) 0.548(3) Uiso 0.007(4) 4 1 d
C2 C -0.111(3) 1 -0.393(8) Uiso 0.039(7) 2 1 d
C4 C 0.044(2) 0.8889(7) -0.086(5) Uiso 0.039(7) 4 1 d
N1 N 0.031(2) 0.6607(11) -0.038(5) Uiso 0.039(7) 4 1 d
C1 C -0.056(3) 0.8887(7) -0.302(6) Uiso 0.039(7) 4 1 d
C5 C 0.123(2) 0.7659(12) -0.006(5) Uiso 0.039(7) 4 1 d
C6 C 0.083(3) 1 0.032(6) Uiso 0.039(7) 2 1 d
H1c2 H -0.18652 1 -0.518281 Uiso 0.0468 2 1 d
H1c1 H -0.08429 0.811926 -0.383014 Uiso 0.0468 4 1 d
H1c5 H 0.200738 0.755602 -0.123738 Uiso 0.0468 4 1 d
H2c5 H 0.15257 0.771126 0.180886 Uiso 0.0468 4 1 d
H1c6 H 0.136686 1 0.196367 Uiso 0.0468 2 1 d
H1n1 H 0.016959 0.646737 -0.210939 Uiso 0.0468 4 1 d
H2n1 H -0.048145 0.677735 0.03684 Uiso 0.0468 4 1 d
loop_
_atom_type_symbol
_atom_type_scat_dispersion_real
_atom_type_scat_dispersion_imag
_atom_type_scat_source
C 0.0181 0.0091 'International Tables Vol C tables 4.2.6.8 and 6.1.1.1'
H 0.0000 0.0000 'International Tables Vol C tables 4.2.6.8 and 6.1.1.1'
Co -2.3653 3.6143 'International Tables Vol C tables 4.2.6.8 and 6.1.1.1'
N 0.0311 0.0180 'International Tables Vol C tables 4.2.6.8 and 6.1.1.1'
O 0.0492 0.0322 'International Tables Vol C tables 4.2.6.8 and 6.1.1.1'
S 0.3331 0.5567 'International Tables Vol C tables 4.2.6.8 and 6.1.1.1'
loop_
_geom_angle_atom_site_label_1
_geom_angle_atom_site_label_2
_geom_angle_atom_site_label_3
_geom_angle_site_symmetry_1
_geom_angle_site_symmetry_3
_geom_angle
O1 Co1 O2 . . 176.7(8)
O1 Co1 O3 . 2_566 88.2(6)
O1 Co1 O3 . 3_556 88.2(6)
O1 Co1 N1 . . 91.5(7)
O1 Co1 N1 . 4_565 91.5(7)
O2 Co1 O3 . 2_566 89.0(6)
O2 Co1 O3 . 3_556 89.0(6)
O2 Co1 N1 . . 90.4(8)
O2 Co1 N1 . 4_565 90.4(8)
O3 Co1 O3 2_566 3_556 60.1(4)
O3 Co1 N1 2_566 . 155.0(7)
O3 Co1 N1 2_566 4_565 94.9(6)
O3 Co1 N1 3_556 . 94.9(6)
O3 Co1 N1 3_556 4_565 155.0(7)
N1 Co1 N1 . 4_565 110.0(9)
O1 S1 O2 . 2_465 109.5(12)
O1 S1 O3 . . 109.5(8)
O1 S1 O3 . 4_565 109.5(8)
O2 S1 O3 2_465 . 109.5(8)
O2 S1 O3 2_465 4_565 109.5(8)
O3 S1 O3 . 4_565 109.5(10)
Co1 O1 S1 . . 130.0(12)
Co1 O2 S1 . 2_565 145.2(12)
Co1 O3 S1 2_466 . 95.2(6)
C1 C2 C1 . 4_575 120(3)
C1 C2 H1c2 . . 120.09
C1 C2 H1c2 4_575 . 120.09
C1 C4 C5 . . 120.6(12)
C1 C4 C6 . . 119.5(15)
C5 C4 C6 . . 120(2)
Co1 N1 C5 . . 111.1(15)
Co1 N1 H1n1 . . 109.48
Co1 N1 H2n1 . . 109.47
C5 N1 H1n1 . . 109.49
C5 N1 H2n1 . . 109.48
H1n1 N1 H2n1 . . 107.7
C2 C1 C4 . . 119.7(17)
C2 C1 H1c1 . . 120.12
C4 C1 H1c1 . . 120.15
C4 C5 N1 . . 109.5(16)
C4 C5 H1c5 . . 109.46
C4 C5 H2c5 . . 109.46
N1 C5 H1c5 . . 109.46
N1 C5 H2c5 . . 109.46
H1c5 C5 H2c5 . . 109.51
C4 C6 C4 . 4_575 120(2)
C4 C6 H1c6 . . 119.84
C4 C6 H1c6 4_575 . 119.84
loop_
_geom_bond_atom_site_label_1
_geom_bond_atom_site_label_2
_geom_bond_site_symmetry_2
_geom_bond_distance
Co1 O1 . 2.105(19)
Co1 O2 . 2.038(19)
Co1 O3 2_566 2.321(14)
Co1 O3 3_556 2.321(14)
Co1 N1 . 2.115(18)
Co1 N1 4_565 2.115(18)
S1 O1 . 1.48(2)
S1 O2 2_465 1.47(2)
S1 O3 . 1.424(12)
S1 O3 4_565 1.424(12)
C2 C1 . 1.39(2)
C2 C1 4_575 1.39(2)
C2 H1c2 . 0.9604
C4 C1 . 1.43(4)
C4 C5 . 1.58(2)
C4 C6 . 1.382(19)
N1 C5 . 1.45(2)
N1 H1n1 . 0.8701
N1 H2n1 . 0.8704
C1 H1c1 . 0.9601
C5 H1c5 . 0.9596
C5 H2c5 . 0.9599
C6 H1c6 . 0.9598
loop_
_geom_hbond_atom_site_label_D
_geom_hbond_atom_site_label_H
_geom_hbond_atom_site_label_A
_geom_hbond_site_symmetry_A
_geom_hbond_distance_DH
_geom_hbond_distance_HA
_geom_hbond_distance_DA
_geom_hbond_angle_DHA
C5 H2c5 O3 3_556 0.96 2.41 3.08(2) 127.04
N1 H1n1 O1 1_554 0.87 2.36 3.12(3) 146.72
loop_
_pd_proc_point_id
_pd_proc_2theta_corrected
_pd_proc_intensity_net
_pd_calc_intensity_net
_pd_proc_ls_weight
1 9.9600 10101.40 10133.50 100.51
2 9.9800 10018.30 10124.70 100.09
3 10.0000 10008.00 10116.10 100.04
4 10.0200 9982.00 10107.60 99.91
5 10.0400 10119.80 10099.20 100.60
6 10.0600 10115.90 10091.00 100.58
7 10.0800 9934.20 10082.90 99.67
8 10.1000 9925.40 10074.80 99.63
9 10.1200 9843.20 10067.00 99.21
10 10.1400 9947.80 10059.20 99.74
11 10.1600 9966.20 10051.50 99.83
12 10.1800 10012.80 10044.00 100.06
13 10.2000 10052.90 10036.50 100.26
14 10.2200 10078.70 10029.20 100.39
15 10.2400 10127.10 10021.90 100.63
16 10.2600 10071.80 10014.80 100.36
17 10.2800 9948.30 10007.80 99.74
18 10.3000 9839.90 10000.90 99.20
19 10.3200 10051.30 9994.06 100.26
20 10.3400 10253.40 9987.34 101.26
21 10.3600 10077.60 9980.71 100.39
22 10.3800 9950.30 9974.19 99.75
23 10.4000 10025.50 9967.75 100.13
24 10.4200 9911.40 9961.41 99.56
25 10.4400 9860.40 9955.16 99.30
26 10.4600 9937.30 9949.00 99.69
27 10.4800 9920.30 9942.93 99.60
28 10.5000 9915.60 9936.94 99.58
29 10.5200 9971.70 9931.04 99.86
30 10.5400 9782.40 9925.23 98.91
31 10.5600 9940.00 9919.49 99.70
32 10.5800 10000.10 9913.84 100.00
33 10.6000 9888.30 9908.26 99.44
34 10.6200 9829.70 9902.77 99.14
35 10.6400 10106.30 9897.35 100.53
36 10.6600 9866.20 9892.00 99.33
37 10.6800 9776.00 9886.73 98.87
38 10.7000 9951.50 9881.54 99.76
39 10.7200 10111.80 9876.41 100.56
40 10.7400 9907.40 9871.35 99.54
41 10.7600 9968.40 9866.36 99.84
42 10.7800 9768.30 9861.44 98.83
43 10.8000 9796.90 9856.59 98.98
44 10.8200 10043.60 9851.80 100.22
45 10.8400 10027.10 9847.07 100.14
46 10.8600 10086.00 9842.41 100.43
47 10.8800 9951.90 9837.81 99.76
48 10.9000 9936.80 9833.27 99.68
49 10.9200 9852.70 9828.79 99.26
50 10.9400 9982.30 9824.36 99.91
51 10.9600 9771.70 9819.99 98.85
52 10.9800 9760.40 9815.68 98.79
53 11.0000 9905.90 9811.42 99.53
54 11.0200 9780.80 9807.21 98.90
55 11.0400 9943.50 9803.06 99.72
56 11.0600 9781.20 9798.96 98.90
57 11.0800 9761.60 9794.91 98.80
58 11.1000 9812.60 9790.90 99.06
59 11.1200 9851.20 9786.95 99.25
60 11.1400 9852.70 9783.04 99.26
61 11.1600 9885.90 9779.17 99.43
62 11.1800 9819.80 9775.35 99.09
63 11.2000 9777.60 9771.58 98.88
64 11.2200 9738.80 9767.84 98.69
65 11.2400 9800.20 9764.15 99.00
66 11.2600 9756.20 9760.50 98.77
67 11.2800 9783.60 9756.89 98.91
68 11.3000 9822.50 9753.32 99.11
69 11.3200 9856.80 9749.78 99.28
70 11.3400 9778.50 9746.29 98.89
71 11.3600 9708.80 9742.82 98.53
72 11.3800 9788.00 9739.40 98.93
73 11.4000 9831.70 9736.00 99.15
74 11.4200 9687.40 9732.64 98.42
75 11.4400 9636.20 9729.32 98.16
76 11.4600 9837.30 9726.02 99.18
77 11.4800 9659.20 9722.75 98.28
78 11.5000 9585.90 9719.52 97.91
79 11.5200 9577.30 9716.31 97.86
80 11.5400 9835.60 9713.13 99.17
81 11.5600 9847.40 9709.98 99.23
82 11.5800 9833.10 9706.85 99.16
83 11.6000 9734.30 9703.75 98.66
84 11.6200 9765.70 9700.67 98.82
85 11.6400 9804.10 9697.62 99.02
86 11.6600 9710.80 9694.59 98.54
87 11.6800 9649.70 9691.59 98.23
88 11.7000 9673.50 9688.60 98.35
89 11.7200 9730.00 9685.64 98.64
90 11.7400 9668.30 9682.69 98.33
91 11.7600 9885.90 9679.77 99.43
92 11.7800 9614.20 9676.86 98.05
93 11.8000 9521.10 9673.97 97.58
94 11.8200 9639.10 9671.10 98.18
95 11.8400 9609.70 9668.25 98.03
96 11.8600 9803.50 9665.41 99.01
97 11.8800 9661.60 9662.58 98.29
98 11.9000 9656.20 9659.77 98.27
99 11.9200 9738.30 9656.98 98.68
100 11.9400 9688.80 9654.20 98.43
101 11.9600 9767.30 9651.42 98.83
102 11.9800 9633.40 9648.67 98.15
103 12.0000 9658.20 9645.92 98.28
104 12.0200 9663.40 9643.18 98.30
105 12.0400 9669.60 9640.46 98.33
106 12.0600 9697.70 9637.74 98.48
107 12.0800 9589.00 9635.03 97.92
108 12.1000 9573.00 9632.33 97.84
109 12.1200 9642.50 9629.63 98.20
110 12.1400 9692.30 9626.95 98.45
111 12.1600 9519.40 9624.27 97.57
112 12.1800 9631.20 9621.59 98.14
113 12.2000 9616.40 9618.93 98.06
114 12.2200 9704.50 9616.26 98.51
115 12.2400 9701.40 9613.60 98.50
116 12.2600 9528.60 9610.94 97.61
117 12.2800 9533.90 9608.29 97.64
118 12.3000 9583.90 9605.64 97.90
119 12.3200 9573.30 9602.99 97.84
120 12.3400 9635.60 9600.34 98.16
121 12.3600 9619.10 9597.70 98.08
122 12.3800 9642.70 9595.05 98.20
123 12.4000 9583.00 9592.41 97.89
124 12.4200 9514.10 9589.76 97.54
125 12.4400 9501.80 9587.11 97.48
126 12.4600 9535.20 9584.46 97.65
127 12.4800 9666.40 9581.81 98.32
128 12.5000 9534.60 9579.16 97.65
129 12.5200 9534.30 9576.51 97.64
130 12.5400 9496.00 9573.85 97.45
131 12.5600 9505.20 9571.19 97.49
132 12.5800 9441.40 9568.52 97.17
133 12.6000 9612.00 9565.85 98.04
134 12.6200 9497.80 9563.17 97.46
135 12.6400 9448.00 9560.49 97.20
136 12.6600 9804.20 9557.81 99.02
137 12.6800 9482.40 9555.12 97.38
138 12.7000 9578.00 9552.42 97.87
139 12.7200 9594.60 9549.71 97.95
140 12.7400 9591.10 9547.00 97.93
141 12.7600 9530.60 9544.28 97.62
142 12.7800 9485.80 9541.55 97.40
143 12.8000 9635.30 9538.81 98.16
144 12.8200 9520.80 9536.07 97.57
145 12.8400 9445.40 9533.31 97.19
146 12.8600 9651.30 9530.55 98.24
147 12.8800 9609.60 9527.78 98.03
148 12.9000 9564.50 9524.99 97.80
149 12.9200 9580.20 9522.20 97.88
150 12.9400 9570.20 9519.39 97.83
151 12.9600 9483.70 9516.58 97.38
152 12.9800 9468.20 9513.75 97.30
153 13.0000 9326.60 9510.91 96.57
154 13.0200 9433.40 9508.06 97.13
155 13.0400 9464.00 9505.20 97.28
156 13.0600 9564.50 9502.32 97.80
157 13.0800 9250.10 9499.43 96.18
158 13.1000 9412.80 9496.53 97.02
159 13.1200 9504.20 9493.61 97.49
160 13.1400 9313.80 9490.69 96.51
161 13.1600 9466.90 9487.74 97.30
162 13.1800 9589.50 9484.79 97.93
163 13.2000 9512.70 9481.81 97.53
164 13.2200 9419.70 9478.83 97.06
165 13.2400 9520.20 9475.83 97.57
166 13.2600 9636.20 9472.81 98.16
167 13.2800 9393.80 9469.78 96.92
168 13.3000 9472.00 9466.73 97.32
169 13.3200 9432.80 9463.67 97.12
170 13.3400 9435.30 9460.59 97.14
171 13.3600 9319.30 9457.49 96.54
172 13.3800 9289.10 9454.38 96.38
173 13.4000 9312.70 9451.25 96.50
174 13.4200 9403.30 9448.10 96.97
175 13.4400 9387.70 9444.94 96.89
176 13.4600 9342.70 9441.76 96.66
177 13.4800 9390.70 9438.56 96.91
178 13.5000 9357.50 9435.34 96.73
179 13.5200 9387.70 9432.11 96.89
180 13.5400 9311.00 9428.85 96.49
181 13.5600 9202.10 9425.58 95.93
182 13.5800 9114.60 9422.29 95.47
183 13.6000 9357.60 9418.98 96.73
184 13.6200 9399.50 9415.66 96.95
185 13.6400 9395.00 9412.31 96.93
186 13.6600 9271.10 9408.95 96.29
187 13.6800 9407.80 9405.56 96.99
188 13.7000 9435.60 9402.16 97.14
189 13.7200 9381.50 9398.73 96.86
190 13.7400 9314.40 9395.29 96.51
191 13.7600 9181.80 9391.82 95.82
192 13.7800 9135.00 9388.34 95.58
193 13.8000 9288.30 9384.83 96.38
194 13.8200 9239.00 9381.31 96.12
195 13.8400 9411.10 9377.76 97.01
196 13.8600 9365.30 9374.20 96.77
197 13.8800 9244.20 9370.61 96.15
198 13.9000 9294.00 9367.00 96.41
199 13.9200 9175.30 9363.37 95.79
200 13.9400 9210.10 9359.72 95.97
201 13.9600 9133.70 9356.05 95.57
202 13.9800 9297.80 9352.36 96.43
203 14.0000 9194.40 9348.64 95.89
204 14.0200 9195.50 9344.91 95.89
205 14.0400 9223.70 9341.15 96.04
206 14.0600 9275.70 9337.37 96.31
207 14.0800 9282.70 9333.57 96.35
208 14.1000 9216.00 9329.75 96.00
209 14.1200 9188.40 9325.90 95.86
210 14.1400 9310.00 9322.04 96.49
211 14.1600 9181.00 9318.15 95.82
212 14.1800 9240.10 9314.24 96.13
213 14.2000 9014.50 9310.30 94.94
214 14.2200 9084.70 9306.35 95.31
215 14.2400 9099.10 9302.37 95.39
216 14.2600 9087.40 9298.37 95.33
217 14.2800 9203.60 9294.34 95.94
218 14.3000 9255.90 9290.30 96.21
219 14.3200 9156.90 9286.23 95.69
220 14.3400 9162.60 9282.14 95.72
221 14.3600 9159.20 9278.02 95.70
222 14.3800 9193.50 9273.89 95.88
223 14.4000 9181.40 9269.73 95.82
224 14.4200 9219.00 9265.54 96.02
225 14.4400 9195.40 9261.34 95.89
226 14.4600 9140.10 9257.11 95.60
227 14.4800 9113.60 9252.86 95.47
228 14.5000 9056.30 9248.58 95.16
229 14.5200 9156.50 9244.28 95.69
230 14.5400 9205.10 9239.96 95.94
231 14.5600 9363.30 9235.62 96.76
232 14.5800 9236.50 9231.25 96.11
233 14.6000 9252.80 9226.86 96.19
234 14.6200 9198.10 9222.44 95.91
235 14.6400 9246.90 9218.01 96.16
236 14.6600 9212.20 9213.54 95.98
237 14.6800 9332.20 9209.06 96.60
238 14.7000 9194.50 9204.55 95.89
239 14.7200 9365.10 9200.02 96.77
240 14.7400 9257.50 9195.47 96.22
241 14.7600 9303.80 9190.89 96.46
242 14.7800 9414.60 9186.29 97.03
243 14.8000 9347.80 9181.67 96.68
244 14.8200 9322.90 9177.02 96.56
245 14.8400 9213.40 9172.35 95.99
246 14.8600 9182.90 9167.65 95.83
247 14.8800 9100.10 9162.93 95.39
248 14.9000 9283.10 9158.19 96.35
249 14.9200 9219.00 9153.43 96.02
250 14.9400 9120.00 9148.64 95.50
251 14.9600 9176.40 9143.83 95.79
252 14.9800 9042.00 9139.00 95.09
253 15.0000 9041.40 9134.14 95.09
254 15.0200 9077.30 9129.26 95.27
255 15.0400 9162.80 9124.36 95.72
256 15.0600 9097.50 9119.43 95.38
257 15.0800 9129.60 9114.48 95.55
258 15.1000 9230.60 9109.51 96.08
259 15.1200 8954.90 9104.51 94.63
260 15.1400 9105.60 9099.49 95.42
261 15.1600 9116.10 9094.45 95.48
262 15.1800 9090.90 9089.38 95.35
263 15.2000 9194.80 9084.29 95.89
264 15.2200 8944.00 9079.18 94.57
265 15.2400 9112.70 9074.05 95.46
266 15.2600 8975.90 9068.89 94.74
267 15.2800 8914.20 9063.71 94.42
268 15.3000 9055.60 9058.51 95.16
269 15.3200 9036.20 9053.29 95.06
270 15.3400 9119.60 9048.04 95.50
271 15.3600 9053.10 9042.77 95.15
272 15.3800 9020.00 9037.47 94.97
273 15.4000 9311.70 9032.16 96.50
274 15.4200 9149.50 9026.82 95.65
275 15.4400 9136.30 9021.46 95.58
276 15.4600 9110.90 9016.08 95.45
277 15.4800 9104.10 9010.67 95.42
278 15.5000 9170.30 9005.25 95.76
279 15.5200 9255.50 8999.80 96.21
280 15.5400 9130.80 8994.32 95.56
281 15.5600 9153.00 8988.83 95.67
282 15.5800 9172.40 8983.31 95.77
283 15.6000 9235.60 8977.78 96.10
284 15.6200 9257.20 8972.22 96.21
285 15.6400 9292.50 8966.63 96.40
286 15.6600 9319.20 8961.03 96.54
287 15.6800 9419.40 8955.41 97.05
288 15.7000 9414.30 8949.76 97.03
289 15.7200 9547.80 8944.09 97.71
290 15.7400 9399.00 8938.40 96.95
291 15.7600 9262.20 8932.69 96.24
292 15.7800 9174.00 8926.96 95.78
293 15.8000 9374.90 8921.20 96.82
294 15.8200 9229.90 8915.43 96.07
295 15.8400 9170.40 8909.63 95.76
296 15.8600 9306.70 8903.81 96.47
297 15.8800 9371.30 9119.28 96.81
298 15.9000 9353.40 9131.44 96.71
299 15.9200 9420.00 9255.04 97.06
300 15.9400 9321.30 9281.02 96.55
301 15.9600 9304.60 9311.32 96.46
302 15.9800 9333.60 9346.76 96.61
303 16.0000 9286.50 9388.37 96.37
304 16.0200 9599.90 9437.46 97.98
305 16.0400 9508.60 9495.71 97.51
306 16.0600 9711.20 9565.28 98.55
307 16.0800 9903.70 9649.03 99.52
308 16.1000 10174.20 9750.79 100.87
309 16.1200 10286.30 9875.75 101.42
310 16.1400 10320.40 10031.20 101.59
311 16.1600 10529.30 10227.40 102.61
312 16.1800 10870.90 10479.70 104.26
313 16.2000 11035.50 10811.30 105.05
314 16.2200 11558.60 11258.90 107.51
315 16.2400 12379.60 11884.00 111.26
316 16.2600 13672.10 12801.50 116.93
317 16.2800 15967.50 14286.30 126.36
318 16.3000 19882.10 17160.20 141.00
319 16.3200 26447.70 23478.50 162.63
320 16.3400 36895.80 36449.90 192.08
321 16.3600 54252.00 57340.50 232.92
322 16.3800 82641.80 86821.70 287.48
323 16.4000 116335.00 110880.00 341.08
324 16.4200 130412.00 123861.00 361.13
325 16.4400 110280.00 106281.00 332.08
326 16.4600 81274.20 77802.00 285.09
327 16.4800 52188.80 50621.90 228.45
328 16.5000 29648.40 29986.30 172.19
329 16.5200 18540.90 19782.10 136.16
330 16.5400 14255.20 15510.80 119.39
331 16.5600 12337.70 13493.60 111.07
332 16.5800 11389.20 12302.10 106.72
333 16.6000 10791.40 11508.40 103.88
334 16.6200 10269.80 10948.60 101.34
335 16.6400 10122.10 10537.60 100.61
336 16.6600 9789.00 10226.10 98.94
337 16.6800 9724.60 9983.85 98.61
338 16.7000 9518.90 9791.17 97.56
339 16.7200 9428.70 9635.02 97.10
340 16.7400 9219.10 9506.38 96.02
341 16.7600 9036.00 9398.84 95.06
342 16.7800 9126.90 9307.79 95.53
343 16.8000 9152.30 9229.79 95.67
344 16.8200 9108.70 9162.29 95.44
345 16.8400 8948.10 9103.29 94.59
346 16.8600 8978.30 9051.27 94.75
347 16.8800 9014.90 9005.04 94.95
348 16.9000 8999.90 8963.65 94.87
349 16.9200 8878.50 8700.03 94.23
350 16.9400 8885.50 8682.73 94.26
351 16.9600 8838.40 8554.05 94.01
352 16.9800 8869.50 8547.20 94.18
353 17.0000 8743.80 8540.34 93.51
354 17.0200 8807.50 8533.46 93.85
355 17.0400 8846.80 8526.56 94.06
356 17.0600 8797.80 8519.65 93.80
357 17.0800 8721.40 8512.73 93.39
358 17.1000 8795.60 8505.79 93.78
359 17.1200 8897.60 8498.83 94.33
360 17.1400 8717.90 8491.86 93.37
361 17.1600 8964.90 8484.88 94.68
362 17.1800 8959.10 8477.88 94.65
363 17.2000 8887.00 8470.87 94.27
364 17.2200 8885.40 8463.84 94.26
365 17.2400 8892.00 8456.80 94.30
366 17.2600 8751.70 8449.75 93.55
367 17.2800 8791.30 8442.68 93.76
368 17.3000 8631.40 8435.59 92.91
369 17.3200 8680.30 8428.50 93.17
370 17.3400 8676.90 8421.39 93.15
371 17.3600 8529.90 8414.26 92.36
372 17.3800 8538.50 8407.13 92.40
373 17.4000 8670.40 8399.98 93.11
374 17.4200 8422.00 8392.82 91.77
375 17.4400 8647.70 8385.64 92.99
376 17.4600 8423.20 8378.45 91.78
377 17.4800 8501.40 8371.25 92.20
378 17.5000 8529.60 8364.04 92.36
379 17.5200 8494.70 8356.81 92.17
380 17.5400 8421.30 8349.57 91.77
381 17.5600 8422.30 8342.32 91.77
382 17.5800 8332.40 8335.06 91.28
383 17.6000 8357.80 8335.43 91.42
384 17.6200 8301.60 8328.74 91.11
385 17.6400 8363.90 8322.11 91.45
386 17.6600 8329.60 8328.80 91.27
387 17.6800 8203.80 8323.38 90.57
388 17.7000 8305.10 8334.79 91.13
389 17.7200 8200.60 8331.24 90.56
390 17.7400 8285.60 8328.21 91.03
391 17.7600 8189.40 8325.79 90.50
392 17.7800 8262.90 8324.10 90.90
393 17.8000 8248.70 8323.33 90.82
394 17.8200 8246.40 8323.66 90.81
395 17.8400 8309.40 8325.37 91.16
396 17.8600 8248.50 8328.83 90.82
397 17.8800 8251.00 8334.52 90.83
398 17.9000 8281.10 8343.12 91.00
399 17.9200 8420.50 8355.57 91.76
400 17.9400 8315.30 8373.27 91.19
401 17.9600 8361.60 8398.30 91.44
402 17.9800 8288.50 8433.94 91.04
403 18.0000 8235.20 8485.72 90.75
404 18.0200 8396.30 8564.75 91.63
405 18.0400 8700.30 8698.57 93.28
406 18.0600 8914.20 8956.20 94.42
407 18.0800 9331.70 9473.95 96.60
408 18.1000 10128.50 10409.30 100.64
409 18.1200 11167.80 11904.30 105.68
410 18.1400 12819.60 13846.20 113.22
411 18.1600 14520.90 15939.00 120.50
412 18.1800 16458.70 17609.00 128.29
413 18.2000 17823.10 18361.70 133.50
414 18.2200 17219.00 17824.00 131.22
415 18.2400 15161.20 15516.10 123.13
416 18.2600 13222.20 13253.00 114.99
417 18.2800 11176.80 11241.70 105.72
418 18.3000 9609.90 9779.25 98.03
419 18.3200 8817.20 9023.04 93.90
420 18.3400 8490.10 8675.60 92.14
421 18.3600 8335.60 8496.94 91.30
422 18.3800 8088.20 8385.09 89.93
423 18.4000 8037.40 8306.48 89.65
424 18.4200 8095.90 8247.84 89.98
425 18.4400 8007.70 8202.21 89.49
426 18.4600 7752.60 8165.47 88.05
427 18.4800 8010.30 8135.01 89.50
428 18.5000 7919.30 8109.12 88.99
429 18.5200 7912.70 8086.65 88.95
430 18.5400 7885.90 8066.77 88.80
431 18.5600 7835.20 8048.91 88.52
432 18.5800 7813.80 8032.65 88.40
433 18.6000 7784.40 8017.65 88.23
434 18.6200 7918.30 8003.68 88.98
435 18.6400 7757.90 7990.54 88.08
436 18.6600 7864.30 7978.10 88.68
437 18.6800 7760.70 7958.32 88.09
438 18.7000 7756.10 7947.50 88.07
439 18.7200 7773.80 7933.02 88.17
440 18.7400 7767.80 7906.74 88.14
441 18.7600 7704.20 7898.23 87.77
442 18.7800 7684.70 7881.50 87.66
443 18.8000 7728.90 7873.72 87.91
444 18.8200 7705.90 7865.94 87.78
445 18.8400 7700.70 7858.14 87.75
446 18.8600 7875.70 7850.35 88.75
447 18.8800 7711.90 7842.55 87.82
448 18.9000 7664.10 7834.74 87.54
449 18.9200 7679.50 7826.93 87.63
450 18.9400 7661.00 7819.12 87.53
451 18.9600 7684.30 7811.30 87.66
452 18.9800 7667.80 7803.47 87.57
453 19.0000 7588.90 7795.65 87.11
454 19.0200 7702.40 7787.82 87.76
455 19.0400 7624.20 7779.98 87.32
456 19.0600 7695.60 7772.15 87.72
457 19.0800 7597.80 7764.31 87.17
458 19.1000 7687.20 7756.46 87.68
459 19.1200 7663.00 7748.61 87.54
460 19.1400 7758.10 7740.76 88.08
461 19.1600 7790.80 7732.91 88.27
462 19.1800 7611.60 7725.05 87.24
463 19.2000 7513.90 7717.19 86.68
464 19.2200 7635.00 7709.33 87.38
465 19.2400 7635.60 7701.46 87.38
466 19.2600 7657.10 7693.59 87.50
467 19.2800 7496.50 7685.72 86.58
468 19.3000 7403.80 7677.85 86.05
469 19.3200 7513.20 7669.97 86.68
470 19.3400 7712.80 7662.10 87.82
471 19.3600 7504.00 7654.22 86.63
472 19.3800 7624.80 7652.89 87.32
473 19.4000 7596.50 7645.51 87.16
474 19.4200 7432.80 7660.96 86.21
475 19.4400 7494.80 7655.40 86.57
476 19.4600 7687.60 7650.12 87.68
477 19.4800 7641.50 7708.18 87.42
478 19.5000 7429.80 7708.69 86.20
479 19.5200 7479.90 7710.29 86.49
480 19.5400 7499.20 7713.19 86.60
481 19.5600 7384.10 7717.63 85.93
482 19.5800 7466.10 7723.91 86.41
483 19.6000 7643.80 7732.45 87.43
484 19.6200 7571.20 7743.73 87.01
485 19.6400 7606.60 7758.42 87.22
486 19.6600 7609.60 7777.39 87.23
487 19.6800 7749.70 7801.78 88.03
488 19.7000 7529.30 7833.21 86.77
489 19.7200 7776.40 7873.89 88.18
490 19.7400 7796.20 7927.05 88.30
491 19.7600 7920.30 8000.33 89.00
492 19.7800 8075.10 8095.64 89.86
493 19.8000 8197.20 8230.97 90.54
494 19.8200 8400.20 8425.67 91.65
495 19.8400 8871.40 8737.60 94.19
496 19.8600 9547.30 9283.61 97.71
497 19.8800 10795.80 10287.70 103.90
498 19.9000 12788.20 12098.90 113.08
499 19.9200 15990.00 15336.50 126.45
500 19.9400 20614.30 20101.60 143.58
501 19.9600 26672.50 25169.50 163.32
502 19.9800 32648.70 31794.70 180.69
503 20.0000 34292.00 34366.60 185.18
504 20.0200 30777.70 29751.60 175.44
505 20.0400 25691.60 24986.20 160.29
506 20.0600 20159.30 19554.80 141.98
507 20.0800 15045.90 14327.20 122.66
508 20.1000 11500.60 11123.80 107.24
509 20.1200 9640.80 9593.62 98.19
510 20.1400 8727.30 8886.08 93.42
511 20.1600 8300.40 8504.89 91.11
512 20.1800 8053.60 8267.27 89.74
513 20.2000 7871.90 8113.98 88.72
514 20.2200 7732.00 8028.83 87.93
515 20.2400 7695.20 8024.02 87.72
516 20.2600 7886.70 8132.06 88.81
517 20.2800 8204.80 8367.58 90.58
518 20.3000 8523.60 8711.37 92.32
519 20.3200 8951.40 9193.50 94.61
520 20.3400 9147.10 9340.29 95.64
521 20.3600 8947.50 9005.44 94.59
522 20.3800 8581.10 8671.84 92.63
523 20.4000 8191.60 8270.91 90.51
524 20.4200 7789.50 7878.32 88.26
525 20.4400 7530.80 7629.84 86.78
526 20.4600 7430.70 7501.54 86.20
527 20.4800 7328.80 7433.18 85.61
528 20.5000 7297.80 7382.70 85.43
529 20.5200 7249.00 7349.95 85.14
530 20.5400 7227.90 7268.13 85.02
531 20.5600 7146.30 7249.32 84.54
532 20.5800 7174.00 7232.94 84.70
533 20.6000 7185.70 7193.44 84.77
534 20.6200 7090.40 7181.71 84.20
535 20.6400 7136.00 7170.77 84.47
536 20.6600 7130.90 7160.41 84.44
537 20.6800 7117.30 7150.51 84.36
538 20.7000 7036.80 7140.96 83.89
539 20.7200 7131.20 7131.69 84.45
540 20.7400 7058.10 7122.64 84.01
541 20.7600 7208.00 7113.78 84.90
542 20.7800 7053.00 7105.07 83.98
543 20.8000 7028.20 7096.48 83.83
544 20.8200 7083.30 7088.00 84.16
545 20.8400 7092.90 7079.61 84.22
546 20.8600 7069.20 7071.29 84.08
547 20.8800 6996.30 7063.04 83.64
548 20.9000 7229.20 7051.22 85.02
549 20.9200 7146.40 7043.32 84.54
550 20.9400 7029.20 7033.57 83.84
551 20.9600 7118.10 7025.83 84.37
552 20.9800 7075.00 7018.10 84.11
553 21.0000 7093.40 7010.38 84.22
554 21.0200 6997.40 7002.66 83.65
555 21.0400 6980.60 6994.94 83.55
556 21.0600 7085.60 6987.23 84.18
557 21.0800 7010.80 6979.53 83.73
558 21.1000 7075.70 6971.83 84.12
559 21.1200 6904.70 6964.14 83.09
560 21.1400 6999.40 6956.45 83.66
561 21.1600 6989.30 6948.77 83.60
562 21.1800 7067.80 6941.10 84.07
563 21.2000 7057.80 6933.43 84.01
564 21.2200 7059.10 6925.77 84.02
565 21.2400 7073.80 6918.11 84.11
566 21.2600 7031.40 6910.46 83.85
567 21.2800 6959.00 6902.82 83.42
568 21.3000 7008.40 6895.18 83.72
569 21.3200 6864.20 6887.55 82.85
570 21.3400 6882.20 6879.92 82.96
571 21.3600 6844.20 6903.48 82.73
572 21.3800 6916.60 6898.11 83.17
573 21.4000 6891.10 6892.99 83.01
574 21.4200 6860.20 6974.63 82.83
575 21.4400 7003.60 6976.82 83.69
576 21.4600 6960.00 6980.21 83.43
577 21.4800 6995.10 6985.00 83.64
578 21.5000 7012.90 6991.45 83.74
579 21.5200 7118.30 6999.86 84.37
580 21.5400 7144.80 7010.62 84.53
581 21.5600 7034.30 7024.20 83.87
582 21.5800 7058.40 7041.21 84.01
583 21.6000 7219.40 7062.45 84.97
584 21.6200 7140.60 7088.93 84.50
585 21.6400 7186.10 7122.03 84.77
586 21.6600 7215.20 7163.57 84.94
587 21.6800 7297.50 7216.09 85.43
588 21.7000 7434.30 7283.15 86.22
589 21.7200 7523.70 7369.87 86.74
590 21.7400 7688.20 7483.87 87.68
591 21.7600 8034.10 7636.98 89.63
592 21.7800 8276.50 7848.29 90.98
593 21.8000 8825.50 8152.18 93.94
594 21.8200 9583.90 8625.02 97.90
595 21.8400 10860.80 9467.43 104.21
596 21.8600 12934.30 11149.60 113.73
597 21.8800 16197.20 14483.70 127.27
598 21.9000 21461.70 20212.30 146.50
599 21.9200 28996.30 27913.30 170.28
600 21.9400 35821.20 37161.80 189.26
601 21.9600 38292.80 40994.50 195.68
602 21.9800 34842.70 35842.00 186.66
603 22.0000 30025.30 30439.70 173.28
604 22.0200 24715.70 24530.80 157.21
605 22.0400 18688.40 17605.00 136.71
606 22.0600 13904.20 12693.90 117.92
607 22.0800 11066.40 10107.30 105.20
608 22.1000 9480.50 8882.30 97.37
609 22.1200 8814.50 8248.30 93.89
610 22.1400 8136.50 7858.86 90.20
611 22.1600 7791.70 7591.28 88.27
612 22.1800 7493.70 7396.64 86.57
613 22.2000 7164.10 7249.72 84.64
614 22.2200 7287.00 7135.52 85.36
615 22.2400 7023.60 7044.52 83.81
616 22.2600 6955.00 6970.43 83.40
617 22.2800 6965.30 6908.96 83.46
618 22.3000 6912.60 6857.13 83.14
619 22.3200 6687.80 6812.78 81.78
620 22.3400 6712.50 6774.31 81.93
621 22.3600 6736.30 6740.54 82.07
622 22.3800 6676.10 6710.59 81.71
623 22.4000 6500.60 6683.75 80.63
624 22.4200 6560.90 6659.48 81.00
625 22.4400 6529.40 6637.36 80.80
626 22.4600 6531.10 6617.04 80.82
627 22.4800 6617.60 6598.24 81.35
628 22.5000 6638.40 6580.75 81.48
629 22.5200 6477.20 6564.37 80.48
630 22.5400 6385.20 6478.86 79.91
631 22.5600 6452.60 6468.77 80.33
632 22.5800 6463.70 6459.00 80.40
633 22.6000 6329.00 6415.33 79.56
634 22.6200 6389.70 6408.25 79.94
635 22.6400 6389.10 6401.17 79.93
636 22.6600 6529.40 6394.10 80.80
637 22.6800 6432.30 6387.05 80.20
638 22.7000 6340.10 6380.00 79.62
639 22.7200 6372.70 6372.96 79.83
640 22.7400 6353.40 6365.94 79.71
641 22.7600 6321.40 6358.92 79.51
642 22.7800 6298.60 6351.92 79.36
643 22.8000 6264.50 6344.92 79.15
644 22.8200 6339.20 6337.94 79.62
645 22.8400 6386.30 6330.97 79.91
646 22.8600 6280.90 6324.00 79.25
647 22.8800 6224.70 6317.05 78.90
648 22.9000 6409.80 6310.11 80.06
649 22.9200 6347.40 6303.17 79.67
650 22.9400 6376.90 6296.25 79.86
651 22.9600 6342.70 6289.34 79.64
652 22.9800 6266.30 6282.44 79.16
653 23.0000 6344.20 6275.55 79.65
654 23.0200 6237.10 6268.68 78.98
655 23.0400 6164.40 6261.81 78.51
656 23.0600 6309.30 6254.95 79.43
657 23.0800 6216.90 6248.11 78.85
658 23.1000 6317.70 6241.27 79.48
659 23.1200 6241.90 6234.45 79.01
660 23.1400 6305.10 6227.63 79.40
661 23.1600 6345.50 6220.83 79.66
662 23.1800 6161.40 6214.04 78.49
663 23.2000 6272.70 6207.26 79.20
664 23.2200 6193.50 6200.49 78.70
665 23.2400 6331.80 6193.73 79.57
666 23.2600 6307.80 6186.99 79.42
667 23.2800 6240.60 6180.25 79.00
668 23.3000 6256.20 6173.53 79.10
669 23.3200 6262.70 6166.82 79.14
670 23.3400 6239.00 6160.11 78.99
671 23.3600 6284.90 6153.42 79.28
672 23.3800 6081.80 6146.75 77.99
673 23.4000 6133.20 6140.08 78.31
674 23.4200 6081.70 6133.42 77.99
675 23.4400 6056.00 6126.78 77.82
676 23.4600 6065.70 6120.14 77.88
677 23.4800 6042.80 6113.52 77.74
678 23.5000 6079.30 6106.91 77.97
679 23.5200 6155.10 6100.31 78.45
680 23.5400 5865.00 6093.73 76.58
681 23.5600 6035.00 6087.15 77.69
682 23.5800 6030.20 6080.59 77.65
683 23.6000 6018.50 6074.04 77.58
684 23.6200 6063.20 6067.49 77.87
685 23.6400 6049.30 6060.97 77.78
686 23.6600 6113.60 6054.45 78.19
687 23.6800 6067.90 6047.94 77.90
688 23.7000 6087.90 6041.45 78.03
689 23.7200 5979.00 6034.97 77.32
690 23.7400 5967.10 6028.50 77.25
691 23.7600 6047.80 6022.04 77.77
692 23.7800 6048.10 6015.59 77.77
693 23.8000 6031.20 6009.16 77.66
694 23.8200 5999.70 6002.74 77.46
695 23.8400 5973.50 5996.32 77.29
696 23.8600 6030.10 5989.93 77.65
697 23.8800 5933.40 5983.54 77.03
698 23.9000 5944.80 5977.16 77.10
699 23.9200 6039.20 5970.80 77.71
700 23.9400 5904.90 5978.53 76.84
701 23.9600 6039.40 5973.13 77.71
702 23.9800 5992.40 5967.84 77.41
703 24.0000 5956.60 5974.67 77.18
704 24.0200 5944.00 5970.44 77.10
705 24.0400 5890.10 5972.02 76.75
706 24.0600 6081.20 5968.71 77.98
707 24.0800 5967.70 5965.75 77.25
708 24.1000 5925.10 5998.07 76.97
709 24.1200 5940.80 5998.33 77.08
710 24.1400 6037.70 5999.41 77.70
711 24.1600 5863.50 6018.58 76.57
712 24.1800 5944.90 6022.86 77.10
713 24.2000 5999.10 6028.61 77.45
714 24.2200 6049.90 6036.09 77.78
715 24.2400 5750.50 6045.68 75.83
716 24.2600 5995.50 6057.85 77.43
717 24.2800 5923.90 6073.20 76.97
718 24.3000 6042.20 6092.54 77.73
719 24.3200 6030.20 6116.97 77.65
720 24.3400 6176.60 6148.02 78.59
721 24.3600 6108.90 6187.86 78.16
722 24.3800 6187.00 6239.68 78.66
723 24.4000 6254.90 6308.40 79.09
724 24.4200 6343.60 6402.21 79.65
725 24.4400 6553.00 6537.19 80.95
726 24.4600 6697.60 6750.66 81.84
727 24.4800 7101.60 7129.28 84.27
728 24.5000 7774.10 7842.15 88.17
729 24.5200 8905.10 9119.19 94.37
730 24.5400 10321.70 11014.90 101.60
731 24.5600 12291.40 13318.20 110.87
732 24.5800 13453.10 15050.00 115.99
733 24.6000 14140.40 15308.00 118.91
734 24.6200 14339.00 15069.80 119.75
735 24.6400 14018.10 14574.10 118.40
736 24.6600 13590.10 14268.90 116.58
737 24.6800 14913.40 15285.10 122.12
738 24.7000 17988.80 17741.80 134.12
739 24.7200 22344.70 21026.50 149.48
740 24.7400 24611.50 22964.70 156.88
741 24.7600 21757.70 21085.60 147.51
742 24.7800 18264.30 18348.30 135.15
743 24.8000 16503.30 16227.90 128.46
744 24.8200 13347.70 13298.20 115.53
745 24.8400 9937.80 10376.70 99.69
746 24.8600 7925.70 8455.25 89.03
747 24.8800 7049.10 7424.49 83.96
748 24.9000 6575.50 6898.21 81.09
749 24.9200 6336.50 6600.47 79.60
750 24.9400 6160.60 6405.69 78.49
751 24.9600 6126.90 6265.93 78.27
752 24.9800 6165.90 6160.56 78.52
753 25.0000 5993.90 6078.49 77.42
754 25.0200 5940.40 6012.84 77.07
755 25.0400 5983.80 5959.16 77.36
756 25.0600 5904.20 5914.41 76.84
757 25.0800 5781.40 5876.48 76.04
758 25.1000 5922.80 5843.84 76.96
759 25.1200 5850.70 5815.40 76.49
760 25.1400 5841.00 5790.31 76.43
761 25.1600 5682.30 5767.95 75.38
762 25.1800 5898.60 5795.03 76.80
763 25.2000 5825.10 5765.73 76.32
764 25.2200 5834.40 5753.25 76.38
765 25.2400 5912.80 5842.87 76.89
766 25.2600 5683.90 5834.16 75.39
767 25.2800 5781.60 5835.00 76.04
768 25.3000 5774.10 5834.67 75.99
769 25.3200 5773.80 5840.11 75.99
770 25.3400 5762.70 5848.00 75.91
771 25.3600 5744.40 5823.27 75.79
772 25.3800 5774.30 5839.05 75.99
773 25.4000 5778.50 5858.13 76.02
774 25.4200 5746.40 5863.49 75.81
775 25.4400 5827.50 5892.21 76.34
776 25.4600 6033.40 5926.47 77.68
777 25.4800 5791.30 5967.52 76.10
778 25.5000 6042.20 6017.01 77.73
779 25.5200 6023.80 6077.12 77.61
780 25.5400 6157.60 6150.78 78.47
781 25.5600 6307.60 6242.01 79.42
782 25.5800 6347.40 6356.43 79.67
783 25.6000 6429.40 6510.96 80.18
784 25.6200 6608.30 6700.55 81.29
785 25.6400 6787.60 6951.88 82.39
786 25.6600 7208.20 7318.57 84.90
787 25.6800 7703.00 7809.14 87.77
788 25.7000 8575.20 8565.97 92.60
789 25.7200 10198.40 9883.43 100.99
790 25.7400 12740.30 12422.60 112.87
791 25.7600 17639.60 17345.60 132.81
792 25.7800 25753.60 25765.50 160.48
793 25.8000 38408.50 36788.00 195.98
794 25.8200 49388.50 47120.30 222.24
795 25.8400 51475.50 48986.20 226.88
796 25.8600 44538.70 42551.60 211.04
797 25.8800 38382.50 36663.20 195.91
798 25.9000 33174.20 31232.10 182.14
799 25.9200 24834.40 23341.80 157.59
800 25.9400 17090.90 16285.70 130.73
801 25.9600 11890.70 11873.90 109.04
802 25.9800 9247.90 9554.91 96.17
803 26.0000 8061.20 8378.56 89.78
804 26.0200 7374.90 7722.83 85.88
805 26.0400 7086.20 7313.26 84.18
806 26.0600 6675.00 7046.16 81.70
807 26.0800 6568.40 6879.99 81.05
808 26.1000 6637.70 6799.84 81.47
809 26.1200 6715.90 6814.59 81.95
810 26.1400 6927.90 6975.05 83.23
811 26.1600 7279.10 7411.17 85.32
812 26.1800 7874.90 8357.27 88.74
813 26.2000 9106.70 10035.00 95.43
814 26.2200 10539.90 12248.30 102.66
815 26.2400 11638.10 14278.90 107.88
816 26.2600 11529.40 14559.60 107.38
817 26.2800 11043.10 13207.60 105.09
818 26.3000 10357.30 11991.40 101.77
819 26.3200 9531.80 10890.60 97.63
820 26.3400 8405.30 9277.95 91.68
821 26.3600 7466.10 7796.29 86.41
822 26.3800 6810.70 6844.52 82.53
823 26.4000 6381.10 6326.98 79.88
824 26.4200 6138.90 6052.49 78.35
825 26.4400 5901.60 5890.27 76.82
826 26.4600 5774.20 5780.29 75.99
827 26.4800 5563.90 5611.38 74.59
828 26.5000 5579.60 5554.05 74.70
829 26.5200 5699.40 5508.80 75.49
830 26.5400 5589.40 5441.49 74.76
831 26.5600 5590.90 5415.02 74.77
832 26.5800 5573.90 5393.18 74.66
833 26.6000 5550.60 5374.92 74.50
834 26.6200 5475.30 5359.52 74.00
835 26.6400 5467.00 5346.46 73.94
836 26.6600 5348.00 5335.35 73.13
837 26.6800 5366.70 5325.93 73.26
838 26.7000 5451.10 5318.02 73.83
839 26.7200 5329.20 5311.51 73.00
840 26.7400 5344.20 5306.36 73.10
841 26.7600 5476.40 5302.56 74.00
842 26.7800 5489.50 5300.18 74.09
843 26.8000 5323.60 5299.34 72.96
844 26.8200 5317.20 5300.26 72.92
845 26.8400 5391.70 5303.24 73.43
846 26.8600 5411.20 5308.71 73.56
847 26.8800 5407.20 5317.33 73.53
848 26.9000 5478.50 5310.42 74.02
849 26.9200 5579.60 5329.65 74.70
850 26.9400 5469.40 5356.23 73.96
851 26.9600 5476.30 5383.51 74.00
852 26.9800 5416.60 5437.30 73.60
853 27.0000 5639.50 5517.91 75.10
854 27.0200 5785.30 5650.62 76.06
855 27.0400 6067.30 5895.50 77.89
856 27.0600 6545.80 6374.31 80.91
857 27.0800 7296.60 7262.42 85.42
858 27.1000 8088.80 8625.96 89.94
859 27.1200 9580.90 10164.20 97.88
860 27.1400 10296.00 11138.10 101.47
861 27.1600 9931.00 10721.40 99.65
862 27.1800 9151.40 9802.62 95.66
863 27.2000 8618.30 9148.52 92.83
864 27.2200 7953.10 8352.01 89.18
865 27.2400 7070.30 7279.08 84.09
866 27.2600 6376.00 6409.62 79.85
867 27.2800 5924.30 5880.48 76.97
868 27.3000 5698.70 5597.95 75.49
869 27.3200 5461.20 5446.58 73.90
870 27.3400 5262.10 5355.34 72.54
871 27.3600 5268.30 5292.98 72.58
872 27.3800 5288.10 5246.95 72.72
873 27.4000 5208.80 5211.44 72.17
874 27.4200 5168.80 5183.16 71.89
875 27.4400 5163.40 5160.03 71.86
876 27.4600 5121.10 5140.68 71.56
877 27.4800 5096.90 5124.17 71.39
878 27.5000 5022.50 5109.83 70.87
879 27.5200 5073.30 5097.19 71.23
880 27.5400 5071.10 5085.89 71.21
881 27.5600 5117.90 5075.67 71.54
882 27.5800 5119.30 5066.32 71.55
883 27.6000 5049.30 5057.68 71.06
884 27.6200 5014.70 5049.65 70.81
885 27.6400 5022.60 5042.11 70.87
886 27.6600 4978.40 5035.00 70.56
887 27.6800 5036.50 5028.24 70.97
888 27.7000 5043.60 5021.80 71.02
889 27.7200 5060.60 5015.62 71.14
890 27.7400 5002.70 5009.67 70.73
891 27.7600 5031.00 5003.92 70.93
892 27.7800 4904.60 4998.35 70.03
893 27.8000 4987.20 4979.52 70.62
894 27.8200 4986.10 4975.02 70.61
895 27.8400 5013.50 4970.57 70.81
896 27.8600 4966.40 4966.19 70.47
897 27.8800 4990.20 4955.42 70.64
898 27.9000 4923.30 4951.49 70.17
899 27.9200 4901.40 4947.57 70.01
900 27.9400 4965.10 4943.66 70.46
901 27.9600 4957.20 4939.76 70.41
902 27.9800 4971.20 4935.88 70.51
903 28.0000 5003.20 4932.00 70.73
904 28.0200 4896.80 4928.14 69.98
905 28.0400 4938.20 4924.28 70.27
906 28.0600 4866.20 4920.44 69.76
907 28.0800 4935.80 4916.61 70.26
908 28.1000 4866.40 4912.79 69.76
909 28.1200 4785.80 4908.98 69.18
910 28.1400 4912.90 4905.18 70.09
911 28.1600 4970.60 4901.39 70.50
912 28.1800 4913.20 4897.61 70.09
913 28.2000 4885.30 4893.84 69.89
914 28.2200 4878.10 4890.09 69.84
915 28.2400 4958.20 4886.34 70.41
916 28.2600 4853.20 4882.60 69.66
917 28.2800 4913.90 4878.88 70.10
918 28.3000 4768.90 4875.17 69.06
919 28.3200 4679.60 4871.46 68.41
920 28.3400 4862.60 4867.77 69.73
921 28.3600 4886.20 4864.09 69.90
922 28.3800 4841.00 4860.41 69.58
923 28.4000 4801.90 4856.75 69.30
924 28.4200 4719.00 4853.10 68.69
925 28.4400 4843.10 4849.46 69.59
926 28.4600 4874.40 4845.83 69.82
927 28.4800 4809.80 4842.21 69.35
928 28.5000 4728.50 4838.60 68.76
929 28.5200 4602.40 4835.00 67.84
930 28.5400 4886.30 4831.41 69.90
931 28.5600 4749.10 4827.83 68.91
932 28.5800 4741.70 4824.26 68.86
933 28.6000 4779.80 4820.71 69.14
934 28.6200 4711.00 4817.16 68.64
935 28.6400 4716.70 4813.62 68.68
936 28.6600 4803.70 4810.09 69.31
937 28.6800 4757.60 4806.58 68.98
938 28.7000 4755.70 4803.07 68.96
939 28.7200 4842.00 4799.57 69.58
940 28.7400 4697.20 4796.08 68.54
941 28.7600 4676.30 4792.60 68.38
942 28.7800 4722.00 4789.14 68.72
943 28.8000 4812.80 4785.68 69.37
944 28.8200 4640.40 4782.23 68.12
945 28.8400 4752.20 4778.79 68.94
946 28.8600 4731.30 4775.37 68.78
947 28.8800 4813.30 4771.95 69.38
948 28.9000 4675.60 4768.54 68.38
949 28.9200 4724.60 4765.14 68.74
950 28.9400 4770.90 4761.75 69.07
951 28.9600 4674.80 4758.37 68.37
952 28.9800 4692.10 4755.01 68.50
953 29.0000 4639.40 4751.65 68.11
954 29.0200 4746.30 4748.30 68.89
955 29.0400 4627.60 4744.96 68.03
956 29.0600 4728.10 4741.63 68.76
957 29.0800 4659.30 4738.31 68.26
958 29.1000 4745.40 4734.99 68.89
959 29.1200 4733.10 4731.69 68.80
960 29.1400 4653.40 4728.40 68.22
961 29.1600 4709.60 4725.12 68.63
962 29.1800 4687.20 4721.84 68.46
963 29.2000 4650.50 4718.58 68.19
964 29.2200 4647.80 4715.32 68.17
965 29.2400 4695.60 4712.08 68.52
966 29.2600 4653.10 4708.84 68.21
967 29.2800 4677.50 4705.62 68.39
968 29.3000 4629.30 4702.40 68.04
969 29.3200 4620.20 4699.19 67.97
970 29.3400 4558.30 4695.99 67.52
971 29.3600 4636.70 4692.80 68.09
972 29.3800 4692.60 4689.62 68.50
973 29.4000 4648.30 4686.45 68.18
974 29.4200 4681.80 4683.29 68.42
975 29.4400 4600.30 4680.14 67.83
976 29.4600 4644.30 4676.99 68.15
977 29.4800 4624.50 4673.86 68.00
978 29.5000 4596.30 4670.73 67.80
979 29.5200 4480.30 4667.62 66.93
980 29.5400 4708.60 4664.51 68.62
981 29.5600 4644.90 4661.41 68.15
982 29.5800 4596.80 4658.32 67.80
983 29.6000 4625.50 4655.24 68.01
984 29.6200 4731.10 4652.17 68.78
985 29.6400 4629.00 4649.10 68.04
986 29.6600 4609.50 4646.05 67.89
987 29.6800 4622.50 4643.00 67.99
988 29.7000 4687.40 4639.96 68.46
989 29.7200 4568.30 4636.94 67.59
990 29.7400 4500.70 4633.92 67.09
991 29.7600 4581.40 4630.90 67.69
992 29.7800 4580.20 4627.90 67.68
993 29.8000 4633.30 4624.91 68.07
994 29.8200 4656.50 4621.92 68.24
995 29.8400 4537.60 4618.95 67.36
996 29.8600 4667.60 4615.98 68.32
997 29.8800 4531.10 4613.02 67.31
998 29.9000 4553.80 4610.07 67.48
999 29.9200 4565.40 4607.12 67.57
1000 29.9400 4586.00 4604.19 67.72
1001 29.9600 4347.30 4601.26 65.93
1002 29.9800 4564.20 4598.34 67.56
1003 30.0000 4564.70 4595.43 67.56
1004 30.0200 4468.60 4592.53 66.85
1005 30.0400 4597.00 4596.88 67.80
1006 30.0600 4595.80 4594.41 67.79
1007 30.0800 4614.90 4591.99 67.93
1008 30.1000 4586.10 4589.62 67.72
1009 30.1200 4608.00 4604.72 67.88
1010 30.1400 4544.40 4603.88 67.41
1011 30.1600 4609.00 4602.90 67.89
1012 30.1800 4544.10 4602.11 67.41
1013 30.2000 4547.20 4601.55 67.43
1014 30.2200 4609.10 4603.84 67.89
1015 30.2400 4563.40 4606.13 67.55
1016 30.2600 4591.10 4606.76 67.76
1017 30.2800 4557.60 4607.80 67.51
1018 30.3000 4542.70 4609.33 67.40
1019 30.3200 4551.20 4611.43 67.46
1020 30.3400 4559.20 4614.20 67.52
1021 30.3600 4642.90 4617.77 68.14
1022 30.3800 4552.40 4622.31 67.47
1023 30.4000 4597.70 4628.00 67.81
1024 30.4200 4468.60 4635.12 66.85
1025 30.4400 4465.50 4644.00 66.82
1026 30.4600 4635.80 4655.09 68.09
1027 30.4800 4548.70 4668.98 67.44
1028 30.5000 4689.70 4686.49 68.48
1029 30.5200 4672.80 4708.76 68.36
1030 30.5400 4734.90 4737.42 68.81
1031 30.5600 4694.70 4774.88 68.52
1032 30.5800 4790.20 4824.80 69.21
1033 30.6000 4941.50 4893.34 70.30
1034 30.6200 4988.80 4992.36 70.63
1035 30.6400 5172.30 5148.25 71.92
1036 30.6600 5554.40 5421.27 74.53
1037 30.6800 6079.40 5930.36 77.97
1038 30.7000 7101.10 6846.75 84.27
1039 30.7200 8464.20 8271.91 92.00
1040 30.7400 10035.90 9947.03 100.18
1041 30.7600 11216.20 11108.30 105.91
1042 30.7800 10962.60 10913.50 104.70
1043 30.8000 10061.30 10037.60 100.31
1044 30.8200 9456.40 9510.38 97.24
1045 30.8400 9034.30 9240.39 95.05
1046 30.8600 8252.10 8668.49 90.84
1047 30.8800 7432.20 7887.49 86.21
1048 30.9000 6646.20 7163.54 81.52
1049 30.9200 6088.20 6515.87 78.03
1050 30.9400 5526.60 6058.26 74.34
1051 30.9600 5325.00 5781.82 72.97
1052 30.9800 5218.30 5549.32 72.24
1053 31.0000 4931.50 5279.20 70.22
1054 31.0200 4813.30 5037.58 69.38
1055 31.0400 4693.70 4867.68 68.51
1056 31.0600 4590.80 4760.17 67.76
1057 31.0800 4549.50 4692.87 67.45
1058 31.1000 4484.90 4647.80 66.97
1059 31.1200 4394.60 4614.76 66.29
1060 31.1400 4374.10 4588.91 66.14
1061 31.1600 4404.70 4567.89 66.37
1062 31.1800 4444.10 4550.36 66.66
1063 31.2000 4521.00 4535.46 67.24
1064 31.2200 4468.90 4522.59 66.85
1065 31.2400 4493.70 4511.32 67.04
1066 31.2600 4572.20 4501.33 67.62
1067 31.2800 4440.20 4492.38 66.63
1068 31.3000 4411.30 4484.28 66.42
1069 31.3200 4427.20 4476.89 66.54
1070 31.3400 4428.30 4470.10 66.55
1071 31.3600 4479.00 4463.81 66.93
1072 31.3800 4372.60 4457.95 66.13
1073 31.4000 4411.30 4452.46 66.42
1074 31.4200 4523.60 4447.29 67.26
1075 31.4400 4504.90 4442.40 67.12
1076 31.4600 4471.60 4437.75 66.87
1077 31.4800 4474.90 4418.23 66.89
1078 31.5000 4463.10 4421.48 66.81
1079 31.5200 4385.60 4418.52 66.22
1080 31.5400 4463.70 4415.69 66.81
1081 31.5600 4355.20 4405.54 65.99
1082 31.5800 4350.60 4413.22 65.96
1083 31.6000 4458.30 4411.74 66.77
1084 31.6200 4499.40 4407.68 67.08
1085 31.6400 4464.50 4406.64 66.82
1086 31.6600 4406.10 4405.59 66.38
1087 31.6800 4439.20 4404.89 66.63
1088 31.7000 4478.70 4403.05 66.92
1089 31.7200 4443.80 4402.85 66.66
1090 31.7400 4397.00 4402.90 66.31
1091 31.7600 4457.50 4403.25 66.76
1092 31.7800 4472.30 4403.95 66.88
1093 31.8000 4433.60 4405.06 66.59
1094 31.8200 4349.40 4406.65 65.95
1095 31.8400 4350.40 4408.83 65.96
1096 31.8600 4385.70 4411.70 66.22
1097 31.8800 4426.30 4415.43 66.53
1098 31.9000 4469.70 4420.22 66.86
1099 31.9200 4535.60 4426.31 67.35
1100 31.9400 4549.70 4434.06 67.45
1101 31.9600 4570.60 4443.94 67.61
1102 31.9800 4506.50 4456.59 67.13
1103 32.0000 4625.50 4472.92 68.01
1104 32.0200 4708.10 4494.27 68.62
1105 32.0400 4688.50 4522.58 68.47
1106 32.0600 4774.60 4561.05 69.10
1107 32.0800 4817.30 4615.27 69.41
1108 32.1000 4992.60 4696.98 70.66
1109 32.1200 5184.50 4832.79 72.00
1110 32.1400 5316.30 5079.27 72.91
1111 32.1600 5822.80 5532.38 76.31
1112 32.1800 6529.90 6296.93 80.81
1113 32.2000 7348.20 7357.48 85.72
1114 32.2200 8151.20 8389.96 90.28
1115 32.2400 8408.80 8767.92 91.70
1116 32.2600 8062.70 8283.55 89.79
1117 32.2800 7473.00 7677.27 86.45
1118 32.3000 7364.10 7332.23 85.81
1119 32.3200 6905.40 6986.58 83.10
1120 32.3400 6423.40 6359.18 80.15
1121 32.3600 5865.70 5678.94 76.59
1122 32.3800 5335.90 5181.62 73.05
1123 32.4000 5001.80 4871.25 70.72
1124 32.4200 4865.60 4695.28 69.75
1125 32.4400 4693.70 4594.06 68.51
1126 32.4600 4723.90 4559.95 68.73
1127 32.4800 4652.90 4517.23 68.21
1128 32.5000 4468.50 4486.06 66.85
1129 32.5200 4401.90 4469.17 66.35
1130 32.5400 4484.80 4451.55 66.97
1131 32.5600 4444.70 4438.05 66.67
1132 32.5800 4418.70 4427.77 66.47
1133 32.6000 4482.80 4420.08 66.95
1134 32.6200 4477.80 4414.56 66.92
1135 32.6400 4398.30 4410.93 66.32
1136 32.6600 4340.60 4409.00 65.88
1137 32.6800 4368.90 4408.69 66.10
1138 32.7000 4492.20 4409.96 67.02
1139 32.7200 4465.80 4412.87 66.83
1140 32.7400 4387.60 4417.51 66.24
1141 32.7600 4432.60 4424.06 66.58
1142 32.7800 4517.60 4432.77 67.21
1143 32.8000 4410.70 4444.00 66.41
1144 32.8200 4455.20 4458.23 66.75
1145 32.8400 4424.60 4476.11 66.52
1146 32.8600 4554.00 4498.56 67.48
1147 32.8800 4583.30 4526.82 67.70
1148 32.9000 4529.70 4562.63 67.30
1149 32.9200 4592.90 4608.51 67.77
1150 32.9400 4657.50 4668.21 68.25
1151 32.9600 4716.10 4747.65 68.67
1152 32.9800 4858.60 4847.28 69.70
1153 33.0000 5010.10 5009.72 70.78
1154 33.0200 5236.90 5271.26 72.37
1155 33.0400 5587.80 5724.10 74.75
1156 33.0600 6139.70 6507.69 78.36
1157 33.0800 7384.20 7775.77 85.93
1158 33.1000 8891.30 9490.33 94.29
1159 33.1200 10503.70 11239.90 102.49
1160 33.1400 11412.50 12367.10 106.83
1161 33.1600 11908.70 12963.40 109.13
1162 33.1800 12646.20 13571.90 112.46
1163 33.2000 12828.80 13655.90 113.26
1164 33.2200 11529.40 12574.70 107.38
1165 33.2400 9663.40 10994.20 98.30
1166 33.2600 8739.80 9742.93 93.49
1167 33.2800 7987.70 8759.29 89.37
1168 33.3000 7066.60 7652.09 84.06
1169 33.3200 6019.30 6576.70 77.58
1170 33.3400 5304.60 5783.68 72.83
1171 33.3600 4926.30 5279.30 70.19
1172 33.3800 4667.10 4978.47 68.32
1173 33.4000 4731.10 4796.55 68.78
1174 33.4200 4550.00 4680.37 67.45
1175 33.4400 4421.40 4595.92 66.49
1176 33.4600 4472.10 4532.11 66.87
1177 33.4800 4368.10 4482.17 66.09
1178 33.5000 4360.00 4449.15 66.03
1179 33.5200 4343.50 4416.83 65.91
1180 33.5400 4283.00 4390.12 65.44
1181 33.5600 4352.00 4367.74 65.97
1182 33.5800 4305.20 4348.80 65.61
1183 33.6000 4392.80 4332.63 66.28
1184 33.6200 4383.00 4318.71 66.20
1185 33.6400 4342.10 4306.67 65.89
1186 33.6600 4329.50 4296.21 65.80
1187 33.6800 4239.10 4287.11 65.11
1188 33.7000 4393.10 4279.19 66.28
1189 33.7200 4187.00 4272.33 64.71
1190 33.7400 4325.50 4266.44 65.77
1191 33.7600 4267.00 4261.44 65.32
1192 33.7800 4232.60 4257.31 65.06
1193 33.8000 4333.50 4254.03 65.83
1194 33.8200 4214.40 4251.62 64.92
1195 33.8400 4255.80 4250.14 65.24
1196 33.8600 4283.20 4249.68 65.45
1197 33.8800 4346.00 4237.07 65.92
1198 33.9000 4419.40 4239.81 66.48
1199 33.9200 4404.40 4244.17 66.37
1200 33.9400 4273.70 4250.57 65.37
1201 33.9600 4345.00 4246.73 65.92
1202 33.9800 4404.10 4253.75 66.36
1203 34.0000 4477.40 4272.43 66.91
1204 34.0200 4432.90 4298.60 66.58
1205 34.0400 4554.10 4330.63 67.48
1206 34.0600 4699.10 4392.52 68.55
1207 34.0800 4763.10 4500.47 69.02
1208 34.1000 5015.50 4696.37 70.82
1209 34.1200 5495.20 5035.76 74.13
1210 34.1400 6155.60 5548.31 78.46
1211 34.1600 6939.00 6146.16 83.30
1212 34.1800 7564.20 6551.31 86.97
1213 34.2000 7477.10 6475.70 86.47
1214 34.2200 6992.30 6120.15 83.62
1215 34.2400 6502.70 5860.66 80.64
1216 34.2600 6398.40 5726.08 79.99
1217 34.2800 6132.80 5520.06 78.31
1218 34.3000 5551.80 5167.30 74.51
1219 34.3200 5196.50 4819.81 72.09
1220 34.3400 4789.40 4569.28 69.21
1221 34.3600 4583.10 4413.97 67.70
1222 34.3800 4519.40 4323.63 67.23
1223 34.4000 4425.60 4269.89 66.53
1224 34.4200 4333.20 4234.94 65.83
1225 34.4400 4271.50 4210.00 65.36
1226 34.4600 4264.40 4191.03 65.30
1227 34.4800 4246.70 4176.03 65.17
1228 34.5000 4257.20 4163.86 65.25
1229 34.5200 4126.30 4153.75 64.24
1230 34.5400 4252.10 4145.19 65.21
1231 34.5600 4246.10 4137.83 65.16
1232 34.5800 4116.70 4131.39 64.16
1233 34.6000 4133.60 4125.69 64.29
1234 34.6200 4117.10 4120.59 64.16
1235 34.6400 4092.40 4115.96 63.97
1236 34.6600 4031.70 4111.73 63.50
1237 34.6800 4082.10 4107.82 63.89
1238 34.7000 4101.60 4104.19 64.04
1239 34.7200 4194.90 4100.79 64.77
1240 34.7400 4098.20 4097.58 64.02
1241 34.7600 4136.00 4094.54 64.31
1242 34.7800 4088.20 4091.65 63.94
1243 34.8000 4110.00 4088.89 64.11
1244 34.8200 4053.00 4086.23 63.66
1245 34.8400 4115.30 4083.67 64.15
1246 34.8600 4078.30 4081.19 63.86
1247 34.8800 4050.70 4078.79 63.65
1248 34.9000 4019.60 4076.45 63.40
1249 34.9200 4011.20 4074.17 63.33
1250 34.9400 4055.00 4071.95 63.68
1251 34.9600 4084.60 4064.07 63.91
1252 34.9800 4098.90 4062.22 64.02
1253 35.0000 4031.70 4060.38 63.50
1254 35.0200 4092.00 4058.56 63.97
1255 35.0400 4108.30 4053.88 64.10
1256 35.0600 4128.20 4052.23 64.25
1257 35.0800 4156.60 4050.59 64.47
1258 35.1000 4075.40 4048.95 63.84
1259 35.1200 4121.20 4047.31 64.20
1260 35.1400 4030.40 4045.67 63.49
1261 35.1600 4052.30 4044.03 63.66
1262 35.1800 4073.90 4042.40 63.83
1263 35.2000 3996.70 4040.76 63.22
1264 35.2200 4007.90 4039.13 63.31
1265 35.2400 4009.40 4037.51 63.32
1266 35.2600 4051.40 4035.88 63.65
1267 35.2800 4053.60 4042.77 63.67
1268 35.3000 4043.00 4041.60 63.58
1269 35.3200 4113.40 4040.46 64.14
1270 35.3400 3850.40 4039.37 62.05
1271 35.3600 4066.30 4052.32 63.77
1272 35.3800 4003.20 4052.09 63.27
1273 35.4000 3979.20 4051.99 63.08
1274 35.4200 4007.20 4052.03 63.30
1275 35.4400 3919.50 4052.22 62.61
1276 35.4600 3999.00 4052.58 63.24
1277 35.4800 4022.60 4053.15 63.42
1278 35.5000 4084.40 4053.93 63.91
1279 35.5200 3974.50 4054.98 63.04
1280 35.5400 4167.20 4056.31 64.55
1281 35.5600 3989.80 4057.99 63.16
1282 35.5800 4058.60 4060.05 63.71
1283 35.6000 4037.70 4062.57 63.54
1284 35.6200 3994.50 4065.62 63.20
1285 35.6400 3948.50 4069.29 62.84
1286 35.6600 3991.40 4073.72 63.18
1287 35.6800 4072.50 4079.04 63.82
1288 35.7000 3961.70 4085.44 62.94
1289 35.7200 4127.20 4093.15 64.24
1290 35.7400 3966.40 4102.49 62.98
1291 35.7600 4009.30 4113.86 63.32
1292 35.7800 4126.00 4127.79 64.23
1293 35.8000 4214.80 4144.99 64.92
1294 35.8200 4198.90 4166.47 64.80
1295 35.8400 4156.00 4193.62 64.47
1296 35.8600 4146.40 4228.48 64.39
1297 35.8800 4152.10 4274.10 64.44
1298 35.9000 4274.30 4335.52 65.38
1299 35.9200 4483.60 4422.08 66.96
1300 35.9400 4527.80 4553.61 67.29
1301 35.9600 4784.20 4772.33 69.17
1302 35.9800 5053.90 5158.03 71.09
1303 36.0000 5694.90 5831.92 75.46
1304 36.0200 6468.00 6883.55 80.42
1305 36.0400 7585.00 8248.65 87.09
1306 36.0600 8361.30 9463.92 91.44
1307 36.0800 8659.50 9764.93 93.06
1308 36.1000 8268.60 9077.23 90.93
1309 36.1200 7562.30 8298.35 86.96
1310 36.1400 7108.30 7902.05 84.31
1311 36.1600 7091.20 7642.43 84.21
1312 36.1800 6556.50 7069.23 80.97
1313 36.2000 5869.70 6238.00 76.61
1314 36.2200 5193.70 5495.88 72.07
1315 36.2400 4918.90 4978.15 70.13
1316 36.2600 4603.50 4658.64 67.85
1317 36.2800 4350.20 4470.90 65.96
1318 36.3000 4239.00 4357.57 65.11
1319 36.3200 4124.20 4283.48 64.22
1320 36.3400 4158.50 4231.09 64.49
1321 36.3600 4156.00 4192.13 64.47
1322 36.3800 4064.10 4168.97 63.75
1323 36.4000 4158.40 4146.29 64.49
1324 36.4200 4028.00 4128.78 63.47
1325 36.4400 4045.50 4115.42 63.60
1326 36.4600 4065.90 4120.21 63.76
1327 36.4800 4018.60 4114.09 63.39
1328 36.5000 4117.30 4110.81 64.17
1329 36.5200 4062.50 4110.30 63.74
1330 36.5400 4017.30 4112.70 63.38
1331 36.5600 3894.00 4118.30 62.40
1332 36.5800 3977.40 4127.68 63.07
1333 36.6000 4032.50 4141.76 63.50
1334 36.6200 4039.20 4162.09 63.55
1335 36.6400 4035.60 4191.43 63.53
1336 36.6600 4134.50 4235.35 64.30
1337 36.6800 4100.50 4305.71 64.04
1338 36.7000 4131.90 4425.99 64.28
1339 36.7200 4329.10 4634.12 65.80
1340 36.7400 4808.70 4973.04 69.34
1341 36.7600 5261.80 5453.68 72.54
1342 36.7800 5943.80 5979.74 77.10
1343 36.8000 6392.50 6302.88 79.95
1344 36.8200 6347.20 6246.62 79.67
1345 36.8400 6034.30 6052.53 77.68
1346 36.8600 6044.20 6024.15 77.74
1347 36.8800 6439.90 6156.76 80.25
1348 36.9000 6863.20 6244.07 82.84
1349 36.9200 6722.40 6047.43 81.99
1350 36.9400 6265.90 5657.22 79.16
1351 36.9600 5625.90 5314.52 75.01
1352 36.9800 5400.10 5117.33 73.49
1353 37.0000 5419.70 5030.88 73.62
1354 37.0200 5272.80 4952.64 72.61
1355 37.0400 5195.50 4871.55 72.08
1356 37.0600 5247.90 4852.55 72.44
1357 37.0800 5099.90 4964.24 71.41
1358 37.1000 5378.00 5279.68 73.33
1359 37.1200 5880.40 5892.38 76.68
1360 37.1400 6784.50 6875.49 82.37
1361 37.1600 8146.10 8123.07 90.26
1362 37.1800 8814.50 9175.72 93.89
1363 37.2000 8962.70 9344.75 94.67
1364 37.2200 8355.00 8660.08 91.41
1365 37.2400 7810.50 7940.54 88.38
1366 37.2600 7206.40 7586.80 84.89
1367 37.2800 7328.80 7374.40 85.61
1368 37.3000 6803.10 6886.69 82.48
1369 37.3200 6170.60 6132.15 78.55
1370 37.3400 5450.70 5432.02 73.83
1371 37.3600 4962.80 4932.81 70.45
1372 37.3800 4692.80 4618.83 68.50
1373 37.4000 4427.60 4429.21 66.54
1374 37.4200 4353.30 4314.85 65.98
1375 37.4400 4187.40 4241.26 64.71
1376 37.4600 4158.10 4190.38 64.48
1377 37.4800 4153.30 4153.66 64.45
1378 37.5000 4105.00 4126.85 64.07
1379 37.5200 4087.70 4107.65 63.94
1380 37.5400 4062.00 4094.75 63.73
1381 37.5600 4156.50 4087.49 64.47
1382 37.5800 4119.40 4085.79 64.18
1383 37.6000 3965.30 4090.23 62.97
1384 37.6200 3962.90 4097.51 62.95
1385 37.6400 4069.10 4122.10 63.79
1386 37.6600 4065.70 4167.05 63.76
1387 37.6800 4129.60 4246.57 64.26
1388 37.7000 4210.30 4378.34 64.89
1389 37.7200 4458.70 4570.72 66.77
1390 37.7400 4635.70 4805.57 68.09
1391 37.7600 4721.30 5007.53 68.71
1392 37.7800 4896.10 5095.93 69.97
1393 37.8000 4973.80 5145.86 70.53
1394 37.8200 5003.30 5309.57 70.73
1395 37.8400 5470.10 5620.29 73.96
1396 37.8600 5857.00 5929.45 76.53
1397 37.8800 5994.50 5985.62 77.42
1398 37.9000 5774.60 5745.20 75.99
1399 37.9200 5380.90 5468.55 73.35
1400 37.9400 5253.40 5336.79 72.48
1401 37.9600 5238.10 5320.96 72.37
1402 37.9800 5268.20 5276.21 72.58
1403 38.0000 4983.60 5137.77 70.59
1404 38.0200 4808.00 5012.35 69.34
1405 38.0400 4848.20 5053.82 69.63
1406 38.0600 5069.60 5293.57 71.20
1407 38.0800 5300.40 5689.11 72.80
1408 38.1000 5681.30 6079.80 75.37
1409 38.1200 5789.40 6234.01 76.09
1410 38.1400 5657.00 6048.46 75.21
1411 38.1600 5210.60 5713.58 72.18
1412 38.1800 5001.20 5479.15 70.72
1413 38.2000 5020.90 5355.01 70.86
1414 38.2200 5000.60 5213.03 70.71
1415 38.2400 4779.00 4955.31 69.13
1416 38.2600 4507.60 4647.86 67.14
1417 38.2800 4323.40 4392.02 65.75
1418 38.3000 4059.70 4214.91 63.72
1419 38.3200 3999.00 4102.94 63.24
1420 38.3400 3957.60 4034.04 62.91
1421 38.3600 3974.80 3990.02 63.05
1422 38.3800 4009.90 3959.71 63.32
1423 38.4000 3811.60 3945.20 61.74
1424 38.4200 3828.30 3928.29 61.87
1425 38.4400 3838.60 3914.98 61.96
1426 38.4600 3863.90 3904.37 62.16
1427 38.4800 3883.70 3895.87 62.32
1428 38.5000 3904.70 3911.66 62.49
1429 38.5200 3841.90 3907.51 61.98
1430 38.5400 3848.50 3904.72 62.04
1431 38.5600 3907.10 3903.19 62.51
1432 38.5800 3793.10 3902.87 61.59
1433 38.6000 3925.70 3901.73 62.66
1434 38.6200 3885.50 3904.05 62.33
1435 38.6400 3829.70 3907.81 61.88
1436 38.6600 3896.30 3913.23 62.42
1437 38.6800 3869.10 3920.65 62.20
1438 38.7000 3992.50 3925.76 63.19
1439 38.7200 3906.40 3939.06 62.50
1440 38.7400 3872.60 3956.68 62.23
1441 38.7600 3962.00 3980.63 62.94
1442 38.7800 4044.70 4014.87 63.60
1443 38.8000 4054.50 4065.74 63.67
1444 38.8200 4243.00 4152.08 65.14
1445 38.8400 4456.30 4297.41 66.76
1446 38.8600 4623.30 4528.25 67.99
1447 38.8800 5088.10 4852.91 71.33
1448 38.9000 5514.10 5214.32 74.26
1449 38.9200 5941.00 5449.06 77.08
1450 38.9400 5904.80 5410.19 76.84
1451 38.9600 5637.40 5209.86 75.08
1452 38.9800 5424.20 5065.81 73.65
1453 39.0000 5330.00 5029.57 73.01
1454 39.0200 5439.80 5020.11 73.75
1455 39.0400 5436.40 4935.10 73.73
1456 39.0600 5327.80 4799.77 72.99
1457 39.0800 5047.20 4711.75 71.04
1458 39.1000 5106.00 4720.62 71.46
1459 39.1200 5382.30 4860.37 73.36
1460 39.1400 5752.60 5188.58 75.85
1461 39.1600 6368.80 5805.43 79.80
1462 39.1800 7305.80 6830.37 85.47
1463 39.2000 8767.10 8306.15 93.63
1464 39.2200 10399.60 9982.58 101.98
1465 39.2400 11529.40 11102.70 107.38
1466 39.2600 11132.70 10913.00 105.51
1467 39.2800 10196.30 9870.02 100.98
1468 39.3000 9368.40 8997.02 96.79
1469 39.3200 9028.30 8622.82 95.02
1470 39.3400 8655.30 8394.12 93.03
1471 39.3600 8111.80 7777.91 90.07
1472 39.3800 7089.80 6799.16 84.20
1473 39.4000 6202.30 5868.99 78.75
1474 39.4200 5376.70 5181.16 73.33
1475 39.4400 5128.30 4732.39 71.61
1476 39.4600 4730.80 4456.65 68.78
1477 39.4800 4397.60 4286.69 66.31
1478 39.5000 4284.60 4175.49 65.46
1479 39.5200 4216.50 4096.88 64.93
1480 39.5400 4105.20 4037.78 64.07
1481 39.5600 4102.60 3991.58 64.05
1482 39.5800 3947.40 3954.52 62.83
1483 39.6000 3943.00 3924.24 62.79
1484 39.6200 3922.80 3899.08 62.63
1485 39.6400 3869.50 3877.90 62.21
1486 39.6600 3848.10 3859.85 62.03
1487 39.6800 3833.40 3844.33 61.91
1488 39.7000 3850.20 3830.80 62.05
1489 39.7200 3803.70 3818.90 61.67
1490 39.7400 3840.90 3808.37 61.97
1491 39.7600 3890.60 3798.97 62.37
1492 39.7800 3821.40 3788.68 61.82
1493 39.8000 3812.60 3781.28 61.75
1494 39.8200 3714.80 3774.58 60.95
1495 39.8400 3791.20 3768.46 61.57
1496 39.8600 3805.40 3762.85 61.69
1497 39.8800 3791.90 3758.44 61.58
1498 39.9000 3819.50 3753.87 61.80
1499 39.9200 3747.90 3749.65 61.22
1500 39.9400 3744.70 3745.74 61.19
1501 39.9600 3806.20 3742.11 61.69
1502 39.9800 3751.40 3738.73 61.25
1503 40.0000 3759.30 3735.59 61.31
1504 40.0200 3753.70 3732.66 61.27
1505 40.0400 3740.80 3729.93 61.16
1506 40.0600 3758.70 3727.39 61.31
1507 40.0800 3801.50 3725.03 61.66
1508 40.1000 3755.20 3705.06 61.28
1509 40.1200 3715.30 3703.85 60.95
1510 40.1400 3664.20 3702.77 60.53
1511 40.1600 3728.80 3701.82 61.06
1512 40.1800 3662.10 3701.01 60.52
1513 40.2000 3767.30 3691.52 61.38
1514 40.2200 3793.50 3691.46 61.59
1515 40.2400 3651.80 3691.57 60.43
1516 40.2600 3730.70 3691.89 61.08
1517 40.2800 3717.10 3692.48 60.97
1518 40.3000 3724.30 3693.39 61.03
1519 40.3200 3701.90 3694.70 60.84
1520 40.3400 3634.80 3696.50 60.29
1521 40.3600 3657.20 3698.94 60.47
1522 40.3800 3718.00 3702.21 60.98
1523 40.4000 3657.90 3706.58 60.48
1524 40.4200 3705.90 3712.48 60.88
1525 40.4400 3733.70 3720.55 61.10
1526 40.4600 3787.70 3731.80 61.54
1527 40.4800 3776.10 3747.87 61.45
1528 40.5000 3828.50 3771.39 61.87
1529 40.5200 3815.20 3807.05 61.77
1530 40.5400 3888.00 3863.10 62.35
1531 40.5600 3927.20 3953.45 62.67
1532 40.5800 4060.30 4099.16 63.72
1533 40.6000 4291.70 4305.40 65.51
1534 40.6200 4445.50 4545.38 66.67
1535 40.6400 4699.10 4718.85 68.55
1536 40.6600 4699.40 4715.13 68.55
1537 40.6800 4477.20 4568.66 66.91
1538 40.7000 4345.10 4429.53 65.92
1539 40.7200 4329.30 4363.07 65.80
1540 40.7400 4349.20 4337.18 65.95
1541 40.7600 4334.00 4275.85 65.83
1542 40.7800 4152.50 4147.80 64.44
1543 40.8000 4075.60 4007.84 63.84
1544 40.8200 3903.30 3896.22 62.48
1545 40.8400 3942.70 3819.68 62.79
1546 40.8600 3827.80 3777.21 61.87
1547 40.8800 3817.40 3747.63 61.79
1548 40.9000 3731.30 3734.05 61.08
1549 40.9200 3660.40 3721.72 60.50
1550 40.9400 3726.10 3713.06 61.04
1551 40.9600 3702.50 3706.83 60.85
1552 40.9800 3688.40 3702.40 60.73
1553 41.0000 3752.20 3720.00 61.26
1554 41.0200 3792.30 3719.19 61.58
1555 41.0400 3760.10 3719.51 61.32
1556 41.0600 3815.00 3724.92 61.77
1557 41.0800 3702.50 3727.58 60.85
1558 41.1000 3651.00 3731.39 60.42
1559 41.1200 3739.00 3736.46 61.15
1560 41.1400 3676.60 3742.96 60.63
1561 41.1600 3724.10 3751.14 61.03
1562 41.1800 3720.50 3761.38 61.00
1563 41.2000 3779.90 3774.23 61.48
1564 41.2200 3839.50 3790.51 61.96
1565 41.2400 3924.90 3811.59 62.65
1566 41.2600 3848.30 3839.67 62.03
1567 41.2800 3893.20 3878.65 62.40
1568 41.3000 3995.90 3935.28 63.21
1569 41.3200 4057.80 4020.91 63.70
1570 41.3400 4213.20 4153.67 64.91
1571 41.3600 4335.10 4348.37 65.84
1572 41.3800 4705.20 4622.02 68.59
1573 41.4000 5185.90 4963.90 72.01
1574 41.4200 5759.70 5281.14 75.89
1575 41.4400 6026.90 5411.27 77.63
1576 41.4600 5899.30 5299.98 76.81
1577 41.4800 5531.80 5134.97 74.38
1578 41.5000 5257.20 5071.04 72.51
1579 41.5200 5330.10 5136.13 73.01
1580 41.5400 5378.90 5261.45 73.34
1581 41.5600 5568.70 5396.27 74.62
1582 41.5800 5615.70 5599.91 74.94
1583 41.6000 5855.60 5934.71 76.52
1584 41.6200 6030.60 6310.97 77.66
1585 41.6400 6257.50 6507.01 79.10
1586 41.6600 6218.60 6434.47 78.86
1587 41.6800 6239.40 6361.63 78.99
1588 41.7000 6424.30 6565.58 80.15
1589 41.7200 6822.10 7152.51 82.60
1590 41.7400 7504.60 8087.83 86.63
1591 41.7600 8832.70 9143.87 93.98
1592 41.7800 9542.30 10054.30 97.68
1593 41.8000 10080.60 10492.40 100.40
1594 41.8200 10421.80 10477.60 102.09
1595 41.8400 10350.60 10204.50 101.74
1596 41.8600 9636.30 9689.53 98.16
1597 41.8800 8602.50 9099.66 92.75
1598 41.9000 7932.60 8535.11 89.07
1599 41.9200 7464.10 7943.02 86.39
1600 41.9400 7099.00 7345.08 84.26
1601 41.9600 6574.90 6692.85 81.09
1602 41.9800 5797.60 5991.03 76.14
1603 42.0000 5194.50 5382.41 72.07
1604 42.0200 4723.20 4941.88 68.73
1605 42.0400 4340.10 4656.47 65.88
1606 42.0600 4260.90 4486.98 65.28
1607 42.0800 4270.80 4398.28 65.35
1608 42.1000 4189.40 4369.22 64.73
1609 42.1200 4126.30 4395.38 64.24
1610 42.1400 4270.00 4488.00 65.35
1611 42.1600 4426.60 4669.68 66.53
1612 42.1800 4795.80 4963.88 69.25
1613 42.2000 5205.70 5371.25 72.15
1614 42.2200 5754.00 5824.31 75.86
1615 42.2400 6101.20 6185.88 78.11
1616 42.2600 6568.30 6421.86 81.05
1617 42.2800 6862.10 6660.40 82.84
1618 42.3000 7227.80 6896.00 85.02
1619 42.3200 7432.30 6932.06 86.21
1620 42.3400 7170.90 6717.55 84.68
1621 42.3600 6747.40 6409.45 82.14
1622 42.3800 6355.20 6186.98 79.72
1623 42.4000 6406.60 6137.83 80.04
1624 42.4200 6566.60 6223.40 81.03
1625 42.4400 6671.90 6421.69 81.68
1626 42.4600 6778.00 6878.69 82.33
1627 42.4800 7253.00 7750.71 85.16
1628 42.5000 8110.70 9001.18 90.06
1629 42.5200 8938.80 10209.40 94.55
1630 42.5400 9377.00 10622.00 96.83
1631 42.5600 8628.90 9963.85 92.89
1632 42.5800 8006.40 8954.66 89.48
1633 42.6000 7371.00 8274.96 85.85
1634 42.6200 7209.30 8029.00 84.91
1635 42.6400 7113.40 7874.07 84.34
1636 42.6600 6651.90 7374.54 81.56
1637 42.6800 6031.40 6530.16 77.66
1638 42.7000 5287.00 5699.04 72.71
1639 42.7200 4800.80 5054.10 69.29
1640 42.7400 4323.30 4604.08 65.75
1641 42.7600 4224.20 4320.11 64.99
1642 42.7800 4029.20 4139.88 63.48
1643 42.8000 3945.20 4016.06 62.81
1644 42.8200 3822.00 3932.47 61.82
1645 42.8400 3731.10 3865.82 61.08
1646 42.8600 3860.20 3816.96 62.13
1647 42.8800 3837.20 3777.63 61.95
1648 42.9000 3689.20 3745.37 60.74
1649 42.9200 3626.20 3718.47 60.22
1650 42.9400 3501.20 3695.76 59.17
1651 42.9600 3689.80 3676.35 60.74
1652 42.9800 3531.40 3659.59 59.43
1653 43.0000 3581.10 3644.98 59.84
1654 43.0200 3570.10 3632.14 59.75
1655 43.0400 3548.70 3620.77 59.57
1656 43.0600 3596.50 3610.62 59.97
1657 43.0800 3636.00 3601.50 60.30
1658 43.1000 3590.10 3593.27 59.92
1659 43.1200 3569.50 3585.79 59.75
1660 43.1400 3530.60 3575.30 59.42
1661 43.1600 3630.80 3569.20 60.26
1662 43.1800 3520.20 3563.57 59.33
1663 43.2000 3571.00 3558.36 59.76
1664 43.2200 3524.90 3548.71 59.37
1665 43.2400 3491.40 3542.55 59.09
1666 43.2600 3539.00 3538.60 59.49
1667 43.2800 3520.30 3534.90 59.33
1668 43.3000 3468.10 3531.40 58.89
1669 43.3200 3533.90 3525.67 59.45
1670 43.3400 3541.30 3522.64 59.51
1671 43.3600 3555.00 3519.77 59.62
1672 43.3800 3426.40 3517.03 58.54
1673 43.4000 3530.60 3514.41 59.42
1674 43.4200 3598.00 3511.90 59.98
1675 43.4400 3540.90 3492.71 59.51
1676 43.4600 3377.50 3491.10 58.12
1677 43.4800 3488.40 3489.54 59.06
1678 43.5000 3480.70 3488.01 59.00
1679 43.5200 3556.30 3486.51 59.63
1680 43.5400 3495.00 3485.04 59.12
1681 43.5600 3464.00 3475.46 58.86
1682 43.5800 3578.40 3474.39 59.82
1683 43.6000 3510.30 3473.32 59.25
1684 43.6200 3499.50 3472.25 59.16
1685 43.6400 3518.80 3471.18 59.32
1686 43.6600 3479.30 3470.12 58.99
1687 43.6800 3489.60 3469.05 59.07
1688 43.7000 3405.10 3467.99 58.35
1689 43.7200 3447.70 3466.93 58.72
1690 43.7400 3377.10 3465.87 58.11
1691 43.7600 3499.60 3464.82 59.16
1692 43.7800 3469.90 3463.76 58.91
1693 43.8000 3535.30 3462.71 59.46
1694 43.8200 3480.30 3461.66 58.99
1695 43.8400 3498.20 3462.16 59.15
1696 43.8600 3634.70 3461.18 60.29
1697 43.8800 3512.50 3460.21 59.27
1698 43.9000 3471.90 3459.24 58.92
1699 43.9200 3466.50 3458.29 58.88
1700 43.9400 3517.10 3457.34 59.31
1701 43.9600 3457.60 3460.51 58.80
1702 43.9800 3503.80 3459.77 59.19
1703 44.0000 3472.90 3459.05 58.93
1704 44.0200 3465.90 3458.36 58.87
1705 44.0400 3472.50 3460.56 58.93
1706 44.0600 3436.80 3460.07 58.62
1707 44.0800 3555.20 3459.62 59.63
1708 44.1000 3458.40 3459.22 58.81
1709 44.1200 3530.80 3460.96 59.42
1710 44.1400 3562.80 3460.77 59.69
1711 44.1600 3487.80 3460.66 59.06
1712 44.1800 3438.40 3460.64 58.64
1713 44.2000 3514.30 3460.71 59.28
1714 44.2200 3458.00 3460.88 58.80
1715 44.2400 3470.90 3461.18 58.91
1716 44.2600 3524.30 3461.61 59.37
1717 44.2800 3445.60 3462.20 58.70
1718 44.3000 3504.90 3462.97 59.20
1719 44.3200 3436.50 3463.95 58.62
1720 44.3400 3438.80 3465.17 58.64
1721 44.3600 3430.30 3466.67 58.57
1722 44.3800 3469.40 3468.51 58.90
1723 44.4000 3432.10 3470.74 58.58
1724 44.4200 3519.50 3473.44 59.33
1725 44.4400 3469.30 3476.72 58.90
1726 44.4600 3412.00 3480.69 58.41
1727 44.4800 3496.60 3485.52 59.13
1728 44.5000 3504.50 3491.41 59.20
1729 44.5200 3557.30 3498.67 59.64
1730 44.5400 3435.50 3507.66 58.61
1731 44.5600 3413.70 3518.95 58.43
1732 44.5800 3544.90 3533.33 59.54
1733 44.6000 3527.70 3552.11 59.39
1734 44.6200 3588.10 3577.61 59.90
1735 44.6400 3529.00 3614.19 59.41
1736 44.6600 3614.50 3669.89 60.12
1737 44.6800 3827.70 3757.74 61.87
1738 44.7000 4015.70 3895.27 63.37
1739 44.7200 4192.50 4099.46 64.75
1740 44.7400 4472.60 4373.47 66.88
1741 44.7600 4824.10 4677.47 69.46
1742 44.7800 5119.30 4905.12 71.55
1743 44.8000 5328.90 4970.16 73.00
1744 44.8200 5346.20 4942.69 73.12
1745 44.8400 5437.40 4933.49 73.74
1746 44.8600 5476.10 4954.85 74.00
1747 44.8800 5319.70 4981.90 72.94
1748 44.9000 5564.50 5001.60 74.60
1749 44.9200 5562.00 4996.66 74.58
1750 44.9400 5503.00 4948.10 74.18
1751 44.9600 5260.80 4820.49 72.53
1752 44.9800 5140.40 4606.30 71.70
1753 45.0000 4766.40 4377.00 69.04
1754 45.0200 4505.30 4203.35 67.12
1755 45.0400 4255.10 4106.25 65.23
1756 45.0600 4221.20 4036.70 64.97
1757 45.0800 4203.50 3950.92 64.83
1758 45.1000 3904.50 3841.45 62.49
1759 45.1200 3952.60 3738.63 62.87
1760 45.1400 3750.10 3657.18 61.24
1761 45.1600 3695.80 3597.79 60.79
1762 45.1800 3571.60 3557.31 59.76
1763 45.2000 3506.40 3530.00 59.21
1764 45.2200 3549.30 3511.09 59.58
1765 45.2400 3573.60 3497.36 59.78
1766 45.2600 3539.70 3486.96 59.50
1767 45.2800 3521.80 3478.84 59.34
1768 45.3000 3423.40 3472.42 58.51
1769 45.3200 3453.60 3467.35 58.77
1770 45.3400 3394.30 3463.39 58.26
1771 45.3600 3440.60 3460.37 58.66
1772 45.3800 3500.20 3458.20 59.16
1773 45.4000 3561.90 3456.78 59.68
1774 45.4200 3386.80 3456.11 58.20
1775 45.4400 3405.20 3456.15 58.35
1776 45.4600 3372.30 3456.94 58.07
1777 45.4800 3454.70 3458.51 58.78
1778 45.5000 3436.40 3460.94 58.62
1779 45.5200 3505.90 3464.34 59.21
1780 45.5400 3461.60 3468.86 58.84
1781 45.5600 3475.70 3474.71 58.96
1782 45.5800 3379.30 3482.90 58.13
1783 45.6000 3516.20 3492.39 59.30
1784 45.6200 3626.40 3504.42 60.22
1785 45.6400 3557.30 3519.75 59.64
1786 45.6600 3544.00 3539.53 59.53
1787 45.6800 3514.10 3565.64 59.28
1788 45.7000 3661.10 3602.93 60.51
1789 45.7200 3796.80 3651.77 61.62
1790 45.7400 3826.40 3731.33 61.86
1791 45.7600 3915.60 3856.69 62.57
1792 45.7800 4192.40 4051.64 64.75
1793 45.8000 4510.60 4336.79 67.16
1794 45.8200 4793.20 4716.37 69.23
1795 45.8400 5375.00 5129.14 73.31
1796 45.8600 5678.10 5425.43 75.35
1797 45.8800 5647.30 5474.86 75.15
1798 45.9000 5542.70 5379.93 74.45
1799 45.9200 5300.20 5351.04 72.80
1800 45.9400 5360.40 5464.25 73.21
1801 45.9600 5467.80 5630.33 73.94
1802 45.9800 5456.90 5660.29 73.87
1803 46.0000 5358.10 5440.12 73.20
1804 46.0200 4934.00 5077.03 70.24
1805 46.0400 4593.60 4752.05 67.78
1806 46.0600 4336.00 4535.76 65.85
1807 46.0800 4237.50 4397.94 65.10
1808 46.1000 4169.10 4271.41 64.57
1809 46.1200 3949.10 4113.53 62.84
1810 46.1400 3832.10 3945.02 61.90
1811 46.1600 3674.10 3799.68 60.61
1812 46.1800 3648.60 3690.32 60.40
1813 46.2000 3606.30 3613.98 60.05
1814 46.2200 3550.40 3562.57 59.59
1815 46.2400 3534.40 3528.08 59.45
1816 46.2600 3500.60 3504.43 59.17
1817 46.2800 3503.00 3487.80 59.19
1818 46.3000 3543.90 3476.06 59.53
1819 46.3200 3402.40 3468.17 58.33
1820 46.3400 3514.80 3463.73 59.29
1821 46.3600 3485.00 3465.99 59.03
1822 46.3800 3532.50 3469.94 59.43
1823 46.4000 3493.90 3480.65 59.11
1824 46.4200 3547.80 3502.02 59.56
1825 46.4400 3450.30 3539.67 58.74
1826 46.4600 3560.20 3599.73 59.67
1827 46.4800 3633.30 3693.04 60.28
1828 46.5000 3800.80 3796.05 61.65
1829 46.5200 3891.60 3883.81 62.38
1830 46.5400 4007.40 3906.57 63.30
1831 46.5600 3883.60 3856.18 62.32
1832 46.5800 3782.10 3783.36 61.50
1833 46.6000 3694.50 3732.33 60.78
1834 46.6200 3654.40 3716.30 60.45
1835 46.6400 3712.20 3714.46 60.93
1836 46.6600 3687.10 3698.23 60.72
1837 46.6800 3605.20 3652.67 60.04
1838 46.7000 3629.70 3594.98 60.25
1839 46.7200 3538.30 3544.99 59.48
1840 46.7400 3544.80 3509.72 59.54
1841 46.7600 3470.80 3495.88 58.91
1842 46.7800 3453.60 3487.66 58.77
1843 46.8000 3484.00 3490.09 59.03
1844 46.8200 3571.00 3498.97 59.76
1845 46.8400 3437.00 3527.08 58.63
1846 46.8600 3461.30 3575.27 58.83
1847 46.8800 3528.00 3649.78 59.40
1848 46.9000 3535.50 3752.76 59.46
1849 46.9200 3661.80 3871.05 60.51
1850 46.9400 3773.50 3963.33 61.43
1851 46.9600 3730.20 3983.03 61.08
1852 46.9800 3721.90 3926.51 61.01
1853 47.0000 3648.10 3853.09 60.40
1854 47.0200 3705.50 3807.86 60.87
1855 47.0400 3620.70 3798.95 60.17
1856 47.0600 3725.10 3808.65 61.03
1857 47.0800 3700.80 3801.51 60.83
1858 47.1000 3717.80 3765.83 60.97
1859 47.1200 3614.30 3722.11 60.12
1860 47.1400 3684.60 3693.41 60.70
1861 47.1600 3685.50 3690.17 60.71
1862 47.1800 3725.20 3718.03 61.03
1863 47.2000 3780.20 3785.66 61.48
1864 47.2200 3977.40 3909.59 63.07
1865 47.2400 4139.30 4115.06 64.34
1866 47.2600 4485.50 4429.78 66.97
1867 47.2800 4967.70 4866.82 70.48
1868 47.3000 5637.60 5385.52 75.08
1869 47.3200 6242.20 5829.35 79.01
1870 47.3400 6698.30 5959.16 81.84
1871 47.3600 6348.50 5732.74 79.68
1872 47.3800 5845.90 5391.52 76.46
1873 47.4000 5425.20 5153.05 73.66
1874 47.4200 5315.00 5078.07 72.90
1875 47.4400 5418.40 5103.79 73.61
1876 47.4600 5474.00 5089.95 73.99
1877 47.4800 5314.00 4957.63 72.90
1878 47.5000 5126.60 4792.07 71.60
1879 47.5200 4732.70 4721.88 68.79
1880 47.5400 4712.60 4809.89 68.65
1881 47.5600 4830.80 5060.25 69.50
1882 47.5800 5045.40 5404.30 71.03
1883 47.6000 5223.10 5663.73 72.27
1884 47.6200 5295.10 5637.81 72.77
1885 47.6400 4945.10 5354.41 70.32
1886 47.6600 4653.50 5035.09 68.22
1887 47.6800 4644.60 4828.36 68.15
1888 47.7000 4444.90 4754.50 66.67
1889 47.7200 4468.10 4736.12 66.84
1890 47.7400 4468.00 4644.91 66.84
1891 47.7600 4318.50 4431.58 65.72
1892 47.7800 4061.20 4171.74 63.73
1893 47.8000 3862.10 3943.25 62.15
1894 47.8200 3756.50 3770.02 61.29
1895 47.8400 3679.80 3649.28 60.66
1896 47.8600 3505.60 3568.39 59.21
1897 47.8800 3502.60 3514.19 59.18
1898 47.9000 3463.30 3476.51 58.85
1899 47.9200 3463.70 3450.99 58.85
1900 47.9400 3360.90 3428.28 57.97
1901 47.9600 3401.50 3411.28 58.32
1902 47.9800 3396.40 3399.25 58.28
1903 48.0000 3360.70 3387.66 57.97
1904 48.0200 3418.70 3377.88 58.47
1905 48.0400 3419.30 3369.51 58.47
1906 48.0600 3336.40 3361.58 57.76
1907 48.0800 3298.60 3355.34 57.43
1908 48.1000 3378.00 3349.88 58.12
1909 48.1200 3432.60 3345.07 58.59
1910 48.1400 3439.10 3340.83 58.64
1911 48.1600 3358.00 3337.08 57.95
1912 48.1800 3300.50 3333.75 57.45
1913 48.2000 3318.60 3330.79 57.61
1914 48.2200 3305.10 3328.17 57.49
1915 48.2400 3286.20 3325.86 57.33
1916 48.2600 3346.80 3323.83 57.85
1917 48.2800 3329.90 3322.07 57.71
1918 48.3000 3357.20 3320.57 57.94
1919 48.3200 3415.20 3312.89 58.44
1920 48.3400 3331.10 3312.14 57.72
1921 48.3600 3356.60 3311.63 57.94
1922 48.3800 3327.50 3311.38 57.68
1923 48.4000 3384.70 3311.40 58.18
1924 48.4200 3320.50 3311.72 57.62
1925 48.4400 3364.20 3309.17 58.00
1926 48.4600 3388.20 3310.34 58.21
1927 48.4800 3401.00 3311.97 58.32
1928 48.5000 3391.60 3314.13 58.24
1929 48.5200 3247.90 3316.96 56.99
1930 48.5400 3245.90 3320.60 56.97
1931 48.5600 3242.50 3325.30 56.94
1932 48.5800 3345.40 3331.38 57.84
1933 48.6000 3433.00 3333.82 58.59
1934 48.6200 3345.70 3344.73 57.84
1935 48.6400 3407.80 3359.85 58.38
1936 48.6600 3419.40 3383.10 58.48
1937 48.6800 3410.00 3416.20 58.40
1938 48.7000 3552.70 3466.48 59.60
1939 48.7200 3609.40 3538.49 60.08
1940 48.7400 3626.20 3643.98 60.22
1941 48.7600 3892.00 3778.84 62.39
1942 48.7800 4098.40 3922.90 64.02
1943 48.8000 4176.60 4042.55 64.63
1944 48.8200 4250.60 4120.60 65.20
1945 48.8400 4229.00 4172.25 65.03
1946 48.8600 4243.50 4184.42 65.14
1947 48.8800 4228.60 4135.08 65.03
1948 48.9000 4179.40 4051.97 64.65
1949 48.9200 4026.10 3970.65 63.45
1950 48.9400 4013.80 3902.36 63.35
1951 48.9600 3932.00 3844.13 62.71
1952 48.9800 3876.00 3792.38 62.26
1953 49.0000 3771.80 3724.02 61.42
1954 49.0200 3661.90 3634.97 60.51
1955 49.0400 3557.80 3546.47 59.65
1956 49.0600 3552.60 3474.41 59.60
1957 49.0800 3531.70 3421.72 59.43
1958 49.1000 3436.60 3385.39 58.62
1959 49.1200 3346.90 3361.03 57.85
1960 49.1400 3315.30 3344.66 57.58
1961 49.1600 3241.80 3333.39 56.94
1962 49.1800 3288.20 3325.35 57.34
1963 49.2000 3308.60 3319.48 57.52
1964 49.2200 3380.10 3315.18 58.14
1965 49.2400 3287.00 3312.11 57.33
1966 49.2600 3424.80 3310.06 58.52
1967 49.2800 3377.00 3308.91 58.11
1968 49.3000 3426.10 3308.58 58.53
1969 49.3200 3410.10 3309.07 58.40
1970 49.3400 3295.70 3310.37 57.41
1971 49.3600 3470.30 3312.56 58.91
1972 49.3800 3328.70 3315.79 57.69
1973 49.4000 3325.80 3320.10 57.67
1974 49.4200 3312.50 3325.79 57.55
1975 49.4400 3284.10 3333.19 57.31
1976 49.4600 3415.10 3342.80 58.44
1977 49.4800 3379.80 3355.47 58.14
1978 49.5000 3359.30 3372.82 57.96
1979 49.5200 3439.90 3397.06 58.65
1980 49.5400 3544.80 3436.46 59.54
1981 49.5600 3501.50 3491.28 59.17
1982 49.5800 3581.60 3581.06 59.85
1983 49.6000 3690.90 3702.83 60.75
1984 49.6200 3769.90 3867.54 61.40
1985 49.6400 3988.70 4062.75 63.16
1986 49.6600 4336.50 4238.71 65.85
1987 49.6800 4201.90 4317.03 64.82
1988 49.7000 4280.80 4279.54 65.43
1989 49.7200 4198.40 4214.04 64.80
1990 49.7400 4054.60 4200.21 63.68
1991 49.7600 4089.40 4281.46 63.95
1992 49.7800 4143.10 4448.99 64.37
1993 49.8000 4417.00 4639.96 66.46
1994 49.8200 4507.50 4749.00 67.14
1995 49.8400 4430.90 4693.14 66.57
1996 49.8600 4271.40 4496.23 65.36
1997 49.8800 4036.40 4271.58 63.53
1998 49.9000 3848.70 4105.69 62.04
1999 49.9200 3882.10 4018.68 62.31
2000 49.9400 3860.40 3987.85 62.13
2001 49.9600 3824.40 3960.83 61.84
2002 49.9800 3716.20 3888.23 60.96
2003 50.0000 3643.10 3775.44 60.36
2004 50.0200 3439.70 3661.92 58.65
2005 50.0400 3475.60 3569.52 58.95
2006 50.0600 3501.00 3502.58 59.17
2007 50.0800 3464.60 3457.70 58.86
2008 50.1000 3533.00 3429.34 59.44
2009 50.1200 3383.80 3412.37 58.17
2010 50.1400 3260.80 3403.07 57.10
2011 50.1600 3293.40 3399.54 57.39
2012 50.1800 3383.60 3399.99 58.17
2013 50.2000 3373.10 3404.34 58.08
2014 50.2200 3403.20 3412.66 58.34
2015 50.2400 3439.30 3425.44 58.65
2016 50.2600 3440.90 3443.66 58.66
2017 50.2800 3442.00 3473.05 58.67
2018 50.3000 3545.30 3508.99 59.54
2019 50.3200 3590.40 3560.77 59.92
2020 50.3400 3622.80 3637.67 60.19
2021 50.3600 3696.00 3754.00 60.79
2022 50.3800 3949.90 3928.60 62.85
2023 50.4000 4305.70 4180.82 65.62
2024 50.4200 4594.50 4527.85 67.78
2025 50.4400 5059.10 4941.69 71.13
2026 50.4600 5770.10 5349.26 75.96
2027 50.4800 6088.30 5586.21 78.03
2028 50.5000 5906.80 5524.82 76.86
2029 50.5200 5499.30 5261.56 74.16
2030 50.5400 5103.30 4998.97 71.44
2031 50.5600 4994.40 4850.71 70.67
2032 50.5800 4999.60 4829.72 70.71
2033 50.6000 4853.10 4877.68 69.66
2034 50.6200 4962.10 4894.17 70.44
2035 50.6400 4835.70 4834.44 69.54
2036 50.6600 4736.50 4771.47 68.82
2037 50.6800 4592.80 4797.18 67.77
2038 50.7000 4753.00 4938.00 68.94
2039 50.7200 5181.50 5147.01 71.98
2040 50.7400 5494.20 5281.36 74.12
2041 50.7600 5522.40 5204.79 74.31
2042 50.7800 4933.20 4957.19 70.24
2043 50.8000 4395.40 4695.54 66.30
2044 50.8200 4089.40 4521.58 63.95
2045 50.8400 4136.40 4452.54 64.31
2046 50.8600 4285.00 4444.03 65.46
2047 50.8800 4418.60 4410.00 66.47
2048 50.9000 4333.60 4282.64 65.83
2049 50.9200 4136.20 4092.20 64.31
2050 50.9400 3800.00 3905.04 61.64
2051 50.9600 3651.70 3755.27 60.43
2052 50.9800 3564.40 3648.52 59.70
2053 51.0000 3523.60 3577.59 59.36
2054 51.0200 3483.30 3536.43 59.02
2055 51.0400 3456.80 3516.41 58.79
2056 51.0600 3591.60 3513.31 59.93
2057 51.0800 3546.00 3526.19 59.55
2058 51.1000 3547.10 3556.64 59.56
2059 51.1200 3631.10 3607.53 60.26
2060 51.1400 3709.60 3681.06 60.91
2061 51.1600 3816.90 3775.27 61.78
2062 51.1800 3967.30 3879.41 62.99
2063 51.2000 4214.50 3982.48 64.92
2064 51.2200 4302.50 4101.89 65.59
2065 51.2400 4422.90 4283.36 66.50
2066 51.2600 4600.90 4561.73 67.83
2067 51.2800 4970.20 4930.22 70.50
2068 51.3000 5268.00 5304.99 72.58
2069 51.3200 5521.10 5509.84 74.30
2070 51.3400 5542.20 5415.58 74.45
2071 51.3600 5307.20 5120.45 72.85
2072 51.3800 5059.20 4821.64 71.13
2073 51.4000 4800.80 4630.13 69.29
2074 51.4200 4671.20 4559.32 68.35
2075 51.4400 4609.20 4550.90 67.89
2076 51.4600 4524.70 4498.60 67.27
2077 51.4800 4419.20 4336.87 66.48
2078 51.5000 4285.60 4109.69 65.46
2079 51.5200 4133.40 3884.97 64.29
2080 51.5400 3833.30 3708.96 61.91
2081 51.5600 3686.70 3580.07 60.72
2082 51.5800 3607.70 3490.56 60.06
2083 51.6000 3430.60 3429.68 58.57
2084 51.6200 3454.00 3387.65 58.77
2085 51.6400 3409.50 3357.65 58.39
2086 51.6600 3376.70 3332.35 58.11
2087 51.6800 3321.90 3314.78 57.64
2088 51.7000 3432.70 3300.57 58.59
2089 51.7200 3299.60 3288.83 57.44
2090 51.7400 3294.80 3278.97 57.40
2091 51.7600 3267.00 3270.59 57.16
2092 51.7800 3248.30 3258.73 56.99
2093 51.8000 3277.80 3252.64 57.25
2094 51.8200 3318.70 3247.33 57.61
2095 51.8400 3238.10 3242.65 56.90
2096 51.8600 3269.30 3238.50 57.18
2097 51.8800 3269.80 3234.79 57.18
2098 51.9000 3268.70 3231.47 57.17
2099 51.9200 3282.80 3226.18 57.30
2100 51.9400 3249.60 3223.53 57.01
2101 51.9600 3238.60 3221.12 56.91
2102 51.9800 3232.20 3218.91 56.85
2103 52.0000 3195.70 3216.88 56.53
2104 52.0200 3190.40 3215.00 56.48
2105 52.0400 3240.20 3213.84 56.92
2106 52.0600 3226.70 3212.24 56.80
2107 52.0800 3222.50 3210.75 56.77
2108 52.1000 3157.00 3209.36 56.19
2109 52.1200 3189.80 3208.06 56.48
2110 52.1400 3226.40 3206.83 56.80
2111 52.1600 3228.10 3205.68 56.82
2112 52.1800 3230.80 3205.77 56.84
2113 52.2000 3131.50 3204.79 55.96
2114 52.2200 3101.10 3203.86 55.69
2115 52.2400 3152.00 3202.20 56.14
2116 52.2600 3232.20 3201.40 56.85
2117 52.2800 3242.80 3200.65 56.95
2118 52.3000 3110.30 3199.94 55.77
2119 52.3200 3301.90 3199.27 57.46
2120 52.3400 3189.20 3198.90 56.47
2121 52.3600 3186.80 3198.32 56.45
2122 52.3800 3182.70 3192.06 56.42
2123 52.4000 3195.70 3191.75 56.53
2124 52.4200 3221.80 3191.47 56.76
2125 52.4400 3267.70 3191.21 57.16
2126 52.4600 3185.00 3190.98 56.44
2127 52.4800 3293.00 3193.07 57.38
2128 52.5000 3344.70 3193.00 57.83
2129 52.5200 3230.90 3190.34 56.84
2130 52.5400 3217.30 3190.44 56.72
2131 52.5600 3210.50 3190.58 56.66
2132 52.5800 3148.80 3190.77 56.11
2133 52.6000 3193.70 3191.01 56.51
2134 52.6200 3129.80 3191.31 55.94
2135 52.6400 3194.60 3191.69 56.52
2136 52.6600 3239.20 3192.14 56.91
2137 52.6800 3180.10 3192.68 56.39
2138 52.7000 3219.20 3193.33 56.74
2139 52.7200 3181.50 3194.11 56.40
2140 52.7400 3250.90 3195.04 57.02
2141 52.7600 3220.60 3196.96 56.75
2142 52.7800 3201.30 3198.33 56.58
2143 52.8000 3193.90 3199.96 56.51
2144 52.8200 3203.30 3201.93 56.60
2145 52.8400 3264.90 3204.31 57.14
2146 52.8600 3216.20 3207.23 56.71
2147 52.8800 3132.80 3210.84 55.97
2148 52.9000 3209.00 3217.34 56.65
2149 52.9200 3110.10 3223.32 55.77
2150 52.9400 3236.70 3231.70 56.89
2151 52.9600 3252.00 3243.00 57.03
2152 52.9800 3314.20 3259.56 57.57
2153 53.0000 3245.70 3284.32 56.97
2154 53.0200 3335.90 3320.90 57.76
2155 53.0400 3427.40 3372.62 58.54
2156 53.0600 3387.00 3440.42 58.20
2157 53.0800 3510.10 3519.58 59.25
2158 53.1000 3722.90 3586.41 61.02
2159 53.1200 3880.60 3611.13 62.29
2160 53.1400 3684.50 3585.80 60.70
2161 53.1600 3550.90 3535.93 59.59
2162 53.1800 3534.50 3494.13 59.45
2163 53.2000 3596.00 3474.64 59.97
2164 53.2200 3513.00 3477.50 59.27
2165 53.2400 3586.60 3491.88 59.89
2166 53.2600 3563.90 3500.53 59.70
2167 53.2800 3576.10 3495.81 59.80
2168 53.3000 3602.00 3491.07 60.02
2169 53.3200 3558.50 3504.66 59.65
2170 53.3400 3643.60 3546.68 60.36
2171 53.3600 3674.00 3616.82 60.61
2172 53.3800 3829.90 3699.86 61.89
2173 53.4000 3969.80 3759.52 63.01
2174 53.4200 3901.80 3759.65 62.46
2175 53.4400 3946.40 3705.38 62.82
2176 53.4600 3705.20 3631.42 60.87
2177 53.4800 3591.10 3576.74 59.93
2178 53.5000 3610.30 3552.16 60.09
2179 53.5200 3654.00 3551.86 60.45
2180 53.5400 3655.00 3555.99 60.46
2181 53.5600 3705.50 3539.90 60.87
2182 53.5800 3514.50 3497.96 59.28
2183 53.6000 3471.50 3446.71 58.92
2184 53.6200 3571.90 3402.07 59.77
2185 53.6400 3429.70 3370.43 58.56
2186 53.6600 3402.60 3352.75 58.33
2187 53.6800 3346.40 3348.52 57.85
2188 53.7000 3364.50 3357.86 58.00
2189 53.7200 3461.90 3382.57 58.84
2190 53.7400 3404.80 3426.25 58.35
2191 53.7600 3475.20 3493.25 58.95
2192 53.7800 3647.40 3586.16 60.39
2193 53.8000 3725.90 3700.27 61.04
2194 53.8200 3813.90 3813.39 61.76
2195 53.8400 4136.80 3881.34 64.32
2196 53.8600 4104.10 3872.32 64.06
2197 53.8800 4010.10 3811.41 63.33
2198 53.9000 3878.50 3751.69 62.28
2199 53.9200 3755.60 3727.49 61.28
2200 53.9400 3881.10 3749.83 62.30
2201 53.9600 3920.50 3812.38 62.61
2202 53.9800 4059.60 3892.11 63.72
2203 54.0000 4133.90 3959.39 64.30
2204 54.0200 4181.50 3998.01 64.66
2205 54.0400 4130.70 4005.55 64.27
2206 54.0600 4149.90 3990.61 64.42
2207 54.0800 4078.10 3963.71 63.86
2208 54.1000 4028.00 3920.77 63.47
2209 54.1200 3987.70 3865.15 63.15
2210 54.1400 3792.60 3815.42 61.58
2211 54.1600 3893.10 3786.62 62.39
2212 54.1800 3805.30 3774.53 61.69
2213 54.2000 3896.80 3772.20 62.42
2214 54.2200 3949.70 3783.97 62.85
2215 54.2400 3858.40 3810.80 62.12
2216 54.2600 3921.70 3861.91 62.62
2217 54.2800 4010.90 3955.83 63.33
2218 54.3000 4143.20 4119.60 64.37
2219 54.3200 4390.60 4363.53 66.26
2220 54.3400 4867.70 4667.88 69.77
2221 54.3600 5136.70 4961.23 71.67
2222 54.3800 5240.00 5114.02 72.39
2223 54.4000 5184.00 5038.43 72.00
2224 54.4200 4883.70 4806.40 69.88
2225 54.4400 4633.10 4564.23 68.07
2226 54.4600 4390.60 4400.80 66.26
2227 54.4800 4364.30 4334.82 66.06
2228 54.5000 4324.00 4333.57 65.76
2229 54.5200 4448.50 4328.07 66.70
2230 54.5400 4316.80 4242.91 65.70
2231 54.5600 4079.50 4074.08 63.87
2232 54.5800 3803.00 3879.40 61.67
2233 54.6000 3629.50 3706.34 60.25
2234 54.6200 3489.00 3571.07 59.07
2235 54.6400 3559.50 3471.92 59.66
2236 54.6600 3521.60 3403.13 59.34
2237 54.6800 3404.50 3355.71 58.35
2238 54.7000 3375.10 3322.60 58.10
2239 54.7200 3366.80 3298.70 58.02
2240 54.7400 3330.80 3280.77 57.71
2241 54.7600 3299.00 3266.88 57.44
2242 54.7800 3225.90 3255.90 56.80
2243 54.8000 3104.40 3247.13 55.72
2244 54.8200 3216.40 3240.15 56.71
2245 54.8400 3172.40 3234.65 56.32
2246 54.8600 3272.20 3230.73 57.20
2247 54.8800 3220.80 3227.70 56.75
2248 54.9000 3266.50 3225.78 57.15
2249 54.9200 3254.50 3224.95 57.05
2250 54.9400 3160.30 3223.65 56.22
2251 54.9600 3210.30 3225.30 56.66
2252 54.9800 3196.20 3228.41 56.53
2253 55.0000 3207.30 3233.37 56.63
2254 55.0200 3259.60 3241.40 57.09
2255 55.0400 3233.10 3252.39 56.86
2256 55.0600 3182.60 3268.86 56.41
2257 55.0800 3249.60 3293.15 57.01
2258 55.1000 3328.80 3331.58 57.70
2259 55.1200 3299.60 3389.15 57.44
2260 55.1400 3371.60 3470.90 58.07
2261 55.1600 3434.10 3581.43 58.60
2262 55.1800 3506.70 3713.66 59.22
2263 55.2000 3713.00 3839.54 60.93
2264 55.2200 3789.60 3909.27 61.56
2265 55.2400 3725.60 3885.49 61.04
2266 55.2600 3740.20 3796.03 61.16
2267 55.2800 3525.30 3698.96 59.37
2268 55.3000 3484.70 3631.76 59.03
2269 55.3200 3486.20 3603.53 59.04
2270 55.3400 3471.20 3604.09 58.92
2271 55.3600 3546.00 3607.58 59.55
2272 55.3800 3442.90 3581.78 58.68
2273 55.4000 3365.40 3520.08 58.01
2274 55.4200 3406.20 3443.41 58.36
2275 55.4400 3384.40 3372.56 58.18
2276 55.4600 3236.40 3315.91 56.89
2277 55.4800 3294.50 3269.38 57.40
2278 55.5000 3235.50 3240.01 56.88
2279 55.5200 3174.20 3219.68 56.34
2280 55.5400 3245.60 3205.63 56.97
2281 55.5600 3191.30 3195.49 56.49
2282 55.5800 3167.50 3188.65 56.28
2283 55.6000 3198.70 3182.82 56.56
2284 55.6200 3191.90 3178.23 56.50
2285 55.6400 3226.60 3172.37 56.80
2286 55.6600 3164.60 3169.66 56.25
2287 55.6800 3159.20 3167.61 56.21
2288 55.7000 3159.60 3166.14 56.21
2289 55.7200 3160.70 3166.72 56.22
2290 55.7400 3154.20 3166.44 56.16
2291 55.7600 3215.30 3166.80 56.70
2292 55.7800 3176.90 3167.93 56.36
2293 55.8000 3147.60 3170.21 56.10
2294 55.8200 3097.40 3173.85 55.65
2295 55.8400 3213.90 3179.76 56.69
2296 55.8600 3088.10 3189.10 55.57
2297 55.8800 3209.40 3203.38 56.65
2298 55.9000 3206.40 3224.15 56.63
2299 55.9200 3227.70 3252.33 56.81
2300 55.9400 3194.60 3287.12 56.52
2301 55.9600 3238.00 3321.90 56.90
2302 55.9800 3320.40 3344.65 57.62
2303 56.0000 3387.10 3342.76 58.20
2304 56.0200 3286.10 3321.84 57.32
2305 56.0400 3263.20 3295.23 57.12
2306 56.0600 3176.50 3275.06 56.36
2307 56.0800 3286.10 3267.21 57.32
2308 56.1000 3191.70 3266.36 56.50
2309 56.1200 3223.30 3268.60 56.77
2310 56.1400 3196.60 3265.27 56.54
2311 56.1600 3154.70 3251.92 56.17
2312 56.1800 3224.50 3232.61 56.78
2313 56.2000 3124.10 3213.55 55.89
2314 56.2200 3148.60 3197.96 56.11
2315 56.2400 3121.10 3187.56 55.87
2316 56.2600 3250.60 3179.87 57.01
2317 56.2800 3172.90 3175.12 56.33
2318 56.3000 3167.00 3172.59 56.28
2319 56.3200 3145.90 3171.73 56.09
2320 56.3400 3162.00 3170.24 56.23
2321 56.3600 3186.70 3172.13 56.45
2322 56.3800 3184.20 3175.53 56.43
2323 56.4000 3191.70 3182.43 56.50
2324 56.4200 3174.90 3193.06 56.35
2325 56.4400 3191.60 3204.35 56.49
2326 56.4600 3263.40 3219.38 57.13
2327 56.4800 3320.20 3238.02 57.62
2328 56.5000 3318.90 3257.45 57.61
2329 56.5200 3379.90 3275.46 58.14
2330 56.5400 3423.70 3287.54 58.51
2331 56.5600 3382.40 3296.79 58.16
2332 56.5800 3270.40 3311.73 57.19
2333 56.6000 3369.60 3340.44 58.05
2334 56.6200 3365.00 3388.29 58.01
2335 56.6400 3424.80 3458.15 58.52
2336 56.6600 3526.40 3544.21 59.38
2337 56.6800 3735.50 3631.10 61.12
2338 56.7000 3722.50 3687.75 61.01
2339 56.7200 3708.60 3686.37 60.90
2340 56.7400 3640.90 3635.10 60.34
2341 56.7600 3586.30 3570.44 59.89
2342 56.7800 3675.60 3525.96 60.63
2343 56.8000 3453.50 3507.56 58.77
2344 56.8200 3505.00 3513.37 59.20
2345 56.8400 3554.10 3535.38 59.62
2346 56.8600 3461.40 3555.34 58.83
2347 56.8800 3569.10 3561.06 59.74
2348 56.9000 3592.10 3559.52 59.93
2349 56.9200 3624.40 3565.11 60.20
2350 56.9400 3611.40 3582.28 60.09
2351 56.9600 3691.80 3607.50 60.76
2352 56.9800 3755.90 3631.75 61.29
2353 57.0000 3707.00 3643.59 60.89
2354 57.0200 3684.60 3633.98 60.70
2355 57.0400 3649.30 3608.09 60.41
2356 57.0600 3431.90 3585.07 58.58
2357 57.0800 3539.20 3582.35 59.49
2358 57.1000 3574.30 3604.95 59.79
2359 57.1200 3613.40 3654.82 60.11
2360 57.1400 3686.40 3731.48 60.72
2361 57.1600 3810.80 3829.47 61.73
2362 57.1800 3964.80 3938.96 62.97
2363 57.2000 3962.30 4041.79 62.95
2364 57.2200 4197.90 4100.51 64.79
2365 57.2400 4230.00 4085.28 65.04
2366 57.2600 4238.50 4017.84 65.10
2367 57.2800 4109.60 3955.12 64.11
2368 57.3000 3919.00 3941.17 62.60
2369 57.3200 3956.50 3993.95 62.90
2370 57.3400 4236.30 4112.25 65.09
2371 57.3600 4443.60 4266.81 66.66
2372 57.3800 4565.00 4399.91 67.56
2373 57.4000 4847.00 4439.14 69.62
2374 57.4200 4809.30 4355.00 69.35
2375 57.4400 4548.30 4193.06 67.44
2376 57.4600 4291.50 4027.31 65.51
2377 57.4800 3984.30 3904.04 63.12
2378 57.5000 3957.90 3836.72 62.91
2379 57.5200 3891.20 3817.53 62.38
2380 57.5400 3894.10 3821.71 62.40
2381 57.5600 3903.30 3813.88 62.48
2382 57.5800 3897.20 3773.16 62.43
2383 57.6000 3905.70 3712.96 62.50
2384 57.6200 3685.40 3661.31 60.71
2385 57.6400 3667.60 3638.32 60.56
2386 57.6600 3667.20 3655.68 60.56
2387 57.6800 3691.30 3723.00 60.76
2388 57.7000 3890.00 3848.33 62.37
2389 57.7200 4121.70 4036.55 64.20
2390 57.7400 4366.50 4281.12 66.08
2391 57.7600 4489.30 4547.47 67.00
2392 57.7800 4683.10 4758.11 68.43
2393 57.8000 4684.70 4822.80 68.44
2394 57.8200 4718.20 4720.53 68.69
2395 57.8400 4554.30 4526.42 67.49
2396 57.8600 4336.40 4338.00 65.85
2397 57.8800 4199.00 4215.85 64.80
2398 57.9000 4149.60 4170.92 64.42
2399 57.9200 4142.30 4180.82 64.36
2400 57.9400 4218.30 4195.43 64.95
2401 57.9600 4070.40 4162.85 63.80
2402 57.9800 4177.20 4071.48 64.63
2403 58.0000 3998.00 3955.30 63.23
2404 58.0200 3948.00 3853.22 62.83
2405 58.0400 3920.30 3782.16 62.61
2406 58.0600 3814.20 3731.48 61.76
2407 58.0800 3856.40 3678.22 62.10
2408 58.1000 3691.00 3611.40 60.75
2409 58.1200 3677.20 3542.95 60.64
2410 58.1400 3596.40 3486.45 59.97
2411 58.1600 3594.80 3449.92 59.96
2412 58.1800 3503.70 3435.55 59.19
2413 58.2000 3490.90 3438.87 59.08
2414 58.2200 3470.20 3451.60 58.91
2415 58.2400 3533.60 3464.28 59.44
2416 58.2600 3465.50 3476.14 58.87
2417 58.2800 3506.50 3496.69 59.22
2418 58.3000 3464.50 3531.99 58.86
2419 58.3200 3531.00 3577.50 59.42
2420 58.3400 3644.40 3613.13 60.37
2421 58.3600 3669.70 3611.27 60.58
2422 58.3800 3628.60 3564.65 60.24
2423 58.4000 3462.90 3501.20 58.85
2424 58.4200 3543.40 3445.96 59.53
2425 58.4400 3388.80 3411.24 58.21
2426 58.4600 3418.00 3395.78 58.46
2427 58.4800 3444.30 3395.16 58.69
2428 58.5000 3468.30 3395.31 58.89
2429 58.5200 3450.70 3380.14 58.74
2430 58.5400 3391.40 3344.65 58.24
2431 58.5600 3314.80 3299.25 57.57
2432 58.5800 3208.40 3258.31 56.64
2433 58.6000 3289.70 3224.57 57.36
2434 58.6200 3238.10 3198.76 56.90
2435 58.6400 3249.00 3179.86 57.00
2436 58.6600 3214.30 3166.30 56.69
2437 58.6800 3191.50 3156.58 56.49
2438 58.7000 3197.20 3149.43 56.54
2439 58.7200 3188.60 3143.38 56.47
2440 58.7400 3051.20 3139.33 55.24
2441 58.7600 3185.30 3136.16 56.44
2442 58.7800 3321.60 3133.69 57.63
2443 58.8000 3211.80 3131.78 56.67
2444 58.8200 3206.50 3130.35 56.63
2445 58.8400 3146.40 3129.36 56.09
2446 58.8600 3153.60 3128.78 56.16
2447 58.8800 3149.10 3132.27 56.12
2448 58.9000 3086.40 3132.61 55.56
2449 58.9200 3168.80 3133.38 56.29
2450 58.9400 3189.80 3132.37 56.48
2451 58.9600 3214.70 3135.57 56.70
2452 58.9800 3147.90 3135.78 56.11
2453 59.0000 3076.60 3138.93 55.47
2454 59.0200 3181.10 3142.90 56.40
2455 59.0400 3236.40 3148.49 56.89
2456 59.0600 3150.30 3154.80 56.13
2457 59.0800 3202.40 3163.96 56.59
2458 59.1000 3260.10 3173.84 57.10
2459 59.1200 3344.50 3188.49 57.83
2460 59.1400 3208.60 3207.91 56.64
2461 59.1600 3296.40 3237.02 57.41
2462 59.1800 3368.60 3278.08 58.04
2463 59.2000 3552.00 3334.37 59.60
2464 59.2200 3516.10 3407.82 59.30
2465 59.2400 3592.10 3495.15 59.93
2466 59.2600 3687.80 3586.39 60.73
2467 59.2800 3798.00 3653.07 61.63
2468 59.3000 3792.70 3672.20 61.58
2469 59.3200 3764.50 3652.17 61.36
2470 59.3400 3835.50 3627.55 61.93
2471 59.3600 3778.00 3629.02 61.47
2472 59.3800 3769.50 3671.66 61.40
2473 59.4000 3911.80 3756.25 62.54
2474 59.4200 4052.20 3869.66 63.66
2475 59.4400 4240.00 3974.07 65.12
2476 59.4600 4429.20 4015.12 66.55
2477 59.4800 4284.10 3964.34 65.45
2478 59.5000 4224.40 3851.70 65.00
2479 59.5200 3922.40 3729.61 62.63
2480 59.5400 3757.20 3635.58 61.30
2481 59.5600 3731.50 3578.88 61.09
2482 59.5800 3685.10 3556.94 60.71
2483 59.6000 3739.40 3555.40 61.15
2484 59.6200 3743.00 3550.35 61.18
2485 59.6400 3748.20 3521.45 61.22
2486 59.6600 3707.80 3470.21 60.89
2487 59.6800 3591.40 3412.91 59.93
2488 59.7000 3481.90 3365.56 59.01
2489 59.7200 3351.80 3330.44 57.89
2490 59.7400 3248.80 3309.73 57.00
2491 59.7600 3431.80 3302.91 58.58
2492 59.7800 3417.10 3312.16 58.46
2493 59.8000 3337.20 3333.08 57.77
2494 59.8200 3229.80 3370.01 56.83
2495 59.8400 3357.00 3426.04 57.94
2496 59.8600 3438.40 3504.45 58.64
2497 59.8800 3621.80 3606.17 60.18
2498 59.9000 3674.80 3727.46 60.62
2499 59.9200 3800.60 3863.77 61.65
2500 59.9400 3953.80 4015.19 62.88
2501 59.9600 4280.50 4172.98 65.43
2502 59.9800 4597.70 4298.26 67.81
2503 60.0000 4713.80 4338.96 68.66
2504 60.0200 4441.60 4291.53 66.65
2505 60.0400 4182.00 4210.66 64.67
2506 60.0600 3959.20 4147.95 62.92
2507 60.0800 3897.90 4121.59 62.43
2508 60.1000 3950.90 4125.18 62.86
2509 60.1200 4105.70 4135.53 64.08
2510 60.1400 4139.50 4121.65 64.34
2511 60.1600 4281.40 4062.56 65.43
2512 60.1800 3997.70 3963.74 63.23
2513 60.2000 3868.60 3856.63 62.20
2514 60.2200 3741.20 3771.72 61.17
2515 60.2400 3655.50 3720.52 60.46
2516 60.2600 3607.00 3696.51 60.06
2517 60.2800 3662.90 3679.53 60.52
2518 60.3000 3696.80 3644.66 60.80
2519 60.3200 3512.70 3586.54 59.27
2520 60.3400 3459.30 3518.82 58.82
2521 60.3600 3381.90 3456.33 58.15
2522 60.3800 3356.60 3406.77 57.94
2523 60.4000 3442.80 3373.30 58.68
2524 60.4200 3441.30 3355.59 58.66
2525 60.4400 3307.20 3350.71 57.51
2526 60.4600 3326.70 3347.81 57.68
2527 60.4800 3321.10 3341.88 57.63
2528 60.5000 3320.30 3337.39 57.62
2529 60.5200 3354.80 3336.20 57.92
2530 60.5400 3307.30 3339.85 57.51
2531 60.5600 3415.30 3344.99 58.44
2532 60.5800 3422.20 3344.74 58.50
2533 60.6000 3447.00 3335.27 58.71
2534 60.6200 3460.50 3321.82 58.83
2535 60.6400 3545.80 3313.04 59.55
2536 60.6600 3359.90 3315.57 57.96
2537 60.6800 3453.00 3337.00 58.76
2538 60.7000 3380.60 3377.03 58.14
2539 60.7200 3353.60 3436.86 57.91
2540 60.7400 3532.90 3515.83 59.44
2541 60.7600 3625.70 3609.76 60.21
2542 60.7800 3830.70 3717.07 61.89
2543 60.8000 4014.20 3823.98 63.36
2544 60.8200 4099.90 3893.94 64.03
2545 60.8400 4153.60 3890.41 64.45
2546 60.8600 4046.60 3816.08 63.61
2547 60.8800 3905.60 3714.53 62.49
2548 60.9000 3631.60 3627.99 60.26
2549 60.9200 3602.90 3570.24 60.02
2550 60.9400 3616.90 3546.40 60.14
2551 60.9600 3591.70 3548.02 59.93
2552 60.9800 3682.80 3554.52 60.69
2553 61.0000 3682.90 3539.13 60.69
2554 61.0200 3707.40 3490.02 60.89
2555 61.0400 3542.70 3420.40 59.52
2556 61.0600 3472.70 3350.02 58.93
2557 61.0800 3403.20 3289.93 58.34
2558 61.1000 3296.20 3242.63 57.41
2559 61.1200 3229.80 3208.21 56.83
2560 61.1400 3297.70 3183.91 57.43
2561 61.1600 3205.80 3167.25 56.62
2562 61.1800 3218.40 3156.12 56.73
2563 61.2000 3232.90 3146.22 56.86
2564 61.2200 3171.80 3142.09 56.32
2565 61.2400 3218.70 3140.36 56.73
2566 61.2600 3184.80 3140.75 56.43
2567 61.2800 3139.10 3143.34 56.03
2568 61.3000 3273.00 3149.01 57.21
2569 61.3200 3207.00 3157.60 56.63
2570 61.3400 3204.30 3172.80 56.61
2571 61.3600 3272.90 3193.84 57.21
2572 61.3800 3261.10 3226.74 57.11
2573 61.4000 3356.70 3273.08 57.94
2574 61.4200 3379.60 3335.03 58.13
2575 61.4400 3432.00 3411.72 58.58
2576 61.4600 3569.10 3495.27 59.74
2577 61.4800 3680.80 3565.03 60.67
2578 61.5000 3800.50 3593.81 61.65
2579 61.5200 3688.10 3570.25 60.73
2580 61.5400 3687.20 3517.03 60.72
2581 61.5600 3497.60 3465.20 59.14
2582 61.5800 3438.40 3431.98 58.64
2583 61.6000 3373.90 3424.70 58.09
2584 61.6200 3408.90 3442.22 58.39
2585 61.6400 3480.10 3475.99 58.99
2586 61.6600 3537.30 3512.04 59.48
2587 61.6800 3561.80 3531.23 59.68
2588 61.7000 3577.90 3531.68 59.82
2589 61.7200 3469.00 3514.72 58.90
2590 61.7400 3420.70 3484.28 58.49
2591 61.7600 3469.20 3442.46 58.90
2592 61.7800 3440.30 3406.56 58.65
2593 61.8000 3427.00 3388.15 58.54
2594 61.8200 3367.10 3394.55 58.03
2595 61.8400 3312.00 3428.63 57.55
2596 61.8600 3468.50 3490.96 58.89
2597 61.8800 3466.60 3578.14 58.88
2598 61.9000 3574.00 3681.14 59.78
2599 61.9200 3624.70 3784.81 60.21
2600 61.9400 3755.60 3862.93 61.28
2601 61.9600 3676.40 3879.99 60.63
2602 61.9800 3866.10 3824.07 62.18
2603 62.0000 3697.40 3725.70 60.81
2604 62.0200 3478.70 3627.52 58.98
2605 62.0400 3544.70 3553.12 59.54
2606 62.0600 3521.10 3514.70 59.34
2607 62.0800 3435.70 3506.55 58.61
2608 62.1000 3460.50 3515.08 58.83
2609 62.1200 3490.00 3517.01 59.08
2610 62.1400 3464.60 3491.03 58.86
2611 62.1600 3465.90 3436.76 58.87
2612 62.1800 3390.30 3371.72 58.23
2613 62.2000 3286.80 3310.06 57.33
2614 62.2200 3221.70 3258.56 56.76
2615 62.2400 3280.90 3220.47 57.28
2616 62.2600 3179.00 3193.38 56.38
2617 62.2800 3232.00 3175.17 56.85
2618 62.3000 3147.90 3163.75 56.11
2619 62.3200 3168.40 3157.46 56.29
2620 62.3400 3145.90 3155.16 56.09
2621 62.3600 3158.40 3159.23 56.20
2622 62.3800 3176.00 3163.91 56.36
2623 62.4000 3196.30 3174.57 56.54
2624 62.4200 3220.00 3188.24 56.74
2625 62.4400 3158.10 3208.57 56.20
2626 62.4600 3283.30 3237.84 57.30
2627 62.4800 3295.60 3278.75 57.41
2628 62.5000 3420.00 3333.91 58.48
2629 62.5200 3408.40 3404.57 58.38
2630 62.5400 3440.50 3487.86 58.66
2631 62.5600 3599.90 3574.05 60.00
2632 62.5800 3747.60 3648.85 61.22
2633 62.6000 3785.50 3704.57 61.53
2634 62.6200 3830.10 3742.23 61.89
2635 62.6400 3778.40 3765.14 61.47
2636 62.6600 3763.80 3784.85 61.35
2637 62.6800 3898.50 3822.13 62.44
2638 62.7000 3882.60 3891.15 62.31
2639 62.7200 4017.60 3988.21 63.38
2640 62.7400 4200.00 4101.83 64.81
2641 62.7600 4292.50 4214.15 65.52
2642 62.7800 4453.90 4300.42 66.74
2643 62.8000 4591.50 4319.83 67.76
2644 62.8200 4537.50 4246.92 67.36
2645 62.8400 4367.00 4110.43 66.08
2646 62.8600 4090.30 3966.19 63.96
2647 62.8800 3994.00 3851.42 63.20
2648 62.9000 3849.20 3772.95 62.04
2649 62.9200 3857.30 3729.31 62.11
2650 62.9400 3798.50 3709.75 61.63
2651 62.9600 3800.40 3695.06 61.65
2652 62.9800 3775.70 3658.72 61.45
2653 63.0000 3796.00 3591.25 61.61
2654 63.0200 3645.60 3506.34 60.38
2655 63.0400 3549.00 3424.27 59.57
2656 63.0600 3406.20 3356.00 58.36
2657 63.0800 3330.10 3304.60 57.71
2658 63.1000 3407.10 3269.36 58.37
2659 63.1200 3302.90 3248.39 57.47
2660 63.1400 3342.30 3239.48 57.81
2661 63.1600 3241.70 3241.68 56.94
2662 63.1800 3228.90 3253.49 56.82
2663 63.2000 3501.50 3271.55 59.17
2664 63.2200 3436.30 3297.25 58.62
2665 63.2400 3413.80 3323.32 58.43
2666 63.2600 3591.20 3345.50 59.93
2667 63.2800 3514.00 3362.78 59.28
2668 63.3000 3510.40 3386.14 59.25
2669 63.3200 3479.50 3425.88 58.99
2670 63.3400 3534.40 3492.87 59.45
2671 63.3600 3563.80 3593.96 59.70
2672 63.3800 3698.80 3729.35 60.82
2673 63.4000 3955.50 3892.42 62.89
2674 63.4200 4039.80 4055.51 63.56
2675 63.4400 4271.50 4175.63 65.36
2676 63.4600 4314.90 4215.33 65.69
2677 63.4800 4225.40 4165.74 65.00
2678 63.5000 4121.30 4052.21 64.20
2679 63.5200 4043.50 3922.64 63.59
2680 63.5400 3927.60 3816.60 62.67
2681 63.5600 3804.50 3752.71 61.68
2682 63.5800 3712.80 3729.22 60.93
2683 63.6000 3757.00 3728.89 61.29
2684 63.6200 3743.60 3725.36 61.19
2685 63.6400 3776.10 3696.02 61.45
2686 63.6600 3713.70 3632.75 60.94
2687 63.6800 3622.70 3545.07 60.19
2688 63.7000 3500.40 3452.35 59.16
2689 63.7200 3350.60 3369.90 57.88
2690 63.7400 3353.70 3303.91 57.91
2691 63.7600 3351.00 3254.70 57.89
2692 63.7800 3289.20 3220.14 57.35
2693 63.8000 3221.30 3197.62 56.76
2694 63.8200 3187.40 3184.76 56.46
2695 63.8400 3151.00 3180.46 56.13
2696 63.8600 3130.90 3184.15 55.95
2697 63.8800 3270.80 3195.47 57.19
2698 63.9000 3200.90 3217.29 56.58
2699 63.9200 3275.20 3249.98 57.23
2700 63.9400 3345.80 3293.80 57.84
2701 63.9600 3361.00 3346.56 57.97
2702 63.9800 3412.50 3402.90 58.42
2703 64.0000 3541.20 3459.42 59.51
2704 64.0200 3564.60 3504.38 59.70
2705 64.0400 3570.60 3525.93 59.75
2706 64.0600 3538.80 3513.84 59.49
2707 64.0800 3473.00 3481.93 58.93
2708 64.1000 3359.70 3442.47 57.96
2709 64.1200 3380.10 3407.38 58.14
2710 64.1400 3364.90 3383.42 58.01
2711 64.1600 3337.60 3371.86 57.77
2712 64.1800 3466.30 3371.03 58.88
2713 64.2000 3369.60 3375.38 58.05
2714 64.2200 3411.60 3377.28 58.41
2715 64.2400 3381.60 3371.93 58.15
2716 64.2600 3305.30 3366.16 57.49
2717 64.2800 3308.70 3366.12 57.52
2718 64.3000 3353.00 3376.82 57.91
2719 64.3200 3509.60 3399.52 59.24
2720 64.3400 3527.70 3430.60 59.39
2721 64.3600 3537.90 3460.61 59.48
2722 64.3800 3539.50 3475.13 59.49
2723 64.4000 3633.50 3462.05 60.28
2724 64.4200 3561.80 3424.18 59.68
2725 64.4400 3420.40 3378.35 58.48
2726 64.4600 3354.70 3340.52 57.92
2727 64.4800 3343.60 3318.57 57.82
2728 64.5000 3273.20 3313.69 57.21
2729 64.5200 3404.70 3323.14 58.35
2730 64.5400 3323.30 3340.76 57.65
2731 64.5600 3414.30 3357.65 58.43
2732 64.5800 3450.70 3364.97 58.74
2733 64.6000 3477.90 3358.58 58.97
2734 64.6200 3439.80 3337.90 58.65
2735 64.6400 3400.10 3303.97 58.31
2736 64.6600 3429.00 3262.64 58.56
2737 64.6800 3322.70 3222.90 57.64
2738 64.7000 3272.30 3190.40 57.20
2739 64.7200 3197.20 3168.84 56.54
2740 64.7400 3173.80 3155.31 56.34
2741 64.7600 3132.10 3151.23 55.97
2742 64.7800 3186.40 3151.09 56.45
2743 64.8000 3319.00 3149.76 57.61
2744 64.8200 3336.60 3143.43 57.76
2745 64.8400 3211.20 3132.73 56.67
2746 64.8600 3092.00 3122.22 55.61
2747 64.8800 3123.40 3112.63 55.89
2748 64.9000 3124.20 3108.06 55.89
2749 64.9200 3069.20 3107.93 55.40
2750 64.9400 3104.30 3114.97 55.72
2751 64.9600 3088.70 3129.71 55.58
2752 64.9800 3129.90 3154.04 55.95
2753 65.0000 3197.10 3190.19 56.54
2754 65.0200 3310.50 3240.16 57.54
2755 65.0400 3254.30 3304.42 57.05
2756 65.0600 3306.30 3379.62 57.50
2757 65.0800 3353.90 3453.86 57.91
2758 65.1000 3408.80 3505.16 58.38
2759 65.1200 3467.40 3510.28 58.88
2760 65.1400 3458.70 3470.93 58.81
2761 65.1600 3404.70 3410.86 58.35
2762 65.1800 3292.10 3354.25 57.38
2763 65.2000 3309.10 3314.02 57.52
2764 65.2200 3243.50 3293.91 56.95
2765 65.2400 3344.10 3291.73 57.83
2766 65.2600 3263.70 3299.50 57.13
2767 65.2800 3256.10 3306.07 57.06
2768 65.3000 3260.40 3293.84 57.10
2769 65.3200 3339.60 3260.88 57.79
2770 65.3400 3130.40 3218.40 55.95
2771 65.3600 3121.00 3176.16 55.87
2772 65.3800 3154.50 3139.64 56.16
2773 65.4000 3056.20 3110.86 55.28
2774 65.4200 3076.90 3090.32 55.47
2775 65.4400 3090.80 3074.49 55.60
2776 65.4600 3056.50 3063.36 55.29
2777 65.4800 2998.20 3055.63 54.76
2778 65.5000 3073.00 3049.90 55.43
2779 65.5200 3089.60 3046.46 55.58
2780 65.5400 3058.70 3044.44 55.31
2781 65.5600 3045.80 3044.66 55.19
2782 65.5800 3102.40 3045.02 55.70
2783 65.6000 3094.30 3046.54 55.63
2784 65.6200 3076.60 3049.56 55.47
2785 65.6400 3034.40 3054.28 55.09
2786 65.6600 3070.60 3061.66 55.41
2787 65.6800 3051.70 3071.55 55.24
2788 65.7000 3072.50 3086.82 55.43
2789 65.7200 3203.90 3107.70 56.60
2790 65.7400 3211.70 3135.07 56.67
2791 65.7600 3303.00 3168.92 57.47
2792 65.7800 3385.70 3206.96 58.19
2793 65.8000 3410.50 3242.98 58.40
2794 65.8200 3348.50 3267.81 57.87
2795 65.8400 3414.20 3276.19 58.43
2796 65.8600 3371.20 3274.32 58.06
2797 65.8800 3403.60 3275.04 58.34
2798 65.9000 3411.70 3286.34 58.41
2799 65.9200 3372.20 3309.62 58.07
2800 65.9400 3405.40 3340.38 58.36
2801 65.9600 3424.70 3365.77 58.52
2802 65.9800 3428.30 3372.18 58.55
2803 66.0000 3418.50 3354.98 58.47
2804 66.0200 3464.70 3321.86 58.86
2805 66.0400 3362.30 3282.32 57.99
2806 66.0600 3361.00 3247.75 57.97
2807 66.0800 3275.00 3223.87 57.23
2808 66.1000 3210.70 3211.36 56.66
2809 66.1200 3156.20 3207.71 56.18
2810 66.1400 3201.20 3206.45 56.58
2811 66.1600 3229.60 3200.80 56.83
2812 66.1800 3268.80 3190.91 57.17
2813 66.2000 3111.60 3176.53 55.78
2814 66.2200 3189.10 3165.33 56.47
2815 66.2400 3183.70 3161.20 56.42
2816 66.2600 3223.10 3166.57 56.77
2817 66.2800 3137.50 3183.37 56.01
2818 66.3000 3184.00 3213.46 56.43
2819 66.3200 3133.40 3259.22 55.98
2820 66.3400 3246.00 3319.28 56.97
2821 66.3600 3425.50 3391.75 58.53
2822 66.3800 3446.90 3467.27 58.71
2823 66.4000 3587.50 3525.43 59.90
2824 66.4200 3525.00 3548.84 59.37
2825 66.4400 3507.50 3535.24 59.22
2826 66.4600 3513.70 3505.12 59.28
2827 66.4800 3462.10 3481.58 58.84
2828 66.5000 3404.20 3477.09 58.35
2829 66.5200 3385.40 3492.65 58.18
2830 66.5400 3522.20 3520.20 59.35
2831 66.5600 3528.50 3547.50 59.40
2832 66.5800 3604.90 3565.46 60.04
2833 66.6000 3591.30 3570.87 59.93
2834 66.6200 3587.90 3567.28 59.90
2835 66.6400 3537.90 3564.04 59.48
2836 66.6600 3579.50 3567.65 59.83
2837 66.6800 3647.80 3572.31 60.40
2838 66.7000 3673.50 3562.47 60.61
2839 66.7200 3651.20 3527.73 60.43
2840 66.7400 3540.10 3472.68 59.50
2841 66.7600 3540.70 3410.65 59.50
2842 66.7800 3468.60 3355.62 58.89
2843 66.8000 3339.60 3313.33 57.79
2844 66.8200 3347.10 3287.40 57.85
2845 66.8400 3374.40 3275.53 58.09
2846 66.8600 3296.10 3271.00 57.41
2847 66.8800 3358.60 3263.89 57.95
2848 66.9000 3359.90 3246.60 57.96
2849 66.9200 3271.90 3219.97 57.20
2850 66.9400 3216.20 3190.78 56.71
2851 66.9600 3144.10 3165.00 56.07
2852 66.9800 3183.80 3145.55 56.43
2853 67.0000 3152.10 3133.37 56.14
2854 67.0200 3182.30 3128.53 56.41
2855 67.0400 3188.20 3130.89 56.46
2856 67.0600 3202.80 3140.30 56.59
2857 67.0800 3219.90 3156.51 56.74
2858 67.1000 3276.80 3178.81 57.24
2859 67.1200 3175.30 3205.26 56.35
2860 67.1400 3284.60 3231.64 57.31
2861 67.1600 3280.60 3256.04 57.28
2862 67.1800 3376.30 3279.84 58.11
2863 67.2000 3415.10 3310.58 58.44
2864 67.2200 3421.90 3356.25 58.50
2865 67.2400 3467.20 3421.42 58.88
2866 67.2600 3610.00 3505.02 60.08
2867 67.2800 3685.10 3596.60 60.71
2868 67.3000 3778.40 3675.26 61.47
2869 67.3200 3880.80 3712.62 62.30
2870 67.3400 3911.30 3699.86 62.54
2871 67.3600 3807.00 3656.18 61.70
2872 67.3800 3719.90 3611.68 60.99
2873 67.4000 3613.20 3587.28 60.11
2874 67.4200 3544.70 3589.72 59.54
2875 67.4400 3497.10 3613.19 59.14
2876 67.4600 3667.90 3642.08 60.56
2877 67.4800 3633.50 3657.87 60.28
2878 67.5000 3677.20 3648.83 60.64
2879 67.5200 3639.10 3611.50 60.33
2880 67.5400 3651.00 3553.15 60.42
2881 67.5600 3549.40 3486.73 59.58
2882 67.5800 3407.20 3424.11 58.37
2883 67.6000 3426.90 3373.11 58.54
2884 67.6200 3345.40 3335.77 57.84
2885 67.6400 3320.10 3307.96 57.62
2886 67.6600 3306.10 3283.03 57.50
2887 67.6800 3242.80 3257.71 56.95
2888 67.7000 3160.10 3233.53 56.21
2889 67.7200 3215.00 3212.68 56.70
2890 67.7400 3227.40 3194.28 56.81
2891 67.7600 3236.00 3181.19 56.89
2892 67.7800 3140.70 3173.99 56.04
2893 67.8000 3191.20 3175.64 56.49
2894 67.8200 3136.10 3188.63 56.00
2895 67.8400 3209.30 3214.26 56.65
2896 67.8600 3234.70 3252.12 56.87
2897 67.8800 3203.70 3298.17 56.60
2898 67.9000 3336.90 3344.04 57.77
2899 67.9200 3379.30 3372.44 58.13
2900 67.9400 3374.70 3370.43 58.09
2901 67.9600 3382.80 3338.67 58.16
2902 67.9800 3249.70 3292.89 57.01
2903 68.0000 3284.10 3249.18 57.31
2904 68.0200 3231.20 3215.44 56.84
2905 68.0400 3174.70 3196.62 56.34
2906 68.0600 3215.90 3190.67 56.71
2907 68.0800 3276.20 3194.16 57.24
2908 68.1000 3228.20 3199.09 56.82
2909 68.1200 3292.70 3195.60 57.38
2910 68.1400 3230.90 3177.95 56.84
2911 68.1600 3140.50 3149.27 56.04
2912 68.1800 3159.90 3117.18 56.21
2913 68.2000 3042.40 3087.39 55.16
2914 68.2200 3046.10 3061.89 55.19
2915 68.2400 3021.90 3041.96 54.97
2916 68.2600 3167.70 3026.61 56.28
2917 68.2800 3060.90 3015.03 55.33
2918 68.3000 3100.50 3006.24 55.68
2919 68.3200 3102.60 2999.52 55.70
2920 68.3400 3103.30 2994.27 55.71
2921 68.3600 3079.80 2993.07 55.50
2922 68.3800 2993.40 2989.68 54.71
2923 68.4000 2997.50 2986.83 54.75
2924 68.4200 2971.70 2984.41 54.51
2925 68.4400 2948.30 2982.30 54.30
2926 68.4600 2954.80 2980.47 54.36
2927 68.4800 3041.40 2978.85 55.15
2928 68.5000 3084.60 2977.10 55.54
2929 68.5200 3030.30 2978.16 55.05
2930 68.5400 3031.80 2977.10 55.06
2931 68.5600 3036.00 2976.16 55.10
2932 68.5800 2990.40 2975.33 54.68
2933 68.6000 3059.90 2974.59 55.32
2934 68.6200 3030.20 2973.94 55.05
2935 68.6400 2990.90 2973.46 54.69
2936 68.6600 2992.70 2971.34 54.71
2937 68.6800 2878.50 2970.79 53.65
2938 68.7000 2956.70 2970.53 54.38
2939 68.7200 2995.50 2970.27 54.73
2940 68.7400 2954.50 2970.05 54.36
2941 68.7600 2936.80 2969.89 54.19
2942 68.7800 2965.90 2969.79 54.46
2943 68.8000 2934.50 2969.04 54.17
2944 68.8200 3008.90 2969.05 54.85
2945 68.8400 3032.40 2969.12 55.07
2946 68.8600 2970.80 2968.40 54.51
2947 68.8800 2954.40 2968.81 54.35
2948 68.9000 3018.40 2968.82 54.94
2949 68.9200 2964.30 2969.14 54.45
2950 68.9400 2958.20 2969.53 54.39
2951 68.9600 3003.20 2969.99 54.80
2952 68.9800 3007.80 2970.83 54.84
2953 69.0000 3015.50 2971.11 54.91
2954 69.0200 2967.30 2971.83 54.47
2955 69.0400 2991.00 2973.38 54.69
2956 69.0600 3002.10 2974.30 54.79
2957 69.0800 3079.50 2976.71 55.49
2958 69.1000 3017.20 2977.82 54.93
2959 69.1200 3005.60 2979.21 54.82
2960 69.1400 2992.90 2980.77 54.71
2961 69.1600 3057.80 2983.75 55.30
2962 69.1800 2951.00 2987.33 54.32
2963 69.2000 2986.90 2989.66 54.65
2964 69.2200 2997.70 2992.31 54.75
2965 69.2400 2999.50 2995.33 54.77
2966 69.2600 2972.20 2998.78 54.52
2967 69.2800 2947.00 3001.72 54.29
2968 69.3000 3034.30 3006.39 55.08
2969 69.3200 2985.90 3011.84 54.64
2970 69.3400 3028.60 3018.26 55.03
2971 69.3600 2955.00 3025.84 54.36
2972 69.3800 3023.20 3034.78 54.98
2973 69.4000 2925.20 3045.32 54.09
2974 69.4200 3026.40 3057.63 55.01
2975 69.4400 3094.20 3071.91 55.63
2976 69.4600 3002.40 3088.67 54.79
2977 69.4800 3026.40 3108.81 55.01
2978 69.5000 3156.40 3135.74 56.18
2979 69.5200 3111.80 3172.25 55.78
2980 69.5400 3158.90 3222.35 56.20
2981 69.5600 3200.10 3290.83 56.57
2982 69.5800 3336.00 3382.87 57.76
2983 69.6000 3349.20 3501.83 57.87
2984 69.6200 3482.90 3648.54 59.02
2985 69.6400 3716.80 3815.78 60.97
2986 69.6600 4047.00 3980.57 63.62
2987 69.6800 4391.40 4100.30 66.27
2988 69.7000 4580.10 4131.76 67.68
2989 69.7200 4336.40 4069.09 65.85
2990 69.7400 4068.00 3951.83 63.78
2991 69.7600 3827.70 3829.15 61.87
2992 69.7800 3608.80 3733.20 60.07
2993 69.8000 3636.60 3673.42 60.30
2994 69.8200 3497.50 3651.16 59.14
2995 69.8400 3498.10 3658.99 59.14
2996 69.8600 3643.50 3681.07 60.36
2997 69.8800 3776.40 3693.19 61.45
2998 69.9000 3846.30 3669.69 62.02
2999 69.9200 3773.60 3607.45 61.43
3000 69.9400 3552.70 3524.47 59.60
3001 69.9600 3342.50 3441.84 57.81
3002 69.9800 3273.90 3371.84 57.22
3003 70.0000 3352.60 3318.35 57.90
3004 70.0200 3241.30 3280.81 56.93
3005 70.0400 3269.80 3257.01 57.18
3006 70.0600 3282.10 3244.22 57.29
3007 70.0800 3265.60 3239.96 57.15
3008 70.1000 3315.90 3243.80 57.58
3009 70.1200 3253.70 3256.23 57.04
3010 70.1400 3266.20 3279.28 57.15
3011 70.1600 3313.10 3314.02 57.56
3012 70.1800 3383.40 3361.22 58.17
3013 70.2000 3310.30 3421.53 57.54
3014 70.2200 3490.40 3493.30 59.08
3015 70.2400 3664.70 3570.48 60.54
3016 70.2600 3731.50 3642.69 61.09
3017 70.2800 3815.90 3700.37 61.77
3018 70.3000 3830.10 3742.85 61.89
3019 70.3200 3870.80 3778.35 62.22
3020 70.3400 3839.60 3810.79 61.96
3021 70.3600 3862.20 3829.81 62.15
3022 70.3800 4089.90 3819.02 63.95
3023 70.4000 3920.10 3774.93 62.61
3024 70.4200 3778.00 3712.22 61.47
3025 70.4400 3752.10 3648.95 61.25
3026 70.4600 3774.00 3593.71 61.43
3027 70.4800 3571.90 3546.85 59.77
3028 70.5000 3625.40 3507.75 60.21
3029 70.5200 3580.20 3477.80 59.83
3030 70.5400 3500.50 3455.53 59.17
3031 70.5600 3584.30 3433.03 59.87
3032 70.5800 3597.10 3399.78 59.98
3033 70.6000 3331.90 3351.91 57.72
3034 70.6200 3450.40 3295.52 58.74
3035 70.6400 3310.70 3240.03 57.54
3036 70.6600 3279.70 3191.60 57.27
3037 70.6800 3211.70 3152.43 56.67
3038 70.7000 3194.40 3122.30 56.52
3039 70.7200 3101.60 3100.45 55.69
3040 70.7400 3104.30 3085.07 55.72
3041 70.7600 3140.10 3075.29 56.04
3042 70.7800 2997.60 3070.31 54.75
3043 70.8000 3115.70 3069.79 55.82
3044 70.8200 3027.10 3073.76 55.02
3045 70.8400 3154.50 3082.68 56.16
3046 70.8600 3202.60 3097.37 56.59
3047 70.8800 3206.80 3118.73 56.63
3048 70.9000 3229.90 3147.49 56.83
3049 70.9200 3168.90 3183.63 56.29
3050 70.9400 3228.50 3225.05 56.82
3051 70.9600 3268.20 3266.67 57.17
3052 70.9800 3238.80 3302.15 56.91
3053 71.0000 3328.00 3329.43 57.69
3054 71.0200 3398.40 3353.01 58.30
3055 71.0400 3399.80 3377.51 58.31
3056 71.0600 3317.20 3400.57 57.60
3057 71.0800 3365.10 3408.76 58.01
3058 71.1000 3348.70 3400.57 57.87
3059 71.1200 3307.10 3375.94 57.51
3060 71.1400 3266.60 3346.18 57.15
3061 71.1600 3233.90 3320.06 56.87
3062 71.1800 3261.80 3300.15 57.11
3063 71.2000 3188.50 3286.54 56.47
3064 71.2200 3303.40 3280.71 57.48
3065 71.2400 3257.40 3283.17 57.07
3066 71.2600 3247.70 3289.99 56.99
3067 71.2800 3248.40 3290.66 56.99
3068 71.3000 3105.60 3276.86 55.73
3069 71.3200 3213.60 3245.60 56.69
3070 71.3400 3153.90 3204.19 56.16
3071 71.3600 3070.50 3161.67 55.41
3072 71.3800 3089.80 3124.61 55.59
3073 71.4000 3202.50 3095.48 56.59
3074 71.4200 3078.80 3074.56 55.49
3075 71.4400 3152.60 3060.83 56.15
3076 71.4600 3136.40 3052.35 56.00
3077 71.4800 3083.00 3046.82 55.52
3078 71.5000 2987.50 3041.41 54.66
3079 71.5200 3116.30 3033.39 55.82
3080 71.5400 3050.20 3022.59 55.23
3081 71.5600 3084.70 3010.95 55.54
3082 71.5800 3081.90 3000.23 55.51
3083 71.6000 2988.40 2992.11 54.67
3084 71.6200 3031.40 2984.69 55.06
3085 71.6400 2982.60 2978.65 54.61
3086 71.6600 2985.10 2974.27 54.64
3087 71.6800 2963.40 2970.94 54.44
3088 71.7000 3009.90 2968.83 54.86
3089 71.7200 2951.70 2967.63 54.33
3090 71.7400 3007.30 2967.34 54.84
3091 71.7600 2979.90 2967.60 54.59
3092 71.7800 3057.20 2968.17 55.29
3093 71.8000 2902.10 2971.56 53.87
3094 71.8200 3150.00 2976.29 56.12
3095 71.8400 3107.70 2982.61 55.75
3096 71.8600 3011.20 2990.66 54.87
3097 71.8800 2994.10 2999.26 54.72
3098 71.9000 3049.70 3007.80 55.22
3099 71.9200 3064.80 3013.34 55.36
3100 71.9400 3004.70 3013.86 54.82
3101 71.9600 3060.30 3009.46 55.32
3102 71.9800 3091.50 3002.21 55.60
3103 72.0000 3080.20 2995.53 55.50
3104 72.0200 2979.70 2991.06 54.59
3105 72.0400 3032.20 2987.46 55.07
3106 72.0600 3061.40 2985.82 55.33
3107 72.0800 3076.70 2985.98 55.47
3108 72.1000 3108.20 2987.24 55.75
3109 72.1200 3055.00 2988.32 55.27
3110 72.1400 3015.20 2987.84 54.91
3111 72.1600 3013.50 2985.33 54.90
3112 72.1800 3023.90 2981.54 54.99
3113 72.2000 3034.40 2977.58 55.09
3114 72.2200 3011.40 2975.14 54.88
3115 72.2400 3081.60 2972.59 55.51
3116 72.2600 3041.50 2972.21 55.15
3117 72.2800 3001.30 2971.75 54.78
3118 72.3000 2978.40 2972.45 54.57
3119 72.3200 2997.70 2974.40 54.75
3120 72.3400 2953.60 2977.73 54.35
3121 72.3600 3040.70 2982.66 55.14
3122 72.3800 3002.70 2989.54 54.80
3123 72.4000 2910.10 2998.22 53.95
3124 72.4200 2987.00 3010.20 54.65
3125 72.4400 3040.60 3025.20 55.14
3126 72.4600 3148.20 3043.04 56.11
3127 72.4800 3052.60 3062.85 55.25
3128 72.5000 3070.10 3082.27 55.41
3129 72.5200 3223.90 3101.84 56.78
3130 72.5400 3133.00 3119.59 55.97
3131 72.5600 3196.70 3132.03 56.54
3132 72.5800 3199.30 3138.18 56.56
3133 72.6000 3224.30 3139.94 56.78
3134 72.6200 3211.70 3143.06 56.67
3135 72.6400 3195.10 3152.20 56.53
3136 72.6600 3191.00 3170.07 56.49
3137 72.6800 3237.80 3196.86 56.90
3138 72.7000 3273.90 3229.93 57.22
3139 72.7200 3329.40 3265.77 57.70
3140 72.7400 3469.20 3300.18 58.90
3141 72.7600 3473.30 3331.05 58.93
3142 72.7800 3539.30 3355.19 59.49
3143 72.8000 3623.80 3374.31 60.20
3144 72.8200 3616.50 3388.93 60.14
3145 72.8400 3499.30 3400.12 59.15
3146 72.8600 3585.20 3410.65 59.88
3147 72.8800 3500.50 3421.56 59.17
3148 72.9000 3432.70 3427.79 58.59
3149 72.9200 3653.20 3420.46 60.44
3150 72.9400 3518.40 3396.97 59.32
3151 72.9600 3603.30 3363.05 60.03
3152 72.9800 3455.40 3327.82 58.78
3153 73.0000 3407.30 3297.69 58.37
3154 73.0200 3453.10 3274.69 58.76
3155 73.0400 3416.00 3258.10 58.45
3156 73.0600 3372.50 3247.26 58.07
3157 73.0800 3393.50 3242.15 58.25
3158 73.1000 3273.30 3241.62 57.21
3159 73.1200 3411.00 3241.25 58.40
3160 73.1400 3267.10 3238.72 57.16
3161 73.1600 3349.20 3235.55 57.87
3162 73.1800 3279.30 3235.59 57.27
3163 73.2000 3335.00 3240.58 57.75
3164 73.2200 3282.00 3247.67 57.29
3165 73.2400 3333.10 3250.23 57.73
3166 73.2600 3316.80 3242.68 57.59
3167 73.2800 3165.40 3226.14 56.26
3168 73.3000 3254.90 3207.67 57.05
3169 73.3200 3239.80 3194.90 56.92
3170 73.3400 3321.30 3192.95 57.63
3171 73.3600 3218.60 3204.49 56.73
3172 73.3800 3229.70 3231.18 56.83
3173 73.4000 3202.30 3272.54 56.59
3174 73.4200 3299.20 3325.77 57.44
3175 73.4400 3341.70 3383.96 57.81
3176 73.4600 3300.40 3436.09 57.45
3177 73.4800 3414.70 3469.62 58.44
3178 73.5000 3441.00 3474.36 58.66
3179 73.5200 3358.30 3447.16 57.95
3180 73.5400 3328.40 3396.75 57.69
3181 73.5600 3233.00 3338.88 56.86
3182 73.5800 3227.40 3286.91 56.81
3183 73.6000 3217.70 3248.17 56.72
3184 73.6200 3157.80 3224.63 56.19
3185 73.6400 3150.00 3215.04 56.12
3186 73.6600 3245.80 3215.64 56.97
3187 73.6800 3243.50 3220.59 56.95
3188 73.7000 3238.50 3222.57 56.91
3189 73.7200 3208.80 3215.30 56.65
3190 73.7400 3104.20 3195.77 55.72
3191 73.7600 3204.60 3168.64 56.61
3192 73.7800 3130.40 3140.71 55.95
3193 73.8000 3090.70 3117.47 55.59
3194 73.8200 3076.40 3101.17 55.47
3195 73.8400 3100.50 3093.40 55.68
3196 73.8600 3101.40 3094.89 55.69
3197 73.8800 3070.00 3106.16 55.41
3198 73.9000 3124.20 3127.60 55.89
3199 73.9200 3153.30 3159.20 56.15
3200 73.9400 3021.00 3199.59 54.96
3201 73.9600 3110.90 3245.15 55.78
3202 73.9800 3185.20 3287.18 56.44
3203 74.0000 3212.00 3312.86 56.67
3204 74.0200 3215.10 3311.52 56.70
3205 74.0400 3131.60 3285.25 55.96
3206 74.0600 3226.60 3245.68 56.80
3207 74.0800 3167.20 3205.77 56.28
3208 74.1000 3098.00 3173.55 55.66
3209 74.1200 3121.20 3152.53 55.87
3210 74.1400 3086.40 3143.32 55.56
3211 74.1600 3048.80 3144.53 55.22
3212 74.1800 3068.80 3152.82 55.40
3213 74.2000 3043.80 3162.65 55.17
3214 74.2200 3089.40 3166.29 55.58
3215 74.2400 3145.30 3159.69 56.08
3216 74.2600 3096.70 3145.77 55.65
3217 74.2800 2958.10 3127.50 54.39
3218 74.3000 3051.60 3111.69 55.24
3219 74.3200 3075.60 3099.34 55.46
3220 74.3400 3049.90 3088.75 55.23
3221 74.3600 3088.80 3076.03 55.58
3222 74.3800 3169.70 3060.97 56.30
3223 74.4000 3133.70 3043.80 55.98
3224 74.4200 3101.80 3029.27 55.69
3225 74.4400 3045.20 3015.25 55.18
3226 74.4600 3023.60 3005.15 54.99
3227 74.4800 2917.10 2997.90 54.01
3228 74.5000 2997.40 2994.11 54.75
3229 74.5200 3025.40 2992.87 55.00
3230 74.5400 3100.20 2993.02 55.68
3231 74.5600 2954.80 2992.83 54.36
3232 74.5800 3018.20 2990.82 54.94
3233 74.6000 3027.10 2986.96 55.02
3234 74.6200 3033.70 2980.52 55.08
3235 74.6400 2947.50 2973.79 54.29
3236 74.6600 2927.00 2967.76 54.10
3237 74.6800 2841.20 2962.88 53.30
3238 74.7000 3010.10 2958.70 54.86
3239 74.7200 2937.20 2956.38 54.20
3240 74.7400 2910.40 2955.21 53.95
3241 74.7600 2912.90 2955.17 53.97
3242 74.7800 2992.30 2956.28 54.70
3243 74.8000 2968.90 2958.64 54.49
3244 74.8200 3013.00 2962.46 54.89
3245 74.8400 3013.80 2968.01 54.90
3246 74.8600 2931.50 2975.64 54.14
3247 74.8800 3063.40 2985.69 55.35
3248 74.9000 2983.80 2998.35 54.62
3249 74.9200 3035.80 3012.92 55.10
3250 74.9400 3174.30 3029.41 56.34
3251 74.9600 3174.40 3044.99 56.34
3252 74.9800 3099.80 3056.04 55.68
3253 75.0000 3119.40 3063.40 55.85
3254 75.0200 3128.20 3066.91 55.93
3255 75.0400 3144.00 3067.61 56.07
3256 75.0600 3210.10 3065.32 56.66
3257 75.0800 3136.10 3059.60 56.00
3258 75.1000 3114.20 3051.63 55.81
3259 75.1200 3128.00 3043.91 55.93
3260 75.1400 3057.90 3038.37 55.30
3261 75.1600 3165.30 3035.71 56.26
3262 75.1800 3066.40 3034.45 55.38
3263 75.2000 3104.50 3034.21 55.72
3264 75.2200 3047.20 3033.61 55.20
3265 75.2400 3103.50 3033.39 55.71
3266 75.2600 2964.90 3032.58 54.45
3267 75.2800 3026.70 3032.34 55.02
3268 75.3000 3033.90 3030.60 55.08
3269 75.3200 3035.50 3028.85 55.10
3270 75.3400 3118.70 3028.58 55.85
3271 75.3600 3031.60 3031.16 55.06
3272 75.3800 3065.70 3037.52 55.37
3273 75.4000 3025.00 3048.23 55.00
3274 75.4200 2922.60 3063.54 54.06
3275 75.4400 3102.50 3083.31 55.70
3276 75.4600 3069.50 3106.75 55.40
3277 75.4800 3087.50 3131.52 55.57
3278 75.5000 3127.20 3158.44 55.92
3279 75.5200 3192.00 3186.14 56.50
3280 75.5400 3127.30 3215.19 55.92
3281 75.5600 3205.60 3248.51 56.62
3282 75.5800 3325.50 3290.84 57.67
3283 75.6000 3379.10 3346.94 58.13
3284 75.6200 3360.90 3419.10 57.97
3285 75.6400 3486.20 3504.82 59.04
3286 75.6600 3649.40 3594.21 60.41
3287 75.6800 3670.50 3669.08 60.58
3288 75.7000 3708.40 3709.72 60.90
3289 75.7200 3756.20 3710.08 61.29
3290 75.7400 3758.30 3679.55 61.31
3291 75.7600 3647.90 3636.05 60.40
3292 75.7800 3678.90 3596.48 60.65
3293 75.8000 3546.20 3572.78 59.55
3294 75.8200 3569.60 3569.80 59.75
3295 75.8400 3650.70 3583.96 60.42
3296 75.8600 3596.50 3604.82 59.97
3297 75.8800 3666.00 3617.18 60.55
3298 75.9000 3589.50 3608.52 59.91
3299 75.9200 3670.60 3574.12 60.59
3300 75.9400 3539.80 3518.35 59.50
3301 75.9600 3513.80 3451.62 59.28
3302 75.9800 3465.90 3384.98 58.87
3303 76.0000 3322.00 3326.58 57.64
3304 76.0200 3284.10 3280.70 57.31
3305 76.0400 3270.10 3247.86 57.18
3306 76.0600 3204.20 3224.95 56.61
3307 76.0800 3154.10 3206.65 56.16
3308 76.1000 3135.60 3186.90 56.00
3309 76.1200 3108.20 3162.84 55.75
3310 76.1400 3177.40 3135.88 56.37
3311 76.1600 3069.80 3109.40 55.41
3312 76.1800 3028.80 3085.86 55.03
3313 76.2000 3111.90 3065.92 55.78
3314 76.2200 3134.60 3049.11 55.99
3315 76.2400 3003.90 3034.83 54.81
3316 76.2600 3048.10 3022.99 55.21
3317 76.2800 3031.20 3013.80 55.06
3318 76.3000 3078.50 3007.42 55.48
3319 76.3200 3085.00 3003.92 55.54
3320 76.3400 3004.30 3003.38 54.81
3321 76.3600 3009.30 3005.98 54.86
3322 76.3800 3054.50 3012.05 55.27
3323 76.4000 2942.90 3022.02 54.25
3324 76.4200 3095.50 3036.32 55.64
3325 76.4400 3114.30 3055.34 55.81
3326 76.4600 3108.60 3079.49 55.75
3327 76.4800 3151.60 3108.60 56.14
3328 76.5000 3167.80 3142.03 56.28
3329 76.5200 3177.20 3175.97 56.37
3330 76.5400 3225.50 3203.64 56.79
3331 76.5600 3280.50 3216.54 57.28
3332 76.5800 3315.70 3210.36 57.58
3333 76.6000 3281.10 3188.02 57.28
3334 76.6200 3306.50 3158.33 57.50
3335 76.6400 3272.80 3129.74 57.21
3336 76.6600 3178.40 3107.42 56.38
3337 76.6800 3077.30 3093.58 55.47
3338 76.7000 3056.30 3088.42 55.28
3339 76.7200 3104.70 3091.16 55.72
3340 76.7400 3150.50 3099.25 56.13
3341 76.7600 3141.40 3108.52 56.05
3342 76.7800 3226.90 3113.33 56.81
3343 76.8000 3068.50 3109.24 55.39
3344 76.8200 3091.50 3095.04 55.60
3345 76.8400 3140.90 3073.61 56.04
3346 76.8600 3131.30 3049.53 55.96
3347 76.8800 3071.30 3026.50 55.42
3348 76.9000 3049.60 3006.59 55.22
3349 76.9200 3050.00 2990.47 55.23
3350 76.9400 2993.30 2978.10 54.71
3351 76.9600 3018.80 2969.05 54.94
3352 76.9800 3058.10 2962.73 55.30
3353 77.0000 2936.40 2958.23 54.19
3354 77.0200 3046.40 2954.94 55.19
3355 77.0400 2989.00 2951.54 54.67
3356 77.0600 2942.60 2947.84 54.25
3357 77.0800 3019.50 2943.56 54.95
3358 77.1000 2889.20 2939.07 53.75
3359 77.1200 2939.80 2934.82 54.22
3360 77.1400 2977.30 2931.03 54.56
3361 77.1600 2971.10 2927.78 54.51
3362 77.1800 2930.60 2925.05 54.13
3363 77.2000 3019.90 2921.15 54.95
3364 77.2200 2884.00 2919.24 53.70
3365 77.2400 2931.40 2917.70 54.14
3366 77.2600 2943.40 2916.16 54.25
3367 77.2800 2871.90 2915.14 53.59
3368 77.3000 2843.20 2914.20 53.32
3369 77.3200 2931.50 2913.38 54.14
3370 77.3400 2986.50 2912.79 54.65
3371 77.3600 2938.90 2912.15 54.21
3372 77.3800 2848.50 2911.40 53.37
3373 77.4000 2912.30 2910.22 53.97
3374 77.4200 2919.90 2909.76 54.04
3375 77.4400 2894.10 2908.57 53.80
3376 77.4600 2913.60 2908.22 53.98
3377 77.4800 2885.10 2907.72 53.71
3378 77.5000 2983.90 2907.43 54.63
3379 77.5200 2883.60 2907.17 53.70
3380 77.5400 2868.70 2906.92 53.56
3381 77.5600 2910.20 2906.90 53.95
3382 77.5800 2850.50 2906.70 53.39
3383 77.6000 2890.20 2906.44 53.76
3384 77.6200 2911.10 2905.95 53.95
3385 77.6400 2906.90 2905.81 53.92
3386 77.6600 2941.90 2905.69 54.24
3387 77.6800 2858.10 2905.58 53.46
3388 77.7000 2890.80 2906.00 53.77
3389 77.7200 2963.80 2905.93 54.44
3390 77.7400 2949.90 2905.81 54.31
3391 77.7600 2925.00 2905.77 54.08
3392 77.7800 2941.90 2905.74 54.24
3393 77.8000 2954.30 2905.72 54.35
3394 77.8200 2920.90 2906.07 54.05
3395 77.8400 2907.70 2906.33 53.92
3396 77.8600 2922.30 2906.37 54.06
3397 77.8800 2902.50 2906.43 53.87
3398 77.9000 2968.10 2906.69 54.48
3399 77.9200 2900.80 2907.58 53.86
3400 77.9400 2920.80 2907.73 54.04
3401 77.9600 2914.30 2907.90 53.98
3402 77.9800 2960.80 2908.07 54.41
3403 78.0000 2870.20 2908.30 53.57
3404 78.0200 2857.00 2909.68 53.45
3405 78.0400 3014.90 2910.36 54.91
3406 78.0600 2902.60 2910.70 53.88
3407 78.0800 2902.70 2911.96 53.88
3408 78.1000 2916.30 2911.86 54.00
3409 78.1200 2916.70 2912.65 54.01
3410 78.1400 2895.40 2913.62 53.81
3411 78.1600 2899.90 2914.80 53.85
3412 78.1800 2933.80 2916.69 54.16
3413 78.2000 2969.70 2918.46 54.49
3414 78.2200 2950.30 2920.56 54.32
3415 78.2400 2935.80 2922.93 54.18
3416 78.2600 2908.80 2925.44 53.93
3417 78.2800 3011.50 2927.98 54.88
3418 78.3000 2959.60 2929.70 54.40
3419 78.3200 2916.60 2930.23 54.01
3420 78.3400 2989.10 2930.40 54.67
3421 78.3600 2995.40 2930.18 54.73
3422 78.3800 2940.40 2930.29 54.23
3423 78.4000 3003.70 2930.96 54.81
3424 78.4200 2929.60 2932.46 54.13
3425 78.4400 2966.60 2934.95 54.47
3426 78.4600 2970.80 2938.57 54.51
3427 78.4800 2959.60 2943.89 54.40
3428 78.5000 2973.10 2949.94 54.53
3429 78.5200 2983.00 2957.00 54.62
3430 78.5400 3058.50 2964.71 55.30
3431 78.5600 3089.30 2972.44 55.58
3432 78.5800 3050.50 2979.19 55.23
3433 78.6000 3115.00 2983.78 55.81
3434 78.6200 2992.30 2985.10 54.70
3435 78.6400 3029.60 2983.47 55.04
3436 78.6600 3056.50 2979.68 55.29
3437 78.6800 3036.00 2976.39 55.10
3438 78.7000 2978.80 2973.70 54.58
3439 78.7200 3077.50 2972.98 55.48
3440 78.7400 2961.70 2974.57 54.42
3441 78.7600 2968.30 2979.00 54.48
3442 78.7800 3033.50 2985.35 55.08
3443 78.8000 2980.20 2993.71 54.59
3444 78.8200 3108.90 3003.44 55.76
3445 78.8400 3030.00 3013.65 55.05
3446 78.8600 3049.10 3023.44 55.22
3447 78.8800 3054.60 3032.23 55.27
3448 78.9000 3017.90 3039.77 54.94
3449 78.9200 3111.10 3046.45 55.78
3450 78.9400 3105.30 3053.57 55.73
3451 78.9600 3124.90 3062.77 55.90
3452 78.9800 3174.90 3075.15 56.35
3453 79.0000 3063.80 3090.54 55.35
3454 79.0200 3093.50 3107.47 55.62
3455 79.0400 3107.10 3124.07 55.74
3456 79.0600 3152.10 3139.82 56.14
3457 79.0800 3221.30 3156.57 56.76
3458 79.1000 3249.90 3175.95 57.01
3459 79.1200 3194.60 3198.92 56.52
3460 79.1400 3235.10 3223.75 56.88
3461 79.1600 3304.40 3247.32 57.48
3462 79.1800 3289.40 3267.55 57.35
3463 79.2000 3422.90 3285.57 58.51
3464 79.2200 3375.10 3304.58 58.10
3465 79.2400 3315.60 3326.78 57.58
3466 79.2600 3314.90 3352.02 57.58
3467 79.2800 3397.00 3379.85 58.28
3468 79.3000 3463.60 3411.54 58.85
3469 79.3200 3458.50 3448.81 58.81
3470 79.3400 3499.30 3489.37 59.15
3471 79.3600 3559.40 3525.63 59.66
3472 79.3800 3540.00 3547.17 59.50
3473 79.4000 3578.10 3547.29 59.82
3474 79.4200 3545.30 3527.21 59.54
3475 79.4400 3449.40 3494.90 58.73
3476 79.4600 3519.50 3460.55 59.33
3477 79.4800 3386.30 3431.70 58.19
3478 79.5000 3368.40 3411.01 58.04
3479 79.5200 3554.50 3397.25 59.62
3480 79.5400 3547.60 3387.73 59.56
3481 79.5600 3430.60 3380.27 58.57
3482 79.5800 3415.50 3373.19 58.44
3483 79.6000 3427.90 3363.44 58.55
3484 79.6200 3363.80 3347.01 58.00
3485 79.6400 3376.00 3321.53 58.10
3486 79.6600 3367.40 3288.44 58.03
3487 79.6800 3319.90 3252.34 57.62
3488 79.7000 3298.50 3218.42 57.43
3489 79.7200 3266.40 3190.26 57.15
3490 79.7400 3233.40 3168.88 56.86
3491 79.7600 3229.30 3153.18 56.83
3492 79.7800 3184.20 3141.22 56.43
3493 79.8000 3190.40 3131.56 56.48
3494 79.8200 3111.50 3123.81 55.78
3495 79.8400 3135.20 3118.06 55.99
3496 79.8600 3161.20 3114.24 56.22
3497 79.8800 3099.60 3112.99 55.67
3498 79.9000 3085.70 3115.64 55.55
3499 79.9200 3012.60 3123.56 54.89
3500 79.9400 2987.90 3137.47 54.66
3501 79.9600 3090.60 3156.65 55.59
3502 79.9800 3149.30 3178.53 56.12
3503 80.0000 3074.40 3199.08 55.45
3504 80.0200 3069.10 3214.90 55.40
3505 80.0400 3126.80 3223.49 55.92
3506 80.0600 3227.40 3225.13 56.81
3507 80.0800 3141.40 3220.60 56.05
3508 80.1000 3075.20 3210.51 55.45
3509 80.1200 3107.50 3194.61 55.74
3510 80.1400 3032.00 3174.21 55.06
3511 80.1600 3063.00 3153.01 55.34
3512 80.1800 3115.40 3135.03 55.82
3513 80.2000 3067.30 3121.60 55.38
3514 80.2200 3049.60 3112.67 55.22
3515 80.2400 3038.90 3106.02 55.13
3516 80.2600 3098.20 3099.72 55.66
3517 80.2800 3034.40 3092.45 55.09
3518 80.3000 3056.20 3083.85 55.28
3519 80.3200 2998.90 3073.90 54.76
3520 80.3400 3079.30 3062.29 55.49
3521 80.3600 2889.40 3048.48 53.75
3522 80.3800 2962.20 3032.71 54.43
3523 80.4000 3054.20 3016.30 55.26
3524 80.4200 2956.60 3000.98 54.37
3525 80.4400 2915.00 2987.97 53.99
3526 80.4600 2889.10 2977.50 53.75
3527 80.4800 2942.50 2969.69 54.24
3528 80.5000 2942.90 2964.74 54.25
3529 80.5200 3057.30 2962.42 55.29
3530 80.5400 3017.80 2962.68 54.93
3531 80.5600 2973.50 2965.48 54.53
3532 80.5800 2970.50 2970.78 54.50
3533 80.6000 3000.40 2978.38 54.78
3534 80.6200 3023.40 2987.49 54.99
3535 80.6400 2943.90 2997.38 54.26
3536 80.6600 3074.40 3005.61 55.45
3537 80.6800 3103.60 3009.83 55.71
3538 80.7000 3024.90 3007.67 55.00
3539 80.7200 2969.90 3000.15 54.50
3540 80.7400 3097.70 2990.12 55.66
3541 80.7600 3053.30 2979.35 55.26
3542 80.7800 2909.90 2970.61 53.94
3543 80.8000 2902.20 2964.31 53.87
3544 80.8200 2946.50 2960.71 54.28
3545 80.8400 2959.30 2960.04 54.40
3546 80.8600 3012.70 2960.87 54.89
3547 80.8800 2918.60 2963.53 54.02
3548 80.9000 2914.60 2966.62 53.99
3549 80.9200 2926.50 2967.84 54.10
3550 80.9400 2978.90 2966.25 54.58
3551 80.9600 2891.20 2960.99 53.77
3552 80.9800 3065.50 2954.42 55.37
3553 81.0000 3020.00 2947.26 54.95
3554 81.0200 3010.30 2940.87 54.87
3555 81.0400 2994.70 2935.51 54.72
3556 81.0600 2930.60 2931.44 54.13
3557 81.0800 2919.20 2928.71 54.03
3558 81.1000 2872.20 2927.13 53.59
3559 81.1200 2926.70 2926.87 54.10
3560 81.1400 2986.30 2927.33 54.65
3561 81.1600 3031.00 2929.03 55.05
3562 81.1800 2890.90 2931.39 53.77
3563 81.2000 2979.60 2933.78 54.59
3564 81.2200 2913.00 2936.64 53.97
3565 81.2400 2922.40 2940.09 54.06
3566 81.2600 2882.40 2943.72 53.69
3567 81.2800 2983.60 2948.79 54.62
3568 81.3000 2953.70 2955.73 54.35
3569 81.3200 2980.70 2965.00 54.60
3570 81.3400 3014.50 2976.90 54.90
3571 81.3600 2987.20 2991.34 54.66
3572 81.3800 3083.50 3007.56 55.53
3573 81.4000 3006.30 3024.80 54.83
3574 81.4200 3043.80 3041.83 55.17
3575 81.4400 3123.50 3058.11 55.89
3576 81.4600 3090.90 3073.91 55.60
3577 81.4800 3103.00 3089.42 55.70
3578 81.5000 3101.50 3104.38 55.69
3579 81.5200 3116.50 3116.14 55.83
3580 81.5400 3064.70 3125.40 55.36
3581 81.5600 3046.60 3130.84 55.20
3582 81.5800 3099.30 3130.57 55.67
3583 81.6000 3089.70 3123.56 55.59
3584 81.6200 3184.20 3112.04 56.43
3585 81.6400 3252.90 3098.59 57.03
3586 81.6600 2956.10 3085.60 54.37
3587 81.6800 3062.50 3076.09 55.34
3588 81.7000 3054.10 3069.45 55.26
3589 81.7200 3118.40 3066.09 55.84
3590 81.7400 3061.40 3066.14 55.33
3591 81.7600 3097.60 3068.08 55.66
3592 81.7800 3067.90 3070.44 55.39
3593 81.8000 3095.00 3071.12 55.63
3594 81.8200 3062.70 3067.79 55.34
3595 81.8400 3116.50 3059.33 55.83
3596 81.8600 3067.80 3046.74 55.39
3597 81.8800 3020.60 3033.02 54.96
3598 81.9000 3056.60 3020.63 55.29
3599 81.9200 3057.80 3011.79 55.30
3600 81.9400 3036.50 3007.29 55.10
3601 81.9600 3048.70 3007.44 55.22
3602 81.9800 3036.60 3012.59 55.11
3603 82.0000 3029.90 3022.05 55.04
3604 82.0200 3034.50 3034.62 55.09
3605 82.0400 3069.20 3048.11 55.40
3606 82.0600 3094.00 3059.62 55.62
3607 82.0800 3221.30 3066.76 56.76
3608 82.1000 3213.20 3069.15 56.69
3609 82.1200 3097.20 3068.34 55.65
3610 82.1400 3157.00 3066.59 56.19
3611 82.1600 3198.10 3066.54 56.55
3612 82.1800 3212.90 3069.38 56.68
3613 82.2000 3174.50 3074.22 56.34
3614 82.2200 3126.00 3080.53 55.91
3615 82.2400 3117.70 3087.07 55.84
3616 82.2600 3185.10 3092.93 56.44
3617 82.2800 3136.10 3097.77 56.00
3618 82.3000 3117.10 3101.05 55.83
3619 82.3200 3136.70 3103.30 56.01
3620 82.3400 3073.40 3104.96 55.44
3621 82.3600 3095.80 3107.12 55.64
3622 82.3800 3113.00 3110.18 55.79
3623 82.4000 3037.70 3113.28 55.12
3624 82.4200 3072.90 3113.49 55.43
3625 82.4400 3156.40 3108.81 56.18
3626 82.4600 3141.10 3098.82 56.05
3627 82.4800 3122.20 3085.12 55.88
3628 82.5000 3103.60 3069.96 55.71
3629 82.5200 3073.00 3055.34 55.43
3630 82.5400 2998.40 3042.54 54.76
3631 82.5600 3032.50 3032.20 55.07
3632 82.5800 3100.50 3025.05 55.68
3633 82.6000 3041.40 3021.44 55.15
3634 82.6200 2978.10 3021.33 54.57
3635 82.6400 2941.30 3024.05 54.23
3636 82.6600 3023.60 3028.34 54.99
3637 82.6800 3019.10 3032.94 54.95
3638 82.7000 3016.50 3037.64 54.92
3639 82.7200 3083.40 3043.67 55.53
3640 82.7400 3075.40 3053.17 55.46
3641 82.7600 3046.70 3068.15 55.20
3642 82.7800 3090.60 3090.03 55.59
3643 82.8000 3159.40 3119.91 56.21
3644 82.8200 3103.20 3156.51 55.71
3645 82.8400 3191.00 3198.07 56.49
3646 82.8600 3178.90 3239.60 56.38
3647 82.8800 3212.10 3273.40 56.68
3648 82.9000 3395.80 3291.36 58.27
3649 82.9200 3324.20 3290.78 57.66
3650 82.9400 3253.80 3274.99 57.04
3651 82.9600 3220.90 3253.97 56.75
3652 82.9800 3237.20 3235.82 56.90
3653 83.0000 3107.00 3227.20 55.74
3654 83.0200 3167.80 3229.32 56.28
3655 83.0400 3154.50 3242.43 56.16
3656 83.0600 3105.40 3263.76 55.73
3657 83.0800 3267.10 3286.69 57.16
3658 83.1000 3061.70 3303.76 55.33
3659 83.1200 3224.00 3308.39 56.78
3660 83.1400 3256.40 3297.98 57.06
3661 83.1600 3260.90 3273.05 57.10
3662 83.1800 3206.20 3238.64 56.62
3663 83.2000 3234.50 3200.95 56.87
3664 83.2200 3128.10 3165.35 55.93
3665 83.2400 3029.00 3136.36 55.04
3666 83.2600 3121.00 3115.16 55.87
3667 83.2800 3180.80 3101.84 56.40
3668 83.3000 3152.10 3094.95 56.14
3669 83.3200 3085.70 3092.22 55.55
3670 83.3400 3074.60 3090.31 55.45
3671 83.3600 3055.30 3086.32 55.27
3672 83.3800 3065.00 3079.96 55.36
3673 83.4000 3056.00 3071.71 55.28
3674 83.4200 3016.40 3064.95 54.92
3675 83.4400 3098.80 3062.09 55.67
3676 83.4600 3067.70 3064.58 55.39
3677 83.4800 3067.20 3073.75 55.38
3678 83.5000 3038.60 3089.99 55.12
3679 83.5200 3111.50 3113.04 55.78
3680 83.5400 3208.50 3141.81 56.64
3681 83.5600 3175.80 3173.54 56.35
3682 83.5800 3232.70 3203.28 56.86
3683 83.6000 3288.00 3224.54 57.34
3684 83.6200 3419.80 3231.65 58.48
3685 83.6400 3443.20 3223.21 58.68
3686 83.6600 3351.80 3202.99 57.89
3687 83.6800 3275.70 3177.92 57.23
3688 83.7000 3256.60 3154.37 57.07
3689 83.7200 3110.20 3136.29 55.77
3690 83.7400 3129.00 3126.34 55.94
3691 83.7600 3123.90 3124.70 55.89
3692 83.7800 3230.00 3130.52 56.83
3693 83.8000 3140.20 3141.94 56.04
3694 83.8200 3220.20 3155.31 56.75
3695 83.8400 3217.30 3165.96 56.72
3696 83.8600 3233.00 3169.46 56.86
3697 83.8800 3281.20 3163.45 57.28
3698 83.9000 3373.10 3148.60 58.08
3699 83.9200 3156.80 3127.98 56.19
3700 83.9400 3248.90 3105.62 57.00
3701 83.9600 3097.90 3084.89 55.66
3702 83.9800 3120.30 3067.72 55.86
3703 84.0000 3098.00 3055.12 55.66
3704 84.0200 3005.90 3047.15 54.83
3705 84.0400 3048.60 3043.36 55.21
3706 84.0600 3018.20 3043.10 54.94
3707 84.0800 3028.00 3045.34 55.03
3708 84.1000 3008.90 3048.92 54.85
3709 84.1200 2972.10 3054.21 54.52
3710 84.1400 2986.40 3061.04 54.65
3711 84.1600 3008.10 3070.07 54.85
3712 84.1800 3024.30 3081.48 54.99
3713 84.2000 3191.20 3095.11 56.49
3714 84.2200 3036.40 3110.48 55.10
3715 84.2400 3087.70 3127.08 55.57
3716 84.2600 3085.20 3144.09 55.54
3717 84.2800 3124.50 3162.72 55.90
3718 84.3000 3207.60 3184.58 56.64
3719 84.3200 3186.90 3209.22 56.45
3720 84.3400 3236.80 3235.74 56.89
3721 84.3600 3233.10 3262.46 56.86
3722 84.3800 3140.60 3287.73 56.04
3723 84.4000 3144.80 3311.20 56.08
3724 84.4200 3149.00 3332.89 56.12
3725 84.4400 3254.30 3352.37 57.05
3726 84.4600 3314.30 3366.63 57.57
3727 84.4800 3345.00 3374.46 57.84
3728 84.5000 3240.50 3375.42 56.93
3729 84.5200 3283.20 3370.88 57.30
3730 84.5400 3264.60 3363.31 57.14
3731 84.5600 3311.00 3354.13 57.54
3732 84.5800 3320.70 3343.92 57.63
3733 84.6000 3249.10 3333.57 57.00
3734 84.6200 3269.90 3323.16 57.18
3735 84.6400 3242.30 3314.35 56.94
3736 84.6600 3309.20 3308.87 57.53
3737 84.6800 3253.60 3307.70 57.04
3738 84.7000 3184.10 3310.68 56.43
3739 84.7200 3210.40 3316.83 56.66
3740 84.7400 3274.70 3324.97 57.22
3741 84.7600 3260.80 3333.90 57.10
3742 84.7800 3298.60 3341.49 57.43
3743 84.8000 3388.00 3346.12 58.21
3744 84.8200 3316.90 3343.15 57.59
3745 84.8400 3367.70 3329.77 58.03
3746 84.8600 3336.30 3307.14 57.76
3747 84.8800 3295.10 3279.13 57.40
3748 84.9000 3304.90 3250.84 57.49
3749 84.9200 3237.00 3225.98 56.89
loop_
_pd_proc_info_excluded_regions
'from 2 to 10.000'
loop_
_restr_distance_atom_site_label_1
_restr_distance_atom_site_label_2
_restr_distance_site_symmetry_2
_restr_distance_target
_restr_distance_target_weight_param
C1 C2 . 1.4 0.005
C2 C1 4_575 1.4 0.005
C1 C4 . 1.4 0.005
C4 C6 . 1.4 0.005
C6 C4 4_575 1.4 0.005
C4 C5 . 1.51 0.005
C5 N1 . 1.45 0.001
S1 O1 . 1.48 0.005
S1 O2 2_465 1.48 0.005
S1 O3 . 1.44 0.005
S1 O3 4_565 1.44 0.005
loop_
_restr_angle_atom_site_label_1
_restr_angle_atom_site_label_2
_restr_angle_atom_site_label_3
_restr_angle_site_symmetry_3
_restr_angle_target
_restr_angle_target_weight_param
C5 C4 C6 . 120 0.1
C5 C4 C1 . 120 0.1
C4 C1 C2 . 120 0.1
C4 C6 C4 4_575 120 0.1
C1 C2 C1 4_575 120 0.1
N1 C5 C4 . 109.47 0.01
loop_
_restr_equal_angle_atom_site_label_1
_restr_equal_angle_site_symmetry_1
_restr_equal_angle_atom_site_label_2
_restr_equal_angle_atom_site_label_3
_restr_equal_angle_site_symmetry_3
_restr_equal_angle_class_class_id
_restr_equal_angle_class_target_weight_param
O1 . S1 O2 2_465 0 0.01
O1 . S1 O3 . 0 0.01
O2 2_465 S1 O3 . 0 0.01
O3 . S1 O3 4_565 0 0.01
