#------------------------------------------------------------------------------
#$Date: 2019-11-17 14:30:37 +0200 (Sun, 17 Nov 2019) $
#$Revision: 230511 $
#$URL: file:///home/coder/svn-repositories/cod/cif/7/05/77/7057777.cif $
#------------------------------------------------------------------------------
#
# This file is available in the Crystallography Open Database (COD),
# http://www.crystallography.net/
#
# All data on this site have been placed in the public domain by the
# contributors.
#
data_7057777
loop_
_publ_author_name
'Cargnelutti, Roberta'
'Delgado, C\'assia P.'
'Cervo, Rodrigo'
'Tirloni, B\'arbara'
'Burrow, Robert A.'
'Lang, Ernesto S.'
_publ_section_title
;
 Synthesis and structural chemistry of CoII, CuII, CuI and PdII complexes
 containing a flexible monoselenoether ligand
;
_journal_issue                   21
_journal_name_full               'New Journal of Chemistry'
_journal_page_first              17185
_journal_paper_doi               10.1039/C8NJ03621G
_journal_volume                  42
_journal_year                    2018
_chemical_formula_moiety         'C11 H10 Cl2 Cu N2  Se'
_chemical_formula_sum            'C11 H10 Cl2 Cu N2 Se'
_chemical_formula_weight         383.61
_chemical_melting_point          400.1(10)
_space_group_crystal_system      triclinic
_space_group_IT_number           2
_space_group_name_Hall           '-P 1'
_space_group_name_H-M_alt        'P -1'
_symmetry_space_group_name_Hall  '-P 1'
_symmetry_space_group_name_H-M   'P -1'
_atom_sites_solution_hydrogens   geom
_atom_sites_solution_primary     dual
_atom_sites_solution_secondary   difmap
_audit_update_record
;
2018-05-23 deposited with the CCDC.
2018-09-27 downloaded from the CCDC.
;
_cell_angle_alpha                77.7050(17)
_cell_angle_beta                 81.6484(17)
_cell_angle_gamma                63.8415(15)
_cell_formula_units_Z            2
_cell_length_a                   6.9883(4)
_cell_length_b                   7.3034(4)
_cell_length_c                   14.1926(8)
_cell_measurement_reflns_used    720
_cell_measurement_temperature    100.(2)
_cell_measurement_theta_max      25.5649
_cell_measurement_theta_min      2.4511
_cell_volume                     634.17(6)
_computing_cell_refinement       'APEX3 v2016.1-0 (Bruker AXS)'
_computing_data_collection       'APEX3 v2015.5-2 (Bruker AXS Inc., 2015)'
_computing_data_reduction        'SAINT V8.34A (Bruker AXS Inc., 2013)'
_computing_molecular_graphics    'shelXle (C.B. Huebschle, rev 758)'
_computing_publication_material  vim
_computing_structure_refinement  'SHELXL-2014/7 (Sheldrick, 2014)'
_computing_structure_solution    'XT, VERSION 2014/4'
_diffrn_ambient_temperature      100.(2)
_diffrn_detector_area_resol_mean 10.4167
_diffrn_measured_fraction_theta_full 0.992
_diffrn_measured_fraction_theta_max 0.992
_diffrn_measurement_device_type  'Bruker D8 Venture Photon 100 diffractometer'
_diffrn_measurement_method       '0.5 \% \w & \f scans'
_diffrn_radiation_monochromator
'Incoatec Montel two dimensional X ray optics'
_diffrn_radiation_type           'Ag K\a'
_diffrn_radiation_wavelength     0.56086
_diffrn_reflns_av_R_equivalents  0.0225
_diffrn_reflns_av_unetI/netI     0.0390
_diffrn_reflns_limit_h_max       10
_diffrn_reflns_limit_h_min       -10
_diffrn_reflns_limit_k_max       11
_diffrn_reflns_limit_k_min       -11
_diffrn_reflns_limit_l_max       21
_diffrn_reflns_limit_l_min       -21
_diffrn_reflns_number            8907
_diffrn_reflns_theta_full        25.64
_diffrn_reflns_theta_max         25.64
_diffrn_reflns_theta_min         2.49
_diffrn_source                   'microfocus X ray tube'
_diffrn_source_type              'Incoatex I\mS High Brilliance'
_exptl_absorpt_coefficient_mu    2.625
_exptl_absorpt_correction_T_max  0.88
_exptl_absorpt_correction_T_min  0.68
_exptl_absorpt_correction_type   gaussian
_exptl_absorpt_process_details
;
SADABS (version 2014/5; Bruker, 2014) was used to perform the
absorption correction based on the face index crystal dimensions.
;
_exptl_crystal_colour            yellow
_exptl_crystal_density_diffrn    2.009
_exptl_crystal_density_method    'not measured'
_exptl_crystal_description       'triangular plate'
_exptl_crystal_F_000             374
_exptl_crystal_size_max          0.231
_exptl_crystal_size_mid          0.198
_exptl_crystal_size_min          0.048
_refine_diff_density_max         0.912
_refine_diff_density_min         -0.776
_refine_ls_extinction_method     none
_refine_ls_goodness_of_fit_ref   1.182
_refine_ls_hydrogen_treatment    constr
_refine_ls_matrix_type           full
_refine_ls_number_parameters     161
_refine_ls_number_reflns         4843
_refine_ls_number_restraints     5
_refine_ls_restrained_S_all      1.191
_refine_ls_R_factor_all          0.0497
_refine_ls_R_factor_gt           0.0405
_refine_ls_shift/su_max          0.000
_refine_ls_shift/su_mean         0.000
_refine_ls_structure_factor_coef Fsqd
_refine_ls_weighting_details
'w=1/[\s^2^(Fo^2^)+2.0050P] where P=(Fo^2^+2Fc^2^)/3'
_refine_ls_weighting_scheme      calc
_refine_ls_wR_factor_gt          0.0894
_refine_ls_wR_factor_ref         0.0916
_reflns_number_gt                4134
_reflns_number_total             4843
_reflns_threshold_expression     'I > 2\s(I)'
_cod_data_source_file            c8nj03621g2.cif
_cod_data_source_block           compound_2b
_cod_depositor_comments
;
The following automatic conversions were performed:

'_chemical_melting_point' value '399.15-401.15 K' was changed to
'400.1(10)' - the average value was taken and precision was
estimated.

Automatic conversion script
Id: cif_fix_values 4973 2017-02-22 13:04:09Z antanas 

 Adding full bibliography for 7057773--7057780.cif.
;
_cod_database_code               7057777
_shelx_res_file
;


    ag_BTCD78amarelo_rem_0m_4.res created by SHELXL-2014/7


TITL ag_BTCD78amarelo_rem_0m_4_a.res in P-1
REM Old TITL ag_BTCD78amarelo_rem_0m_4.hkl
REM SHELXT solution in P-1
REM R1 0.085,  Rweak 0.012,  Alpha 0.050,  Orientation as input
REM Formula found by SHELXT:  C10 Cl2 N3 Se Cu
CELL  0.56086   6.9883    7.3034   14.1926   77.7050   81.6484   63.8415
ZERR    2.000   0.0004    0.0004    0.0008    0.0017    0.0017    0.0015
LATT  1
SFAC C CL H N SE CU
UNIT 22 4 20 4 2 2
LIST 4 ! automatically inserted. Change 6 to 4 for CHECKCIF!!
SIZE 0.048 0.198 0.231
L.S. 10
OMIT 0 0 2
BOND $H
LIST 6
FMAP 2
PLAN 20
ACTA
HTAB
REM Instructions for potential hydrogen bonds
REM This list contains "non-classical" H bonds!
EQIV $1 -x, -y+1, -z+1
HTAB C3 Cl2_$1
EQIV $2 x+1, y, z
HTAB C7 Cl2_$2
HTAB C7 Cl2
EQIV $3 x, y+1, z
HTAB C7A Cl2_$3
EQIV $4 -x, -y+2, -z
HTAB C11 Cl1_$4
CONF 2.9
BIND C6 C7A
REM The C atoms go NPD unless EADP used. DELU & SIMU don't help.
EADP Se1 C7A
EADP  Se1A C7
REM To get the bond distances a bit closer to normal.
SADI C6 Se1 C8 Se1A
SADI Se1 C7 Se1A C7A
SADI C7 C6 C7A C8
SADI 0.04 C8 Se1 C6 Se1A
SADI 0.04 C6 C7 C8 C7A
TEMP -173.15
WGHT    0.000000    2.005000
FVAR       0.76790   0.86744
PART 1 21.0
SE1   5    0.586643    0.851885    0.302013    21.00000    0.01970    0.02024 =
         0.01444   -0.00320    0.00256   -0.01150
PART 0
PART 2 -21.0
SE1A  5    0.729383    0.624710    0.238264   -21.00000    0.00942    0.02286 =
         0.01512    0.00273   -0.00716   -0.00793
PART 0
CU1   6    0.219700    0.745919    0.241767    11.00000    0.01463    0.01539 =
         0.01266   -0.00286    0.00160   -0.00506
CL1   2   -0.027874    1.064759    0.198425    11.00000    0.01800    0.01962 =
         0.02130   -0.00161    0.00232   -0.00163
CL2   2    0.268787    0.415900    0.274312    11.00000    0.02607    0.01802 =
         0.02150   -0.00610    0.00563   -0.01162
N1    4    0.235991    0.758202    0.379707    11.00000    0.01655    0.01490 =
         0.01416   -0.00343    0.00051   -0.00513
N13   4    0.403478    0.730659    0.119790    11.00000    0.01638    0.01426 =
         0.01494   -0.00202    0.00181   -0.00591
C2    1    0.099343    0.724612    0.451310    11.00000    0.01885    0.01790 =
         0.01785   -0.00198    0.00301   -0.00763
AFIX  43
H2    3   -0.009270    0.692735    0.436027    11.00000   -1.20000
AFIX   0
C3    1    0.112363    0.735098    0.546053    11.00000    0.02320    0.01661 =
         0.01664    0.00001    0.00276   -0.00617
AFIX  43
H3    3    0.010918    0.716156    0.594731    11.00000   -1.20000
AFIX   0
C4    1    0.275826    0.773703    0.568954    11.00000    0.02986    0.01622 =
         0.01524   -0.00265   -0.00121   -0.00736
AFIX  43
H4    3    0.286232    0.784731    0.633335    11.00000   -1.20000
AFIX   0
C5    1    0.424617    0.796098    0.496216    11.00000    0.02274    0.01846 =
         0.02122   -0.00622   -0.00179   -0.00804
AFIX  43
H5    3    0.543141    0.813661    0.511034    11.00000   -1.20000
AFIX   0
C6    1    0.397306    0.792396    0.401339    11.00000    0.01737    0.01647 =
         0.01709   -0.00443    0.00116   -0.00635
PART 1 21.0
C7    1    0.684664    0.615298    0.231556    21.00000    0.00942    0.02286 =
         0.01512    0.00273   -0.00716   -0.00793
AFIX  23
H7A   3    0.842648    0.545506    0.229018    21.00000   -1.20000
H7B   3    0.630812    0.514246    0.268057    21.00000   -1.20000
AFIX   0
PART 2 -21.0
C7A   1    0.541548    0.868490    0.306085   -21.00000    0.01970    0.02024 =
         0.01444   -0.00320    0.00256   -0.01150
AFIX  23
H7AA  3    0.631438    0.920871    0.329641   -21.00000   -1.20000
H7AB  3    0.443338    0.981742    0.260143   -21.00000   -1.20000
AFIX   0
PART 0
C8    1    0.611153    0.677997    0.129303    11.00000    0.01614    0.01659 =
         0.02026   -0.00617    0.00329   -0.00616
C9    1    0.751165    0.678310    0.049195    11.00000    0.01956    0.02458 =
         0.02585   -0.00970    0.00744   -0.00979
AFIX  43
H9    3    0.896007    0.645387    0.057207    11.00000   -1.20000
AFIX   0
C10   1    0.677755    0.727102   -0.042632    11.00000    0.02775    0.02160 =
         0.02119   -0.00799    0.01127   -0.01174
AFIX  43
H10   3    0.771812    0.726785   -0.098181    11.00000   -1.20000
AFIX   0
C11   1    0.464863    0.776404   -0.052191    11.00000    0.02818    0.01655 =
         0.01623   -0.00265    0.00118   -0.00696
AFIX  43
H11   3    0.411181    0.807906   -0.114229    11.00000   -1.20000
AFIX   0
C12   1    0.331405    0.778702    0.031264    11.00000    0.02000    0.01721 =
         0.01566   -0.00227    0.00120   -0.00525
AFIX  43
H12   3    0.184811    0.815489    0.025132    11.00000   -1.20000
AFIX   0
HKLF 4

REM  ag_BTCD78amarelo_rem_0m_4_a.res in P-1
REM R1 =  0.0405 for    4134 Fo > 4sig(Fo)  and  0.0497 for all    4843 data
REM    161 parameters refined using      5 restraints

END

WGHT      0.0000      1.9855

REM Instructions for potential hydrogen bonds
HTAB C3 Cl2_$1
HTAB C7 Cl2_$2
HTAB C7 Cl2
HTAB C7A Cl2_$3
HTAB C11 Cl1_$4

REM Highest difference peak  0.912,  deepest hole -0.776,  1-sigma level  0.129
Q1    1   0.7868  0.5650  0.2219  11.00000  0.05    0.91
Q2    1   0.1860  0.6967  0.3163  11.00000  0.05    0.72
Q3    1   0.1846  0.6374  0.3704  11.00000  0.05    0.67
Q4    1   0.6043  0.9192  0.2302  11.00000  0.05    0.65
Q5    1   0.5372  0.9380  0.3092  11.00000  0.05    0.64
Q6    1   0.1831  0.8354  0.1670  11.00000  0.05    0.62
Q7    1   0.5077  0.8834  0.2782  11.00000  0.05    0.58
Q8    1   0.7148  0.6824  0.2506  11.00000  0.05    0.58
Q9    1   0.2884  0.9696  0.3021  11.00000  0.05    0.56
Q10   1   0.5826  0.7826  0.3781  11.00000  0.05    0.55
Q11   1   0.8155  0.5799  0.2562  11.00000  0.05    0.55
Q12   1   0.0703  0.7382  0.2868  11.00000  0.05    0.55
Q13   1   0.3732  1.0237 -0.1767  11.00000  0.05    0.54
Q14   1   0.0082  1.1249  0.1309  11.00000  0.05    0.54
Q15   1   0.2511  0.7977  0.1692  11.00000  0.05    0.51
Q16   1   0.7181  0.7010  0.5991  11.00000  0.05    0.51
Q17   1   0.6598  0.8253  0.3284  11.00000  0.05    0.47
Q18   1  -0.0953  0.9553  0.3181  11.00000  0.05    0.45
Q19   1  -0.0899  0.8800  0.2351  11.00000  0.05    0.44
Q20   1   0.6722  0.6413  0.0889  11.00000  0.05    0.44
;
_shelx_res_checksum              38274
_shelx_hkl_file
;
  -1   0   0 1678.95 51.5388
   1   0   0 1667.25 43.6232
  -2   0   0 1220.21 32.1226
   2   0   0 1210.07 32.1199
  -3   0   0 316.658 9.65596
   3   0   0 338.410 11.2756
  -4   0   0 476.907 11.1584
   4   0   0 456.104 12.9441
  -5   0   0 1275.43 29.2603
   5   0   0 1270.01 33.9729
  -6   0   0 1289.73 53.2163
   6   0   0 1197.11 40.8581
  -7   0   0 67.7523 5.58257
   7   0   0 61.8443 5.45681
  -8   0   0 4.04324 4.48508
   8   0   0 2.51901 4.57178
  -9   0   0 19.0496 5.73644
   9   0   0 12.2073 5.95473
   9  -1   0 7.03266 6.80487
  -9   1   0 5.79890 6.29707
   8  -1   0 194.312 10.4888
  -8   1   0 186.997 11.3816
   7  -1   0 1.06826 4.13056
  -7   1   0 1.92258 4.05559
   6  -1   0 274.882 11.6226
  -6   1   0 275.402 11.7165
   5  -1   0 229.297 9.70727
  -5   1   0 233.829 9.28796
   4  -1   0 12.4190 2.33528
  -4   1   0 9.52054 2.06341
   3  -1   0 621.272 20.8379
  -3   1   0 607.282 21.6550
   2  -1   0 102.591 4.07061
  -2   1   0 131.016 7.18967
   1  -1   0 1094.67 34.4037
  -1   1   0 1136.75 47.6492
   0  -1   0 156.458 5.31508
   0   1   0 162.350 7.08040
  -1  -1   0 1086.43 37.2395
   1   1   0 1018.50 33.0153
  -3  -1   0 331.300 9.19454
   3   1   0 322.088 9.14795
  -4  -1   0 492.523 11.6834
   4   1   0 499.231 13.7378
  -5  -1   0 1136.69 26.3829
   5   1   0 1157.38 30.5789
  -6  -1   0 354.424 9.09844
   6   1   0 364.130 10.7071
  -7  -1   0 77.4183 3.90119
   7   1   0 88.2944 4.79896
  -8  -1   0 727.498 25.8371
   8   1   0 732.725 24.2922
  -9  -1   0 38.7857 7.75926
   9   1   0 46.8865 5.44408
 -10  -1   0 95.5263 16.5457
  10   1   0 62.9293 8.38272
   8  -2   0 5.59032 6.45958
  -8   2   0 11.0305 6.16795
   7  -2   0 11.7854 5.11373
  -7   2   0 8.27623 4.97795
   6  -2   0 350.440 13.4516
  -6   2   0 354.200 13.8882
   5  -2   0 496.829 17.2260
  -5   2   0 473.034 17.2406
   4  -2   0 691.002 22.5769
  -4   2   0 694.935 23.4988
   3  -2   0 2625.78 81.5431
  -3   2   0 2616.48 112.831
   2  -2   0 446.264 19.9472
  -2   2   0 418.282 19.9079
   1  -2   0 39.9744 2.08384
  -1   2   0 44.8422 3.31764
  -1  -2   0 4237.27 135.723
   1   2   0 4259.30 139.101
  -2  -2   0 2578.17 57.0635
   2   2   0 2412.27 66.2966
  -3  -2   0 507.678 14.0636
   3   2   0 493.883 17.1945
  -4  -2   0 1653.35 54.4390
   4   2   0 1612.58 54.3999
  -5  -2   0 296.876 8.95594
   5   2   0 292.556 11.2704
  -6  -2   0 335.741 10.0741
   6   2   0 311.352 12.6992
  -7  -2   0 505.660 15.4327
   7   2   0 530.565 14.8037
  -8  -2   0 0.00000 7.06558
   8   2   0 1.10776 2.91376
  -9  -2   0 2.22611 4.45902
   9   2   0 13.8836 6.86620
 -10  -2   0 123.308 10.2850
  10   2   0 138.143 11.8984
   8  -3   0 14.7921 7.73807
  -8   3   0 11.8588 7.48627
   7  -3   0 377.203 24.4263
  -7   3   0 439.909 15.0444
   6  -3   0 77.4265 6.16120
  -6   3   0 70.7830 5.99834
   5  -3   0 4.45973 4.69102
  -5   3   0 9.03796 3.84612
   4  -3   0 48.8318 5.25957
  -4   3   0 51.9183 4.05070
   3  -3   0 252.814 9.52809
  -3   3   0 254.839 8.06402
   2  -3   0 659.624 28.9640
  -2   3   0 626.620 21.2036
  -1   3   0 9999.99 465.862
   0  -3   0 267.219 9.05616
   0   3   0 262.064 9.03868
  -1  -3   0 1808.77 57.7914
   1   3   0 1854.09 57.7986
  -2  -3   0 68.6470 3.13099
   2   3   0 75.8244 2.72947
  -3  -3   0 1232.93 32.5124
   3   3   0 1135.14 38.6375
  -4  -3   0 2515.23 67.5448
   4   3   0 2452.41 122.973
  -5  -3   0 2094.07 48.9630
   5   3   0 2123.62 103.918
  -6  -3   0 319.271 9.80129
   6   3   0 302.882 12.2000
  -7  -3   0 116.170 5.97941
   7   3   0 118.144 8.35811
  -8  -3   0 286.957 10.1770
   8   3   0 282.641 13.0380
  -9  -3   0 74.5805 5.86075
   9   3   0 78.6643 7.87972
 -10  -3   0 55.3778 5.98825
  10   3   0 60.1390 9.21006
   7  -4   0 207.484 13.2341
  -7   4   0 203.893 11.6764
   6  -4   0 19.8467 9.10103
  -6   4   0 6.23947 4.89762
   5  -4   0 51.4409 5.42611
  -5   4   0 53.6835 5.24905
   4  -4   0 64.8412 7.17744
  -4   4   0 74.8204 5.23934
   3  -4   0 398.599 14.2800
  -3   4   0 413.715 14.5637
   2  -4   0 544.094 15.0824
  -2   4   0 561.360 19.0168
   1  -4   0 60.5247 3.65087
  -1   4   0 70.8758 4.80240
   0  -4   0 307.786 8.56249
   0   4   0 295.654 10.5265
  -1  -4   0 1120.48 36.1433
   1   4   0 1140.76 36.1466
  -2  -4   0 635.009 20.6562
   2   4   0 639.541 17.4336
  -3  -4   0 137.114 4.54996
   3   4   0 139.492 4.55279
  -4  -4   0 346.589 10.2160
   4   4   0 335.612 11.7040
  -5  -4   0 434.317 10.9904
   5   4   0 429.247 23.2273
  -6  -4   0 146.706 5.36120
   6   4   0 171.299 11.4439
  -7  -4   0 1119.59 27.1520
   7   4   0 1155.53 57.8257
  -8  -4   0 305.615 9.38840
   8   4   0 310.642 20.1713
  -9  -4   0 232.943 8.94249
   9   4   0 307.759 20.2667
 -10  -4   0 24.4020 5.77392
  10   4   0 43.3398 12.9152
   6  -5   0 175.786 12.1216
  -6   5   0 194.347 11.4335
   5  -5   0 419.485 16.2780
  -5   5   0 431.868 15.0613
   4  -5   0 355.616 14.5056
  -4   5   0 335.121 14.0659
   3  -5   0 60.0712 5.05159
  -3   5   0 56.4244 6.15573
   2  -5   0 12.5311 2.61329
  -2   5   0 19.0788 3.70372
   1  -5   0 2605.24 80.8529
  -1   5   0 2583.07 82.7412
   0  -5   0 40.1864 2.64459
   0   5   0 41.9405 3.35294
  -1  -5   0 1246.71 32.6639
   1   5   0 1239.14 39.8433
  -2  -5   0 784.873 21.1253
   2   5   0 801.543 21.7117
  -3  -5   0 415.164 14.0502
   3   5   0 419.119 11.9082
  -4  -5   0 520.251 12.4955
   4   5   0 509.385 14.3984
  -5  -5   0 307.359 8.28860
   5   5   0 299.274 17.5232
  -6  -5   0 349.704 9.54721
   6   5   0 347.246 20.1061
  -7  -5   0 33.7391 4.83216
   7   5   0 25.7296 6.87360
  -8  -5   0 7.03512 3.64450
   8   5   0 10.5564 7.53480
  -9  -5   0 198.571 8.41767
   9   5   0 212.240 18.3485
 -10  -5   0 209.653 9.75957
  10   5   0 224.566 21.2375
   5  -6   0 3.83964 6.85185
  -5   6   0 21.2048 6.36012
   4  -6   0 202.518 10.9582
  -4   6   0 207.157 10.2245
   3  -6   0 123.499 11.6574
  -3   6   0 117.491 9.18641
   2  -6   0 1012.88 34.0780
  -2   6   0 1073.38 34.5217
   1  -6   0 577.612 19.4534
  -1   6   0 590.678 20.1342
   0  -6   0 729.251 20.3379
   0   6   0 809.577 26.2743
  -1  -6   0 218.738 7.26027
   1   6   0 223.606 8.80847
  -2  -6   0 130.182 5.10111
   2   6   0 119.850 6.09249
  -3  -6   0 552.789 15.0682
   3   6   0 538.936 15.4270
  -4  -6   0 2100.08 54.1536
   4   6   0 2065.62 55.5260
  -5  -6   0 210.887 6.49612
   5   6   0 201.601 8.25546
  -6  -6   0 16.8692 3.16611
   6   6   0 20.1329 6.40937
  -7  -6   0 258.590 8.33192
   7   6   0 269.943 17.3541
  -8  -6   0 26.8318 4.26647
   8   6   0 29.2183 8.33248
  -9  -6   0 183.195 8.38267
   9   6   0 174.326 17.5793
 -10  -6   0 61.5492 6.43710
  10   6   0 67.1055 12.9888
   4  -7   0 235.225 13.3372
  -4   7   0 252.130 11.7508
   3  -7   0 73.5928 7.04385
  -3   7   0 70.4036 7.40186
   2  -7   0 7.27592 3.68008
  -2   7   0 10.1762 5.04900
   1  -7   0 5.50431 4.75302
  -1   7   0 5.69087 4.24934
   0  -7   0 205.641 9.87996
   0   7   0 259.202 14.8228
  -1  -7   0 918.343 24.7795
   1   7   0 910.756 30.2256
  -2  -7   0 91.0838 4.96139
   2   7   0 88.4644 5.95684
  -3  -7   0 1.85916 2.77933
   3   7   0 2.57733 2.82111
  -4  -7   0 67.8154 4.33086
   4   7   0 68.2282 4.30068
  -5  -7   0 5.20519 2.37907
   5   7   0 0.87853 3.11446
  -6  -7   0 1443.50 39.2142
   6   7   0 1470.18 47.6383
  -7  -7   0 366.163 10.5872
   7   7   0 348.071 22.1341
  -8  -7   0 107.461 6.10058
  -9  -7   0 5.94712 6.29488
   9   7   0 10.8723 10.7204
 -10  -7   0 3.99108 6.25054
  10   7   0 2.58764 13.4701
   3  -8   0 13.0430 10.1773
  -3   8   0 24.0001 7.37380
   2  -8   0 506.519 15.4460
  -2   8   0 542.566 20.1054
   1  -8   0 8.64400 4.61449
  -1   8   0 16.9749 5.49643
   0  -8   0 133.890 6.73635
   0   8   0 126.819 12.1024
  -1  -8   0 325.189 11.0713
   1   8   0 349.134 13.2485
  -2  -8   0 21.4472 3.79176
   2   8   0 21.8739 4.29473
  -3  -8   0 357.353 11.1158
   3   8   0 342.403 11.2508
  -4  -8   0 47.5448 3.91599
   4   8   0 42.5255 4.04522
  -5  -8   0 0.46232 3.14499
   5   8   0 4.72886 3.41764
  -6  -8   0 19.0189 5.39135
   6   8   0 4.73273 4.02747
  -7  -8   0 24.4626 4.95000
   7   8   0 16.6071 12.7525
  -8  -8   0 333.378 11.0929
   8   8   0 349.413 23.0359
  -9  -8   0 253.562 10.6452
   9   8   0 276.406 21.4839
   1  -9   0 151.037 8.20825
  -1   9   0 150.828 11.3634
   0  -9   0 80.2330 6.99891
   0   9   0 86.0927 7.48068
  -1  -9   0 50.9180 5.10871
   1   9   0 56.6375 6.43994
  -2  -9   0 66.0905 5.15219
   2   9   0 64.7954 6.24756
  -3  -9   0 854.153 23.7322
   3   9   0 848.294 28.8036
  -4  -9   0 17.7440 4.99057
   4   9   0 20.7590 4.96180
  -5  -9   0 0.53265 3.94555
   5   9   0 2.61535 4.71770
  -6  -9   0 62.7775 5.70802
   6   9   0 48.5351 6.29384
  -7  -9   0 53.8297 6.02822
   7   9   0 47.9375 5.07432
  -8  -9   0 128.425 10.1343
   8   9   0 158.989 18.4332
  -9  -9   0 39.7014 9.56156
   9   9   0 39.3180 13.5629
  -1 -10   0 9.11131 6.87514
   1  10   0 14.3769 7.25822
  -2 -10   0 3.15664 5.64592
   2  10   0 4.33074 5.94232
  -3 -10   0 7.65192 5.25263
   3  10   0 3.29589 5.49333
  -4 -10   0 0.00000 5.08047
   4  10   0 4.49161 5.42136
  -5 -10   0 516.105 16.2727
   5  10   0 529.649 16.6846
  -6 -10   0 31.1966 6.12040
   6  10   0 16.0016 6.05224
  -7 -10   0 77.8842 7.42688
   7  10   0 83.5719 8.71404
  -8 -10   0 2.11033 9.21793
   8  10   0 17.7020 14.2141
   7  10  -1 0.00000 11.9190
  -7 -10   1 0.14777 7.65678
   6  10  -1 290.334 24.5439
  -6 -10   1 306.513 12.1889
   5  10  -1 19.2593 5.55768
  -5 -10   1 12.7608 5.84204
   4  10  -1 37.3975 5.90911
  -4 -10   1 33.6511 6.02486
   3  10  -1 169.602 9.47227
  -3 -10   1 172.444 9.27425
   2  10  -1 267.237 11.6835
  -2 -10   1 276.504 11.1345
   1  10  -1 25.1660 7.44990
  -1 -10   1 27.4401 6.94956
   9   9  -1 21.2514 13.9000
  -9  -9   1 25.0031 9.43035
   8   9  -1 124.417 15.1576
  -8  -9   1 119.684 8.20970
   7   9  -1 39.1515 5.30502
  -7  -9   1 42.4786 5.83811
   6   9  -1 337.058 13.7836
  -6  -9   1 315.324 14.7916
   5   9  -1 133.031 8.41790
  -5  -9   1 130.235 7.17906
   4   9  -1 354.096 14.1159
  -4  -9   1 367.617 14.1807
   3   9  -1 111.568 8.33378
  -3  -9   1 119.043 8.55621
   2   9  -1 6.50779 4.59734
  -2  -9   1 9.30026 4.34917
   1   9  -1 24.3308 5.89445
  -1  -9   1 19.9950 4.81782
   0   9  -1 426.923 17.1796
   0  -9   1 430.265 16.6883
  -1   9  -1 6.04062 7.04059
   1  -9   1 2.33164 5.12861
   9   8  -1 0.00000 11.8617
  -9  -8   1 7.06660 5.91257
   8   8  -1 4.28982 10.0245
  -8  -8   1 7.99207 5.08415
   7   8  -1 68.8010 6.70970
  -7  -8   1 52.4519 5.48148
   6   8  -1 1109.05 36.6156
  -6  -8   1 1075.78 36.8913
   5   8  -1 28.6387 4.28440
  -5  -8   1 30.7024 4.17684
   4   8  -1 10.2861 3.81669
  -4  -8   1 13.5825 3.45566
   3   8  -1 20.2412 3.75049
  -3  -8   1 13.8029 4.07302
   2   8  -1 42.1370 4.90111
  -2  -8   1 44.2701 4.09089
   1   8  -1 187.370 9.25910
  -1  -8   1 183.452 7.78225
   0   8  -1 107.539 7.40813
   0  -8   1 117.365 6.50475
  -1   8  -1 32.5705 5.84577
   1  -8   1 40.1379 4.34318
  -2   8  -1 106.473 8.30211
   2  -8   1 79.6612 5.28569
  -3   8  -1 16.9948 7.60438
   3  -8   1 5.57269 9.86871
  10   7  -1 24.3966 13.2782
 -10  -7   1 14.4371 6.42414
   9   7  -1 433.523 28.3195
  -9  -7   1 438.055 13.4021
  -8  -7   1 34.9554 4.76898
   7   7  -1 56.9673 9.62459
  -7  -7   1 62.7142 4.57540
   6   7  -1 6.45627 3.29590
  -6  -7   1 17.8995 4.71344
   5   7  -1 238.196 10.0192
  -5  -7   1 248.454 8.48927
   4   7  -1 1434.64 39.3429
  -4  -7   1 1465.74 38.1700
   3   7  -1 914.522 29.1086
  -3  -7   1 867.336 24.4036
   2   7  -1 5.06212 3.53890
  -2  -7   1 1.33208 2.70401
   1   7  -1 151.627 10.2407
  -1  -7   1 135.665 5.98494
   0   7  -1 25.6311 4.15193
   0  -7   1 29.7013 3.40179
  -1   7  -1 0.87520 4.21766
   1  -7   1 5.72641 4.69941
  -2   7  -1 628.910 21.6400
   2  -7   1 582.032 21.3217
  -3   7  -1 40.8150 6.72999
   3  -7   1 48.9990 6.30712
  -4   7  -1 16.5491 6.27701
   4  -7   1 10.1666 7.13370
  10   6  -1 16.4359 13.7405
 -10  -6   1 24.7250 6.26998
   9   6  -1 175.789 17.3890
  -9  -6   1 151.628 8.21261
  -8  -6   1 14.0898 4.07753
   7   6  -1 829.721 43.9400
  -7  -6   1 835.128 20.9314
   6   6  -1 562.595 30.8411
  -6  -6   1 572.883 14.7911
   5   6  -1 170.329 7.37625
  -5  -6   1 168.474 6.71301
   4   6  -1 1292.41 35.2059
  -4  -6   1 1317.42 34.3320
   3   6  -1 37.6433 3.00725
  -3  -6   1 45.7699 3.00323
   2   6  -1 610.399 17.2943
  -2  -6   1 614.815 16.8225
   1   6  -1 1220.64 39.2752
  -1  -6   1 1215.29 32.1892
   0   6  -1 190.880 8.07400
   0  -6   1 176.196 6.39409
  -1   6  -1 1066.91 34.7440
   1  -6   1 1052.83 34.0120
  -2   6  -1 101.129 10.3819
   2  -6   1 112.243 6.08276
  -3   6  -1 86.3959 6.39460
   3  -6   1 93.9621 10.8180
  -4   6  -1 297.822 11.4076
   4  -6   1 289.212 13.1843
  -5   6  -1 179.037 10.4941
   5  -6   1 157.247 11.9191
  10   5  -1 8.41776 11.7701
 -10  -5   1 11.7001 5.83028
   9   5  -1 9.50146 10.3194
  -9  -5   1 4.96733 4.60731
   8   5  -1 0.00000 7.56348
  -8  -5   1 4.94955 3.67466
  -7  -5   1 914.917 22.9204
   6   5  -1 3.62035 5.38809
  -6  -5   1 0.14955 2.66705
   5   5  -1 0.53343 2.08178
  -5  -5   1 1.98509 2.21476
   4   5  -1 159.761 6.62752
  -4  -5   1 158.079 5.04536
   3   5  -1 237.764 7.34198
  -3  -5   1 233.892 7.12881
   2   5  -1 1319.35 35.7518
  -2  -5   1 1339.29 34.8341
   1   5  -1 123.873 5.58868
  -1  -5   1 126.018 4.67238
   0   5  -1 51.3934 4.07634
   0  -5   1 56.8007 3.32308
  -1   5  -1 74.3978 4.68846
   1  -5   1 55.4140 4.32948
  -2   5  -1 751.256 24.2759
   2  -5   1 703.184 19.4984
  -3   5  -1 267.000 11.0021
   3  -5   1 255.866 10.6679
  -4   5  -1 147.399 9.24666
   4  -5   1 159.772 8.98886
  -5   5  -1 100.435 6.45219
   5  -5   1 111.720 8.01292
  -6   5  -1 4.75382 6.09645
   6  -5   1 4.80754 6.71162
  10   4  -1 366.763 26.9102
 -10  -4   1 348.619 12.0836
   9   4  -1 79.7671 11.2807
  -9  -4   1 76.2146 5.35981
   8   4  -1 102.448 12.7320
  -8  -4   1 90.9708 5.12514
   7   4  -1 5.05726 6.29135
  -7  -4   1 0.41228 3.54852
   6   4  -1 733.796 39.6302
  -6  -4   1 775.399 18.7307
   5   4  -1 2074.43 103.805
  -5  -4   1 2101.05 48.9049
   4   4  -1 2153.39 71.9956
  -4  -4   1 2269.67 51.8616
   3   4  -1 244.690 7.23591
  -3  -4   1 244.283 6.28660
   2   4  -1 593.317 16.4180
  -2  -4   1 605.320 16.0002
   1   4  -1 486.608 15.9254
  -1  -4   1 481.307 13.0712
   0   4  -1 175.508 6.74741
   0  -4   1 178.989 5.45983
  -1   4  -1 1706.20 54.3263
   1  -4   1 1709.98 53.4667
  -2   4  -1 1150.82 37.3906
   2  -4   1 1163.33 30.1333
  -3   4  -1 70.8828 5.04489
   3  -4   1 78.2778 5.48638
  -4   4  -1 169.676 7.57645
   4  -4   1 164.902 8.23266
  -5   4  -1 5.40692 4.77148
   5  -4   1 10.8023 4.61914
  -6   4  -1 99.7753 6.45523
   6  -4   1 100.245 11.5926
  -7   4  -1 44.7952 7.55222
   7  -4   1 41.9179 8.02197
  10   3  -1 77.3028 9.94984
 -10  -3   1 64.5236 6.83204
   9   3  -1 45.7047 7.31755
  -9  -3   1 52.2309 5.38202
   8   3  -1 338.376 14.8327
  -8  -3   1 351.837 11.6440
   7   3  -1 556.429 30.8212
  -7  -3   1 567.592 16.6640
   6   3  -1 354.932 13.6605
  -6  -3   1 359.643 10.9430
   5   3  -1 2014.30 68.3376
  -5  -3   1 2079.27 55.1341
   4   3  -1 184.742 11.1672
  -4  -3   1 185.177 5.23101
   3   3  -1 925.853 31.0834
  -3  -3   1 967.530 22.4474
   2   3  -1 2436.34 65.8727
  -2  -3   1 2524.97 56.8459
   1   3  -1 1340.20 42.0913
  -1  -3   1 1322.44 34.5292
   0   3  -1 4832.77 150.199
   0  -3   1 4753.73 123.134
  -1   3  -1 179.448 6.67233
   1  -3   1 177.688 6.37759
  -2   3  -1 99.8741 5.51390
   2  -3   1 115.807 3.89490
  -3   3  -1 318.407 11.4178
   3  -3   1 313.007 11.2816
  -4   3  -1 1386.59 38.0599
   4  -3   1 1381.45 43.8373
  -5   3  -1 220.261 10.7396
   5  -3   1 235.473 13.2834
  -6   3  -1 113.465 8.54267
   6  -3   1 114.126 8.36497
  -7   3  -1 10.7497 5.97408
   7  -3   1 3.66175 20.3317
  -8   3  -1 2.02738 8.69578
   8  -3   1 0.00000 7.63511
  10   2  -1 85.9189 11.3490
 -10  -2   1 73.4216 7.45534
   9   2  -1 5.67901 3.84504
  -9  -2   1 1.66298 4.48727
   8   2  -1 426.959 13.3332
  -8  -2   1 439.111 16.5620
   7   2  -1 185.852 6.66569
  -7  -2   1 176.780 7.18725
   6   2  -1 65.2857 3.35894
  -6  -2   1 72.4603 4.27933
   5   2  -1 410.548 15.1831
  -5  -2   1 422.091 12.1323
   4   2  -1 591.976 20.0547
  -4  -2   1 570.070 16.0723
   3   2  -1 1496.26 48.9734
  -3  -2   1 1453.69 39.4807
   2   2  -1 389.519 12.9700
  -2  -2   1 394.262 9.40131
   1   2  -1 1817.84 48.0932
  -1  -2   1 1810.52 46.8623
   0   2  -1 119.905 4.31284
   0  -2   1 121.647 3.52223
  -1   2  -1 4554.65 142.320
   1  -2   1 4528.33 140.308
  -2   2  -1 955.016 41.5302
   2  -2   1 950.726 29.9633
  -3   2  -1 480.816 16.6203
   3  -2   1 489.507 16.9579
  -4   2  -1 18.7731 3.09994
   4  -2   1 24.2563 3.17338
  -5   2  -1 0.00000 3.30325
   5  -2   1 0.00399 3.70698
  -6   2  -1 827.586 29.2542
   6  -2   1 822.410 27.2477
  -7   2  -1 1.99530 4.85629
   7  -2   1 1.01393 4.97706
  -8   2  -1 63.5035 6.96558
   8  -2   1 49.3143 7.00056
   9   1  -1 72.1946 6.21236
  -9  -1   1 66.7250 12.1122
   8   1  -1 35.5028 4.33573
  -8  -1   1 22.3845 4.57356
   7   1  -1 226.718 7.94394
  -7  -1   1 220.167 8.03764
   6   1  -1 920.398 25.1195
  -6  -1   1 931.388 25.6257
   5   1  -1 3780.41 97.6548
  -5  -1   1 3684.42 99.5121
   4   1  -1 46.6923 2.51190
  -4  -1   1 45.9260 2.70327
   3   1  -1 220.815 6.53030
  -3  -1   1 239.849 6.76630
   2   1  -1 752.820 24.7484
  -2  -1   1 727.694 19.9193
   1   1  -1 91.8735 2.80286
  -1  -1   1 88.7636 2.78835
  -2   1  -1 828.594 26.1971
   2  -1   1 841.220 26.1930
  -3   1  -1 650.572 29.1906
   3  -1   1 638.093 21.1578
  -4   1  -1 137.424 5.13354
   4  -1   1 145.686 6.00554
  -5   1  -1 401.091 14.4990
   5  -1   1 410.228 13.9780
  -6   1  -1 840.799 29.0999
   6  -1   1 848.716 27.5402
  -7   1  -1 1.28977 4.19803
   7  -1   1 0.54265 4.20388
  -8   1  -1 90.0413 7.49542
   8  -1   1 95.5304 7.08752
  -9   1  -1 5.16651 6.28812
   9  -1   1 6.83156 6.85631
   9   0  -1 6.10633 5.85904
  -9   0   1 3.23285 10.6145
   8   0  -1 539.759 19.2656
  -8   0   1 557.253 19.8637
   7   0  -1 154.938 6.84503
  -7   0   1 164.373 8.08761
   6   0  -1 430.376 12.9414
  -6   0   1 429.276 10.7728
   5   0  -1 32.5490 2.66131
  -5   0   1 20.5889 1.88821
   4   0  -1 17.6978 1.87373
  -4   0   1 15.3741 1.70440
   3   0  -1 3460.01 89.5518
  -3   0   1 3434.63 91.8232
   2   0  -1 1059.11 24.3930
  -2   0   1 1087.20 24.3970
   1   0  -1 686.543 15.6949
  -1   0   1 694.944 15.6938
  -1   0  -1 1018.48 26.6690
   1   0   1 1023.95 31.5246
  -2   0  -1 1596.54 41.8368
   2   0   1 1597.89 41.8395
  -3   0  -1 6288.07 163.573
   3   0   1 6187.82 193.384
  -4   0  -1 227.000 7.22892
   4   0   1 236.902 7.49764
  -5   0  -1 36.7407 2.16756
   5   0   1 38.0580 2.63636
  -6   0  -1 33.4514 3.63942
   6   0   1 37.2050 4.06789
  -7   0  -1 1.66479 3.25359
   7   0   1 0.00000 3.44686
  -8   0  -1 524.501 16.0449
   8   0   1 526.081 18.6538
  -9   0  -1 12.5820 5.75310
   9   0   1 1.20369 5.75634
   9  -1  -1 31.0112 7.15814
  -9   1   1 29.8093 6.81663
   8  -1  -1 172.976 10.2311
  -8   1   1 177.755 10.4884
   7  -1  -1 169.253 8.93460
  -7   1   1 180.314 9.03613
   6  -1  -1 578.379 19.5018
  -6   1   1 570.585 20.0824
   5  -1  -1 127.687 7.00428
  -5   1   1 128.808 6.40894
   4  -1  -1 255.608 9.32833
  -4   1   1 254.888 9.52810
   3  -1  -1 1375.74 44.7846
  -3   1   1 1404.17 46.6554
   2  -1  -1 20.6051 4.50269
  -2   1   1 19.9694 3.40219
   1  -1  -1 275.674 12.3110
  -1   1   1 276.764 9.26596
  -1  -1  -1 388.437 10.8298
  -2  -1  -1 2329.28 76.5026
   2   1   1 2316.04 76.5016
  -3  -1  -1 97.3349 3.48545
   3   1   1 97.9780 3.25672
  -4  -1  -1 127.207 4.91363
   4   1   1 129.129 4.70658
  -5  -1  -1 2769.37 73.2164
   5   1   1 2809.84 73.2184
  -6  -1  -1 112.473 4.50551
   6   1   1 119.520 4.95639
  -7  -1  -1 42.2014 2.75555
   7   1   1 36.4915 3.25097
  -8  -1  -1 128.551 6.21205
   8   1   1 168.604 7.79723
  -9  -1  -1 57.8779 7.95502
   9   1   1 49.2836 5.53956
 -10  -1  -1 125.325 15.7313
  10   1   1 137.231 12.2314
   8  -2  -1 67.6320 7.57104
  -8   2   1 67.4995 6.85764
   7  -2  -1 45.7735 5.82841
  -7   2   1 46.5643 5.55062
   6  -2  -1 1929.07 61.6344
  -6   2   1 2011.36 65.4091
   5  -2  -1 0.00000 9.56805
  -5   2   1 6.34737 3.25191
   4  -2  -1 11.0386 2.81427
  -4   2   1 3.66644 2.71877
   3  -2  -1 0.00000 7.54305
  -3   2   1 0.00000 3.04759
   2  -2  -1 100.801 6.36103
  -2   2   1 73.9142 4.68117
   1  -2  -1 3548.57 152.404
  -1   2   1 3547.45 111.429
   0  -2  -1 790.298 24.9020
   0   2   1 776.140 24.8830
  -1  -2  -1 734.446 24.5422
   1   2   1 760.982 24.5659
  -2  -2  -1 788.270 20.7194
   2   2   1 756.526 20.6975
  -3  -2  -1 595.906 16.6068
   3   2   1 607.781 30.1578
  -4  -2  -1 1053.96 35.7436
   4   2   1 1026.29 35.6815
  -5  -2  -1 879.882 30.0167
   5   2   1 870.143 29.9617
  -6  -2  -1 14.1933 2.61328
   6   2   1 13.2997 3.57316
  -7  -2  -1 332.416 11.0532
   7   2   1 357.113 13.9785
  -8  -2  -1 160.691 8.50527
   8   2   1 159.572 6.62960
  -9  -2  -1 2.78787 8.95413
   9   2   1 5.86210 6.95899
 -10  -2  -1 313.691 14.7514
  10   2   1 321.011 17.2300
   8  -3  -1 27.5148 7.82783
  -8   3   1 27.6235 7.70823
   7  -3  -1 96.0895 11.9511
  -7   3   1 111.705 7.42906
   6  -3  -1 23.0007 5.05152
  -6   3   1 23.9496 4.92727
   5  -3  -1 62.6713 6.10644
  -5   3   1 52.2298 4.98420
   4  -3  -1 2402.57 75.9928
  -4   3   1 2388.92 64.4238
   3  -3  -1 450.111 15.0867
  -3   3   1 438.177 12.8195
   2  -3  -1 31.1684 2.76570
  -2   3   1 30.0875 4.65317
   1  -3  -1 2113.82 90.9368
  -1   3   1 2099.45 69.8408
   0  -3  -1 755.947 23.8343
   0   3   1 725.977 23.8031
  -1  -3  -1 1330.51 42.5381
   1   3   1 1317.07 42.5202
  -2  -3  -1 3694.96 117.223
   2   3   1 3618.24 96.7619
  -3  -3  -1 233.762 8.59957
   3   3   1 219.205 6.45532
  -4  -3  -1 96.3579 4.00028
   4   3   1 102.471 7.10364
  -5  -3  -1 46.6138 3.08248
   5   3   1 49.6850 6.30353
  -6  -3  -1 50.9940 3.56440
   6   3   1 46.3208 5.95893
  -7  -3  -1 633.308 15.6095
   7   3   1 573.470 23.3022
  -8  -3  -1 90.7329 5.06209
   8   3   1 103.260 8.28454
  -9  -3  -1 0.78621 5.56477
   9   3   1 17.1310 6.65106
 -10  -3  -1 2.03763 5.35369
  10   3   1 2.60991 12.7228
   7  -4  -1 81.5511 8.67065
  -7   4   1 81.0285 7.84321
   6  -4  -1 41.3695 9.93044
  -6   4   1 57.8340 6.26593
   5  -4  -1 10.8941 4.59056
  -5   4   1 8.96679 4.41335
   4  -4  -1 275.825 15.3033
  -4   4   1 276.634 9.94525
   3  -4  -1 25.9669 3.57382
  -3   4   1 18.9226 3.35144
   2  -4  -1 1013.94 32.5246
  -2   4   1 1027.79 33.3141
   1  -4  -1 867.261 28.5956
  -1   4   1 892.378 29.0244
   0  -4  -1 37.0570 3.81593
   0   4   1 45.3383 3.09146
  -1  -4  -1 5486.38 172.087
   1   4   1 5472.51 172.072
  -2  -4  -1 98.3570 6.45721
   2   4   1 78.0546 3.77641
  -3  -4  -1 54.9406 2.60086
   3   4   1 49.2649 2.58285
  -4  -4  -1 1724.95 46.6666
   4   4   1 1700.37 84.8905
  -5  -4  -1 857.166 23.9087
   5   4   1 846.673 43.3621
  -6  -4  -1 289.032 9.47702
   6   4   1 289.393 17.0123
  -7  -4  -1 135.520 5.65169
   7   4   1 156.782 12.3950
  -8  -4  -1 38.6988 3.97243
   8   4   1 32.4637 8.07474
  -9  -4  -1 84.0930 6.64006
 -10  -4  -1 250.441 10.2399
  10   4   1 296.450 22.9737
   6  -5  -1 19.4763 7.02657
  -6   5   1 16.9191 6.93670
   5  -5  -1 5.04177 5.64158
  -5   5   1 4.14299 4.65622
   4  -5  -1 37.2291 6.40658
  -4   5   1 38.8109 5.01493
   3  -5  -1 292.226 11.3153
  -3   5   1 283.330 12.4245
   2  -5  -1 567.634 20.2745
  -2   5   1 622.296 20.3976
   1  -5  -1 659.876 18.2216
  -1   5   1 675.774 22.4383
   0  -5  -1 545.987 18.2683
   0   5   1 525.139 18.1714
  -1  -5  -1 143.613 6.17290
   1   5   1 139.410 6.11633
  -2  -5  -1 666.307 21.9066
   2   5   1 672.021 18.4633
  -3  -5  -1 1455.63 46.4087
   3   5   1 1460.20 39.0796
  -4  -5  -1 199.401 6.15950
   4   5   1 179.770 6.06728
  -5  -5  -1 191.600 6.91528
   5   5   1 194.830 12.3839
  -6  -5  -1 373.732 11.7759
   6   5   1 375.205 21.0940
  -7  -5  -1 690.777 17.3821
  -8  -5  -1 53.5070 4.29531
   8   5   1 46.5962 9.00014
  -9  -5  -1 392.588 11.8868
 -10  -5  -1 6.74554 5.62662
  10   5   1 7.87421 11.3734
   5  -6  -1 288.055 14.4375
  -5   6   1 307.386 12.6882
   4  -6  -1 109.554 8.04278
  -4   6   1 88.1655 6.90961
  -3   6   1 48.8635 6.70417
   2  -6  -1 141.973 9.10485
  -2   6   1 165.345 8.47110
   1  -6  -1 513.491 17.4369
  -1   6   1 487.863 17.6305
   0  -6  -1 351.918 10.9764
   0   6   1 364.627 13.4770
  -1  -6  -1 2383.77 61.9590
   1   6   1 2375.57 75.5832
  -2  -6  -1 762.518 24.9076
   2   6   1 750.032 24.8590
  -3  -6  -1 375.282 13.1435
   3   6   1 376.492 11.1031
  -4  -6  -1 85.0470 4.88311
   4   6   1 85.9323 4.35021
  -5  -6  -1 121.248 4.33859
   5   6   1 122.056 4.90375
  -6  -6  -1 236.540 7.41740
   6   6   1 234.736 15.3823
  -7  -6  -1 531.068 14.0898
   7   6   1 543.203 29.2818
  -8  -6  -1 0.00000 3.81993
   8   6   1 0.00000 7.80999
  -9  -6  -1 25.7908 4.98560
 -10  -6  -1 2.33186 5.66451
  10   6   1 0.00000 11.5894
   4  -7  -1 5.27658 6.67474
  -4   7   1 2.83533 6.62017
   3  -7  -1 34.0454 5.94332
  -3   7   1 39.2046 8.00543
   2  -7  -1 108.155 6.59449
  -2   7   1 112.361 8.54876
   1  -7  -1 15.9076 4.23373
  -1   7   1 11.0986 4.44411
   0  -7  -1 267.953 9.37938
   0   7   1 288.216 11.3191
  -1  -7  -1 239.389 10.1829
   1   7   1 244.183 10.0459
  -2  -7  -1 13.5893 2.89322
   2   7   1 10.8695 3.53686
  -3  -7  -1 1041.97 27.6835
   3   7   1 1027.88 28.3939
  -4  -7  -1 863.229 23.2450
   4   7   1 857.545 23.7862
  -5  -7  -1 280.880 8.94262
   5   7   1 282.336 10.9673
  -6  -7  -1 5.90251 3.64598
   6   7   1 7.19673 6.92678
  -7  -7  -1 42.5029 4.10554
   7   7   1 39.1124 7.95106
  -8  -7  -1 12.5714 4.35985
   8   7   1 6.98415 8.33337
  -9  -7  -1 721.521 19.3004
   9   7   1 753.436 40.5548
 -10  -7  -1 29.9930 6.37560
  10   7   1 36.5011 12.5216
   3  -8  -1 67.6019 11.2986
  -3   8   1 41.0763 6.76813
   2  -8  -1 304.020 10.5074
  -2   8   1 313.742 14.4297
   1  -8  -1 28.6203 4.70634
  -1   8   1 35.1084 5.87617
   0  -8  -1 14.8246 4.11470
   0   8   1 13.4121 4.87945
  -1  -8  -1 216.500 8.68636
   1   8   1 212.948 14.0271
  -2  -8  -1 88.8822 5.80477
   2   8   1 83.2326 6.34000
  -3  -8  -1 65.3109 4.35685
   3   8   1 59.5573 4.93937
  -4  -8  -1 192.706 8.82965
   4   8   1 193.728 7.54848
  -5  -8  -1 234.992 8.43993
   5   8   1 244.784 8.68089
  -6  -8  -1 421.889 17.2396
   6   8   1 433.473 15.7081
  -7  -8  -1 55.5345 5.44355
   7   8   1 58.3900 9.99369
  -8  -8  -1 138.849 7.88446
  -9  -8  -1 21.2053 5.71334
   9   8   1 17.0743 11.7792
 -10  -8  -1 4.18542 7.31042
  10   8   1 7.70369 13.9518
   1  -9  -1 0.00000 5.66060
  -1   9   1 3.63149 6.85379
   0  -9  -1 530.304 19.4777
   0   9   1 534.636 20.1670
  -1  -9  -1 17.0450 5.08909
   1   9   1 21.6260 5.74860
  -2  -9  -1 116.956 6.79405
   2   9   1 107.652 7.74284
  -3  -9  -1 20.9965 4.61807
   3   9   1 33.2836 4.67844
  -4  -9  -1 5.99022 4.64161
   4   9   1 8.23493 5.15975
  -5  -9  -1 94.4706 6.06314
   5   9   1 93.4575 6.08776
  -6  -9  -1 287.156 9.03086
   6   9   1 285.090 11.7589
  -7  -9  -1 3.56858 5.35275
   7   9   1 0.00000 4.43935
  -8  -9  -1 8.14982 7.82325
   8   9   1 21.4303 10.9960
  -9  -9  -1 0.80550 7.84076
   9   9   1 0.00000 12.3025
   0 -10  -1 0.00000 9.05817
   0  10   1 2.41164 7.81374
  -1 -10  -1 11.6359 5.76786
   1  10   1 1.40351 7.37893
  -2 -10  -1 381.238 16.1882
   2  10   1 372.550 13.7967
  -3 -10  -1 168.262 8.95791
   3  10   1 157.982 9.11597
  -4 -10  -1 12.4043 5.05826
   4  10   1 15.1704 5.37583
  -5 -10  -1 4.16996 10.5837
   5  10   1 3.43202 7.58859
  -6 -10  -1 23.9744 5.17472
   6  10   1 24.4656 5.17226
  -7 -10  -1 33.2060 7.01588
   7  10   1 22.6759 5.29561
  -8 -10  -1 487.685 20.8973
   8  10   1 470.284 32.1039
  -4 -11  -1 109.787 7.81092
   4  11   1 109.497 8.02116
  -5 -11  -1 92.2086 7.54897
   5  11   1 95.7386 7.59637
   7  10  -2 14.5058 13.0468
  -7 -10   2 28.4126 9.29153
   6  10  -2 77.2442 11.1997
  -6 -10   2 56.6265 6.77062
   5  10  -2 525.259 20.4612
  -5 -10   2 495.576 16.8221
   4  10  -2 19.4259 6.11940
  -4 -10   2 18.9683 6.17487
   3  10  -2 218.460 10.5884
  -3 -10   2 241.934 10.3530
   2  10  -2 27.6408 6.06280
  -2 -10   2 16.5483 5.55468
   1  10  -2 3.31915 7.02256
  -1 -10   2 16.2824 6.34809
   8   9  -2 47.6246 14.1119
  -8  -9   2 36.8445 6.68870
   7   9  -2 225.860 14.0455
  -7  -9   2 198.052 9.73605
   6   9  -2 309.586 16.4160
  -6  -9   2 278.493 10.6451
   5   9  -2 23.3696 5.59143
  -5  -9   2 30.4315 4.74002
   4   9  -2 136.560 7.59732
  -4  -9   2 141.058 8.09075
   3   9  -2 324.479 11.3233
  -3  -9   2 300.222 17.8256
   2   9  -2 4.76976 4.95751
  -2  -9   2 8.59209 4.53048
   1   9  -2 356.788 15.1881
  -1  -9   2 378.729 12.4164
   0   9  -2 204.565 11.4399
   0  -9   2 195.664 8.77013
  -1   9  -2 16.1869 7.16344
   1  -9   2 16.0429 5.89593
   9   8  -2 121.727 15.6052
  -9  -8   2 123.918 7.87909
   8   8  -2 265.048 22.0651
  -8  -8   2 282.974 10.2296
   7   8  -2 26.5844 4.36557
  -7  -8   2 21.6057 5.12990
   6   8  -2 34.6849 5.83517
  -6  -8   2 40.4531 5.69931
   5   8  -2 3.41063 4.29460
  -5  -8   2 4.52308 4.62452
   4   8  -2 177.355 7.52562
  -4  -8   2 182.158 7.29681
   3   8  -2 617.412 23.7835
  -3  -8   2 662.686 18.2295
   2   8  -2 38.9354 4.17987
  -2  -8   2 41.8392 3.97356
   1   8  -2 209.244 9.62897
  -1  -8   2 193.470 7.83453
   0   8  -2 40.1130 5.57421
   0  -8   2 33.9809 5.01247
  -1   8  -2 32.8903 5.66504
   1  -8   2 20.7549 4.16142
  -2   8  -2 223.598 12.5197
   2  -8   2 235.990 9.20025
  -3   8  -2 0.00000 11.1053
   3  -8   2 3.16580 9.69963
 -10  -7   2 222.911 11.0966
   9   7  -2 80.4222 13.0789
  -9  -7   2 65.9139 6.32444
   8   7  -2 0.84551 9.07300
  -8  -7   2 0.45565 4.44469
   7   7  -2 86.0682 12.8782
  -7  -7   2 69.8458 5.03676
   6   7  -2 1589.39 50.9042
  -6  -7   2 1520.26 51.1182
   5   7  -2 13.7491 3.66723
  -5  -7   2 18.2694 3.54903
   4   7  -2 718.015 20.3517
  -4  -7   2 729.836 19.8400
   3   7  -2 338.244 10.6770
  -3  -7   2 344.906 10.4030
   2   7  -2 0.54172 2.90783
  -2  -7   2 5.04548 2.91593
   1   7  -2 1020.05 33.3108
  -1  -7   2 1011.63 27.2324
   0   7  -2 99.5693 6.87276
   0  -7   2 108.492 5.41829
  -1   7  -2 59.7207 5.35787
   1  -7   2 42.7533 4.35370
  -2   7  -2 99.4260 7.27741
   2  -7   2 103.933 6.88822
  -3   7  -2 4.46897 5.88362
   3  -7   2 3.71527 5.59062
  -4   7  -2 208.926 11.2956
   4  -7   2 217.537 13.7717
  10   6  -2 16.9759 12.7869
 -10  -6   2 19.2754 6.30238
   9   6  -2 38.4623 11.7381
  -9  -6   2 25.5150 5.40130
  -8  -6   2 102.836 5.76151
   7   6  -2 201.767 15.8131
  -7  -6   2 209.107 7.99157
   6   6  -2 11.0004 2.88515
  -6  -6   2 4.12993 3.04351
   5   6  -2 197.018 8.49733
  -5  -6   2 204.548 6.47213
   4   6  -2 1681.88 55.2754
  -4  -6   2 1701.70 44.9465
   3   6  -2 291.125 9.14006
  -3  -6   2 297.379 8.87302
   2   6  -2 864.627 23.8617
  -2  -6   2 867.007 23.2107
   1   6  -2 1029.55 32.6882
  -1  -6   2 987.874 26.7381
   0   6  -2 199.129 8.33948
   0  -6   2 193.075 6.94730
  -1   6  -2 133.092 7.14390
   1  -6   2 123.073 5.35924
  -2   6  -2 128.700 7.59932
   2  -6   2 124.721 6.47487
  -3   6  -2 47.7608 5.64507
   3  -6   2 49.2750 8.36457
  -4   6  -2 331.230 12.1609
   4  -6   2 316.375 13.9980
  -5   6  -2 10.4818 6.50299
   5  -6   2 6.99600 7.06845
  10   5  -2 346.193 26.8412
 -10  -5   2 360.344 12.4851
   9   5  -2 281.743 21.8771
  -9  -5   2 286.572 10.0045
  -8  -5   2 18.2595 4.02807
   7   5  -2 52.7452 8.02560
  -7  -5   2 59.0222 4.37657
  -6  -5   2 4.25875 2.76644
   5   5  -2 223.212 8.20422
  -5  -5   2 199.438 6.28918
   4   5  -2 1297.25 42.1985
  -4  -5   2 1287.28 30.3829
   3   5  -2 53.7801 3.21772
  -3  -5   2 59.9128 3.25798
   2   5  -2 921.004 24.8237
  -2  -5   2 902.432 24.1646
   1   5  -2 222.756 8.31737
  -1  -5   2 219.810 6.80622
   0   5  -2 93.7171 4.92433
   0  -5   2 92.1914 4.01167
  -1   5  -2 1358.42 43.5839
   1  -5   2 1349.29 42.8636
  -2   5  -2 17.9756 4.32385
   2  -5   2 13.4226 2.43532
  -3   5  -2 13.8264 4.09811
   3  -5   2 14.2836 4.12650
  -4   5  -2 103.673 6.16679
   4  -5   2 110.614 11.1117
  -5   5  -2 216.544 9.73799
   5  -5   2 198.399 11.2020
  -6   5  -2 337.005 13.4474
   6  -5   2 327.360 15.3820
  10   4  -2 97.5735 14.8344
 -10  -4   2 85.7478 6.65783
   9   4  -2 26.3439 10.2808
  -9  -4   2 31.2133 4.75809
   8   4  -2 393.317 16.1289
  -8  -4   2 375.206 11.2970
   7   4  -2 1138.50 57.9071
  -7  -4   2 1127.79 27.3565
   6   4  -2 4.98776 5.33582
  -6  -4   2 3.90458 2.53535
   5   4  -2 2574.30 130.718
  -5  -4   2 2669.63 61.5917
   4   4  -2 115.014 5.12001
  -4  -4   2 121.708 4.12968
   3   4  -2 167.350 6.42943
  -3  -4   2 162.418 4.71262
   2   4  -2 1964.85 52.8946
  -2  -4   2 2006.22 51.5447
   1   4  -2 1049.09 33.3358
  -1  -4   2 1038.65 27.3486
   0   4  -2 188.973 6.84402
   0  -4   2 174.599 5.53960
  -1   4  -2 421.627 14.3069
   1  -4   2 417.830 13.9696
  -2   4  -2 12.3571 2.88925
   2  -4   2 11.3136 1.96980
  -3   4  -2 1050.29 34.2016
   3  -4   2 1046.68 33.6124
  -4   4  -2 117.409 6.69622
   4  -4   2 118.644 7.14945
  -5   4  -2 5.98951 4.88629
   5  -4   2 5.88851 4.53083
  -6   4  -2 48.4724 5.57122
   6  -4   2 50.4495 6.79172
  -7   4  -2 144.613 11.2609
   7  -4   2 146.244 10.0249
  10   3  -2 40.0114 9.12677
 -10  -3   2 25.6241 7.73942
   9   3  -2 10.4834 6.82126
  -9  -3   2 4.00197 4.92156
   8   3  -2 302.577 14.2653
  -8  -3   2 312.173 10.9660
   7   3  -2 17.4032 5.62985
  -7  -3   2 13.4225 3.34304
   6   3  -2 140.161 7.34778
  -6  -3   2 138.537 5.84078
   5   3  -2 1323.40 44.5437
  -5  -3   2 1319.85 35.8789
   4   3  -2 1121.59 29.4189
  -4  -3   2 1102.81 26.1750
   3   3  -2 3262.87 105.185
  -3  -3   2 3271.41 75.4911
   2   3  -2 1052.47 34.8409
  -2  -3   2 1077.76 24.9793
   1   3  -2 448.992 14.3466
  -1  -3   2 434.227 11.7837
   0   3  -2 425.484 14.0435
   0  -3   2 430.278 11.5020
  -1   3  -2 1482.97 46.6438
   1  -3   2 1462.02 37.7186
  -2   3  -2 184.306 7.05691
   2  -3   2 177.959 5.48727
  -3   3  -2 1954.82 61.6815
   3  -3   2 1922.93 60.6083
  -4   3  -2 7.55070 2.82103
   4  -3   2 3.78243 3.27125
  -5   3  -2 82.9783 10.6346
   5  -3   2 81.3539 6.46509
  -6   3  -2 102.111 8.46925
   6  -3   2 113.088 8.34682
  -7   3  -2 111.223 8.61560
   7  -3   2 94.5220 11.7985
  -8   3  -2 75.1277 10.0746
   8  -3   2 65.9140 8.36965
  10   2  -2 68.5187 14.7564
 -10  -2   2 81.9658 7.58816
   9   2  -2 27.3605 4.20530
  -9  -2   2 21.6839 4.95963
   8   2  -2 36.2361 4.04771
  -8  -2   2 39.6683 4.86944
   7   2  -2 300.812 9.42640
  -7  -2   2 292.516 9.86726
   6   2  -2 412.095 11.8766
  -6  -2   2 409.491 12.3019
   5   2  -2 1515.46 40.6800
  -5  -2   2 1562.32 41.5907
   4   2  -2 1118.70 29.6676
  -4  -2   2 1118.31 30.3578
   3   2  -2 138.478 5.63445
  -3  -2   2 137.683 4.50328
   2   2  -2 1190.99 31.5284
  -2  -2   2 1160.77 31.5181
   1   2  -2 1181.95 27.2983
  -1  -2   2 1200.65 30.8252
   0   2  -2 977.446 24.9930
   0  -2   2 945.895 24.9766
  -1   2  -2 73.2523 2.59816
   1  -2   2 75.8269 2.60243
  -2   2  -2 39.9053 2.95240
   2  -2   2 64.0392 2.49982
  -3   2  -2 1416.05 60.5555
   3  -2   2 1382.94 43.6992
  -4   2  -2 1042.87 34.6114
   4  -2   2 1043.38 33.1724
  -5   2  -2 1401.78 46.7704
   5  -2   2 1411.32 44.7711
  -6   2  -2 298.563 12.5063
   6  -2   2 301.939 12.2290
  -7   2  -2 0.01688 5.06489
   7  -2   2 11.7917 5.11706
  -8   2  -2 19.0600 6.56415
   8  -2   2 13.7283 7.87814
   9   1  -2 132.604 7.54303
  -9  -1   2 122.786 8.66623
   8   1  -2 376.374 14.0974
  -8  -1   2 374.794 14.7453
   7   1  -2 201.799 7.40695
  -7  -1   2 191.468 7.48604
   6   1  -2 1244.03 33.6001
  -6  -1   2 1262.25 34.2351
   5   1  -2 174.804 5.62204
  -5  -1   2 152.461 5.72795
   4   1  -2 48.7670 2.60531
  -4  -1   2 40.9115 2.61311
   3   1  -2 2050.79 47.2864
  -3  -1   2 2132.50 55.7751
   2   1  -2 6118.82 190.900
  -2  -1   2 5968.12 190.877
   1   1  -2 16.0216 0.99255
  -1  -1   2 16.8668 0.98993
   0   1  -2 68.2951 2.56355
   0  -1   2 68.0766 2.55409
  -1   1  -2 1233.61 31.5466
   1  -1   2 1236.43 31.5347
  -2   1  -2 1234.15 31.5784
   2  -1   2 1231.52 31.5643
  -3   1  -2 2258.17 72.8224
   3  -1   2 2327.09 72.7441
  -4   1  -2 101.326 4.37159
   4  -1   2 104.511 5.04977
  -5   1  -2 33.3510 3.52978
   5  -1   2 36.8196 3.93732
  -6   1  -2 477.076 17.2892
   6  -1   2 486.473 22.6328
  -7   1  -2 233.050 10.7248
   7  -1   2 228.454 10.1850
  -8   1  -2 254.588 12.3449
   8  -1   2 256.557 11.9199
  -9   1  -2 62.7763 7.32901
   9  -1   2 61.1605 7.90797
   9   0  -2 114.610 9.91877
  -9   0   2 105.031 14.2689
   8   0  -2 2.00131 4.68987
  -8   0   2 3.07509 8.01920
   7   0  -2 35.3802 4.29054
  -7   0   2 37.4182 4.22814
   6   0  -2 267.420 9.16141
  -6   0   2 273.648 8.57535
   5   0  -2 1482.57 39.3199
  -5   0   2 1476.29 33.8485
   4   0  -2 2064.83 54.9712
  -4   0   2 2111.14 47.4629
   3   0  -2 217.886 6.06543
  -3   0   2 205.838 5.25502
   2   0  -2 89.2609 2.47554
  -2   0   2 86.8163 2.79856
  -1   0   2 37.5846 1.82849
   0   0  -2 0.00000 0.42493
  -1   0  -2 6.85348 0.59244
   1   0   2 3.69860 0.69772
  -2   0  -2 2372.03 62.0066
   2   0   2 2376.65 73.2835
  -3   0  -2 385.799 14.3444
   3   0   2 371.782 16.9642
  -4   0  -2 241.838 7.35394
   4   0   2 214.729 8.65979
  -5   0  -2 822.587 22.2129
   5   0   2 810.486 26.1361
  -6   0  -2 538.400 19.3570
   6   0   2 536.439 18.6781
  -7   0  -2 2.15198 3.65861
   7   0   2 6.60356 3.68066
  -8   0  -2 7.81126 8.39437
   8   0   2 0.43599 7.76687
  -9   0  -2 68.1456 6.64263
   9   0   2 57.5891 6.68527
   9  -1  -2 3.27483 7.04314
  -9   1   2 0.00000 14.5255
   8  -1  -2 80.4278 7.01247
  -8   1   2 81.6630 6.77954
   7  -1  -2 47.9743 5.09022
  -7   1   2 35.5336 4.84624
   6  -1  -2 495.355 17.1095
  -6   1   2 490.500 17.5569
   5  -1  -2 487.438 14.1278
  -5   1   2 498.035 17.2125
   4  -1  -2 1.63204 1.99910
  -4   1   2 0.55976 2.26022
   3  -1  -2 1770.72 47.1703
  -3   1   2 1774.47 58.9841
   2  -1  -2 1094.02 35.2087
  -2   1   2 1117.89 29.6886
   1  -1  -2 170.587 4.45216
  -1   1   2 145.123 4.43031
   0  -1  -2 334.887 10.8620
   0   1   2 341.590 10.8633
  -1  -1  -2 91.4032 3.87945
   1   1   2 110.948 3.95760
  -3  -1  -2 2449.53 81.4900
   3   1   2 2436.13 63.8349
  -4  -1  -2 893.231 23.9097
   4   1   2 885.334 23.8892
  -5  -1  -2 1287.82 34.0628
   5   1   2 1270.62 34.0201
  -6  -1  -2 199.553 7.18381
   6   1   2 204.042 7.09954
  -7  -1  -2 32.4895 3.59761
   7   1   2 38.5695 3.23462
  -8  -1  -2 477.209 13.8789
   8   1   2 475.534 16.7995
  -9  -1  -2 22.7707 4.59972
   9   1   2 16.5046 4.97911
 -10  -1  -2 42.1624 13.4934
   8  -2  -2 23.5818 6.74798
  -8   2   2 25.5529 6.33963
   7  -2  -2 238.969 11.6626
  -7   2   2 253.477 11.5089
   6  -2  -2 5.99161 4.28061
  -6   2   2 11.5903 4.19943
   5  -2  -2 65.3979 7.29389
  -5   2   2 62.6780 5.13867
   4  -2  -2 1019.53 32.5093
  -4   2   2 1015.64 33.7861
   3  -2  -2 3496.03 108.375
  -3   2   2 3602.89 116.181
   2  -2  -2 94.7495 3.94658
  -2   2   2 88.9007 4.95917
   1  -2  -2 113.141 6.17146
  -1   2   2 117.013 5.19056
   0   2   2 4936.51 234.899
  -1  -2  -2 822.712 27.0065
   1   2   2 827.328 27.0045
  -2  -2  -2 5504.19 183.984
   2   2   2 5281.15 183.820
  -3  -2  -2 1.66498 1.44188
   3   2   2 12.6359 4.83134
  -4  -2  -2 264.130 10.9102
   4   2   2 260.903 15.9102
  -5  -2  -2 92.8872 5.27725
   5   2   2 87.6450 5.10857
  -6  -2  -2 179.796 6.03250
   6   2   2 185.549 8.34738
  -7  -2  -2 960.070 22.6116
   7   2   2 913.685 45.1413
  -8  -2  -2 12.2408 4.24435
   8   2   2 14.7859 5.23975
  -9  -2  -2 1.09897 4.91151
   9   2   2 13.5383 6.32879
 -10  -2  -2 69.5779 6.31260
  10   2   2 76.9617 12.5358
   8  -3  -2 11.7085 8.07026
  -8   3   2 2.82200 7.65795
   7  -3  -2 114.632 12.9111
  -7   3   2 136.701 9.20476
   6  -3  -2 247.286 11.4242
  -6   3   2 250.067 9.66988
   5  -3  -2 219.245 11.0779
  -5   3   2 244.142 9.27248
   4  -3  -2 99.1921 7.15421
  -4   3   2 99.6025 5.64346
   3  -3  -2 212.857 8.44713
  -3   3   2 215.217 7.16826
   2  -3  -2 149.365 10.5256
  -2   3   2 163.151 7.96920
   1  -3  -2 4701.94 149.934
  -1   3   2 4786.34 149.959
   0  -3  -2 3.76436 1.56015
   0   3   2 2.34980 1.53278
  -1  -3  -2 2217.74 71.9541
   1   3   2 2229.69 71.9495
  -2  -3  -2 914.099 29.8355
   2   3   2 956.884 25.8478
  -3  -3  -2 2263.66 59.8172
   3   3   2 2231.95 76.2675
  -4  -3  -2 1636.96 44.2553
   4   3   2 1565.50 80.3426
  -5  -3  -2 667.243 19.2601
   5   3   2 686.349 33.7514
  -6  -3  -2 24.6951 3.09810
   6   3   2 22.5563 5.18288
  -7  -3  -2 220.134 9.28762
   7   3   2 253.663 15.5668
  -8  -3  -2 12.4205 3.98878
   8   3   2 15.5201 7.53836
  -9  -3  -2 73.1769 5.69285
 -10  -3  -2 43.2268 5.58271
  10   3   2 61.4748 13.3315
   7  -4  -2 273.466 14.5489
  -7   4   2 261.135 12.9606
   6  -4  -2 69.5481 10.8544
  -6   4   2 62.0538 5.70926
   5  -4  -2 32.7471 5.18026
  -5   4   2 34.4550 4.72894
   4  -4  -2 249.960 17.2190
  -4   4   2 235.884 15.6899
   3  -4  -2 15.6910 5.14487
  -3   4   2 13.6657 3.31705
   2  -4  -2 148.530 11.4873
  -2   4   2 148.256 8.36869
   1  -4  -2 214.804 8.92138
  -1   4   2 212.068 8.91382
   0  -4  -2 800.292 26.0737
   0   4   2 796.356 26.0732
  -1  -4  -2 7227.67 235.068
   1   4   2 7258.06 227.847
  -2  -4  -2 1751.04 57.6024
   2   4   2 1791.54 48.4713
  -3  -4  -2 1016.21 27.5795
   3   4   2 979.888 26.3703
  -4  -4  -2 2602.06 88.0865
   4   4   2 2598.56 87.9876
  -5  -4  -2 280.747 9.52711
   5   4   2 268.729 15.3149
  -6  -4  -2 549.745 16.3363
   6   4   2 584.401 29.4981
  -7  -4  -2 836.596 24.2462
   7   4   2 871.852 43.8608
  -8  -4  -2 134.379 6.17986
   8   4   2 162.933 13.1287
  -9  -4  -2 297.855 10.3494
 -10  -4  -2 14.8929 5.58530
  10   4   2 31.1445 12.3736
   6  -5  -2 130.439 10.3322
  -6   5   2 131.780 9.56779
   5  -5  -2 388.234 15.9721
  -5   5   2 407.996 13.5749
   4  -5  -2 363.136 15.0915
  -4   5   2 356.432 12.2975
   3  -5  -2 9.07702 5.30067
  -3   5   2 12.9515 3.98631
   2  -5  -2 103.322 11.2144
  -2   5   2 136.203 9.64342
   1  -5  -2 27.9941 3.86723
  -1   5   2 25.3299 5.80818
   0  -5  -2 39.0946 3.92469
   0   5   2 33.1361 3.85407
  -1  -5  -2 1909.41 60.5725
   1   5   2 1905.10 60.5523
  -2  -5  -2 533.807 18.5958
   2   5   2 547.077 18.5984
  -3  -5  -2 95.1251 5.03860
   3   5   2 93.8955 3.90078
  -4  -5  -2 9.89058 1.75024
   4   5   2 10.0079 1.80914
  -5  -5  -2 99.5301 4.83502
   5   5   2 104.534 8.46604
  -6  -5  -2 1189.24 33.3598
   6   5   2 1232.81 60.4567
  -7  -5  -2 21.8601 3.87697
   7   5   2 22.4672 6.56782
  -8  -5  -2 109.592 5.96531
   8   5   2 115.299 12.4133
  -9  -5  -2 68.2164 5.31533
 -10  -5  -2 76.5004 6.35232
  10   5   2 81.1900 13.4558
   5  -6  -2 78.3487 8.40841
  -5   6   2 69.8909 6.88565
   4  -6  -2 178.527 10.5409
  -4   6   2 180.348 9.72145
  -3   6   2 148.397 8.08528
   2  -6  -2 442.922 22.0513
  -2   6   2 474.890 16.9503
   1  -6  -2 47.7012 5.11246
  -1   6   2 56.0570 6.37940
   0  -6  -2 288.564 11.8184
   0   6   2 305.549 11.9177
  -1  -6  -2 233.470 9.95492
   1   6   2 232.963 9.21181
  -2  -6  -2 988.337 31.6635
   2   6   2 961.619 31.6042
  -3  -6  -2 1008.15 32.7086
   3   6   2 993.512 27.2653
  -4  -6  -2 1748.40 55.0960
   4   6   2 1723.81 46.3783
  -5  -6  -2 76.5646 3.79582
   5   6   2 73.6275 3.82087
  -6  -6  -2 92.2949 5.86390
   6   6   2 115.140 9.72474
  -7  -6  -2 42.9051 4.35293
   7   6   2 49.6721 11.6138
  -8  -6  -2 118.958 6.38627
   8   6   2 132.244 13.0592
  -9  -6  -2 95.7151 6.06784
 -10  -6  -2 75.9949 6.36867
  10   6   2 77.5931 12.8722
   4  -7  -2 61.7124 7.51096
  -4   7   2 55.3200 7.77748
   3  -7  -2 204.684 15.8983
  -3   7   2 209.734 10.4478
   2  -7  -2 28.7239 4.77283
  -2   7   2 25.5171 6.22490
   1  -7  -2 274.365 11.9641
  -1   7   2 277.200 11.8460
   0  -7  -2 354.947 11.9331
   0   7   2 363.634 14.4212
  -1  -7  -2 544.635 29.5185
   1   7   2 521.385 18.1359
  -2  -7  -2 306.860 11.9061
   2   7   2 320.778 11.8550
  -3  -7  -2 409.703 15.1522
   3   7   2 418.865 12.4840
  -4  -7  -2 22.7994 3.45324
   4   7   2 15.2339 2.92919
  -5  -7  -2 275.674 10.4318
   5   7   2 272.273 9.01071
  -6  -7  -2 929.377 32.1038
   6   7   2 972.328 48.6066
  -7  -7  -2 119.885 6.07017
   7   7   2 121.282 12.2351
  -8  -7  -2 227.391 8.49782
   8   7   2 226.337 16.9053
  -9  -7  -2 17.6723 5.19880
 -10  -7  -2 6.27310 6.10126
  10   7   2 17.5110 12.3749
   3  -8  -2 18.0433 10.3537
  -3   8   2 42.4597 7.35881
   2  -8  -2 76.4295 5.84688
  -2   8   2 81.8464 8.89112
   1  -8  -2 88.0256 6.72698
  -1   8   2 96.1348 7.33776
   0  -8  -2 176.370 8.68303
   0   8   2 154.347 10.3853
  -1  -8  -2 132.652 11.2333
   1   8   2 139.855 8.19793
  -2  -8  -2 97.9413 5.83754
   2   8   2 96.8463 7.23878
  -3  -8  -2 97.2951 6.74614
   3   8   2 89.0809 5.80144
  -4  -8  -2 3.56462 3.80553
   4   8   2 5.08538 3.29930
  -5  -8  -2 183.435 8.68327
   5   8   2 187.974 7.41956
  -6  -8  -2 35.4230 3.57620
   6   8   2 38.0218 3.61969
  -7  -8  -2 27.1306 4.79933
   7   8   2 20.1253 8.60309
  -8  -8  -2 122.094 8.19579
  -9  -8  -2 92.8224 6.59533
   9   8   2 104.374 13.3951
 -10  -8  -2 45.5793 7.40212
  10   8   2 51.7758 13.5644
   1  -9  -2 42.6819 6.19706
  -1   9   2 53.4381 7.72676
   0  -9  -2 61.0757 5.52552
   0   9   2 60.7745 7.01207
  -1  -9  -2 11.9455 4.94248
   1   9   2 16.2478 5.64159
  -2  -9  -2 133.195 7.51461
   2   9   2 135.360 9.12004
  -3  -9  -2 926.173 25.4813
   3   9   2 917.043 26.0857
  -4  -9  -2 1.65235 4.52201
   4   9   2 2.01473 4.43385
  -5  -9  -2 2.08574 4.32511
   5   9   2 5.08903 4.01031
  -6  -9  -2 10.3436 9.56981
   6   9   2 3.35716 3.79742
  -7  -9  -2 24.3224 5.62008
   7   9   2 24.0153 4.52469
  -8  -9  -2 115.909 9.76295
   8   9   2 149.028 17.1402
  -9  -9  -2 39.3426 7.49801
   9   9   2 41.1337 12.8092
   0 -10  -2 191.021 15.9026
   0  10   2 190.208 13.0344
  -1 -10  -2 70.0932 7.30812
   1  10   2 76.1198 8.07840
  -2 -10  -2 82.6922 9.37899
   2  10   2 86.0065 7.87189
  -3 -10  -2 4.43330 5.11784
   3  10   2 9.85351 5.17416
  -4 -10  -2 14.2269 5.02733
   4  10   2 3.77797 5.22457
  -5 -10  -2 521.247 15.8901
   5  10   2 489.515 16.0826
  -6 -10  -2 40.4688 5.16567
   6  10   2 34.4872 5.09528
  -7 -10  -2 22.6415 8.34844
   7  10   2 15.4762 4.85919
  -8 -10  -2 29.4549 9.57381
   8  10   2 31.5516 14.0266
  -3 -11  -2 3.00786 6.41623
   3  11   2 2.89322 6.79526
  -4 -11  -2 8.92050 6.42449
   4  11   2 9.33479 6.60032
  -5 -11  -2 12.7079 6.19972
   5  11   2 18.0694 6.34833
  -6 -11  -2 4.22108 6.84744
   6  11   2 1.53549 5.73247
  -7 -10   3 0.00000 25.0315
   6  10  -3 316.901 26.6996
  -6 -10   3 331.749 23.6878
   5  10  -3 45.3522 8.35972
  -5 -10   3 49.4678 10.9156
   4  10  -3 1.53900 15.0143
  -4 -10   3 5.30870 9.36182
   3  10  -3 20.2995 7.10361
  -3 -10   3 18.3922 7.36859
   2  10  -3 146.762 9.32576
  -2 -10   3 152.772 9.91980
   1  10  -3 116.904 14.0412
  -1 -10   3 147.570 15.6823
   8   9  -3 24.2341 28.1727
  -8  -9   3 11.9725 8.03369
   7   9  -3 13.4323 11.1434
  -7  -9   3 4.61222 8.99933
   6   9  -3 72.9370 12.6791
  -6  -9   3 63.4461 5.68276
   5   9  -3 10.5400 10.8375
  -5  -9   3 10.3999 5.00215
   4   9  -3 420.153 18.1963
  -4  -9   3 428.161 24.8488
   3   9  -3 194.487 9.86191
  -3  -9   3 191.968 11.2644
   2   9  -3 10.2465 4.64083
  -2  -9   3 6.89732 5.25152
   1   9  -3 12.2886 5.84105
  -1  -9   3 17.0983 4.74715
   0   9  -3 360.700 24.0147
   0  -9   3 418.387 13.1868
  -1   9  -3 62.2965 7.57715
   1  -9   3 49.8191 7.31923
   9   8  -3 70.9017 14.5898
  -9  -8   3 75.6556 7.05086
   8   8  -3 3.26963 11.3196
  -8  -8   3 3.75195 5.16209
   7   8  -3 31.9444 5.54199
  -7  -8   3 48.9470 5.92146
   6   8  -3 223.381 16.0699
  -6  -8   3 207.535 10.3797
   5   8  -3 175.081 11.4264
  -5  -8   3 164.686 9.26930
   4   8  -3 10.0005 4.68543
  -4  -8   3 4.11834 3.55958
   3   8  -3 2.20772 3.55679
  -3  -8   3 1.71668 3.45328
   2   8  -3 166.694 8.58409
  -2  -8   3 167.746 7.23651
   1   8  -3 313.157 12.8410
  -1  -8   3 322.594 10.5268
   0   8  -3 90.9491 6.86873
   0  -8   3 87.7559 5.28177
  -1   8  -3 67.3123 6.46844
   1  -8   3 76.8666 5.10256
  -2   8  -3 96.5662 9.73700
   2  -8   3 83.5287 5.55440
   9   7  -3 435.176 28.3155
  -9  -7   3 400.662 15.3672
   8   7  -3 12.5860 10.3020
  -8  -7   3 22.6657 4.95991
  -7  -7   3 432.099 12.4558
   6   7  -3 170.412 8.39055
  -6  -7   3 167.665 9.00498
   5   7  -3 1.45717 3.89802
  -5  -7   3 14.6846 4.10111
   4   7  -3 358.543 13.7190
  -4  -7   3 351.781 10.8498
   3   7  -3 717.918 20.0381
  -3  -7   3 699.715 19.4133
   2   7  -3 200.451 7.41070
  -2  -7   3 186.279 9.55759
   1   7  -3 178.304 8.26117
  -1  -7   3 176.616 6.78946
   0   7  -3 9.25742 3.86439
   0  -7   3 9.00341 3.12613
  -1   7  -3 26.0245 4.75677
   1  -7   3 22.8581 3.97458
  -2   7  -3 308.949 13.2002
   2  -7   3 310.177 12.2102
  -3   7  -3 10.2282 6.56083
   3  -7   3 4.69967 5.80656
  -4   7  -3 7.27793 7.36217
   4  -7   3 10.2249 9.80553
 -10  -6   3 72.5597 6.97438
   9   6  -3 175.531 18.9938
  -9  -6   3 155.099 9.30351
   8   6  -3 6.44804 8.63911
  -8  -6   3 6.06066 4.29646
   7   6  -3 134.085 13.1834
  -7  -6   3 126.943 6.25692
   6   6  -3 28.7864 3.46092
  -6  -6   3 41.7793 3.69510
   5   6  -3 351.387 12.9878
  -5  -6   3 350.923 10.7194
   4   6  -3 662.593 22.5808
  -4  -6   3 657.747 18.4691
   3   6  -3 75.4850 4.39451
  -3  -6   3 93.0288 4.36675
   2   6  -3 26.5035 2.79082
  -2  -6   3 33.4305 2.81473
   1   6  -3 1078.13 34.6672
  -1  -6   3 1062.55 28.4107
   0   6  -3 47.8581 4.05441
   0  -6   3 44.5320 3.24193
  -1   6  -3 661.448 22.4029
   1  -6   3 660.200 17.9700
  -2   6  -3 137.309 7.94065
   2  -6   3 143.206 6.98413
  -3   6  -3 61.8183 5.83308
   3  -6   3 58.4217 4.45500
  -4   6  -3 149.723 11.4515
   4  -6   3 138.630 9.86997
  -5   6  -3 23.1093 6.56818
   5  -6   3 29.8860 7.21475
  10   5  -3 30.8259 15.2759
 -10  -5   3 21.2184 6.08886
   9   5  -3 0.00000 10.2676
  -9  -5   3 5.08993 4.76005
  -8  -5   3 41.7712 4.38070
   7   5  -3 1009.15 53.5426
  -7  -5   3 1043.57 25.3980
   6   5  -3 116.002 5.63713
  -6  -5   3 108.614 5.56189
   5   5  -3 11.9177 2.60379
  -5  -5   3 11.3356 2.51304
   4   5  -3 71.2965 4.72418
  -4  -5   3 77.0853 3.64064
   3   5  -3 4.90586 2.50949
  -3  -5   3 6.74138 2.02174
   2   5  -3 1840.34 49.3535
  -2  -5   3 1853.29 48.0590
   1   5  -3 264.132 9.59508
  -1  -5   3 265.959 7.90849
   0   5  -3 48.0974 3.56783
   0  -5   3 46.2991 3.03542
  -1   5  -3 155.692 6.98393
   1  -5   3 151.117 5.47524
  -2   5  -3 4.30156 3.49903
   2  -5   3 5.17166 2.41345
  -3   5  -3 309.410 12.1296
   3  -5   3 303.791 9.32915
  -4   5  -3 457.611 16.4621
   4  -5   3 384.723 24.4037
  -5   5  -3 48.4267 5.69942
   5  -5   3 66.9073 6.68111
  -6   5  -3 6.17505 6.25446
   6  -5   3 6.17831 7.16732
  10   4  -3 339.681 19.1687
 -10  -4   3 331.578 11.9875
   9   4  -3 8.24651 6.84398
  -9  -4   3 10.3293 4.68854
   8   4  -3 232.241 15.8556
  -8  -4   3 240.664 8.29536
   7   4  -3 418.508 16.7497
  -7  -4   3 441.965 11.9764
   6   4  -3 19.6748 7.89687
  -6  -4   3 33.1398 3.01071
   5   4  -3 1667.75 53.7909
  -5  -4   3 1648.39 38.8174
   4   4  -3 543.384 18.3975
  -4  -4   3 546.144 13.3675
   3   4  -3 310.722 11.1230
  -3  -4   3 315.987 7.99491
   2   4  -3 2441.79 65.4071
  -2  -4   3 2484.16 63.7249
   1   4  -3 91.9637 4.13953
  -1  -4   3 89.4043 3.48024
   0   4  -3 848.412 27.0506
   0  -4   3 832.732 22.1365
  -1   4  -3 889.649 28.8715
   1  -4   3 892.449 23.3293
  -2   4  -3 50.8430 3.98590
   2  -4   3 54.0282 3.16669
  -3   4  -3 77.3394 5.80632
   3  -4   3 90.6135 4.23791
  -4   4  -3 30.3534 4.34312
   4  -4   3 24.4194 4.26836
  -5   4  -3 34.8603 4.43740
   5  -4   3 21.0295 5.02020
  -6   4  -3 340.812 12.4703
   6  -4   3 334.098 14.4339
  -7   4  -3 3.84505 6.42951
   7  -4   3 1.49014 7.35901
  10   3  -3 56.8726 14.3746
 -10  -3   3 71.8356 8.11479
   9   3  -3 15.3112 7.36886
  -9  -3   3 23.1462 5.49674
   8   3  -3 224.773 16.2786
  -8  -3   3 239.435 9.38739
   7   3  -3 89.8356 7.40406
  -7  -3   3 84.4968 5.30571
   6   3  -3 34.8100 2.80701
  -6  -3   3 31.8137 3.29337
   5   3  -3 1505.24 50.3346
  -5  -3   3 1497.17 40.5470
   4   3  -3 39.1495 3.28187
  -4  -3   3 45.5234 2.94310
   3   3  -3 307.133 10.4979
  -3  -3   3 298.278 7.60753
   2   3  -3 1381.54 37.1561
  -2  -3   3 1421.42 32.6842
   1   3  -3 319.667 8.58005
  -1  -3   3 304.625 8.54095
   0   3  -3 4164.97 106.914
   0  -3   3 4137.43 106.907
  -1   3  -3 96.8455 3.48139
   1  -3   3 98.7549 3.46780
  -2   3  -3 55.9639 2.88867
   2  -3   3 58.7878 2.90852
  -3   3  -3 347.129 12.6993
   3  -3   3 373.742 12.6261
  -4   3  -3 646.329 18.3071
   4  -3   3 640.694 21.3357
  -5   3  -3 69.4634 5.64028
   5  -3   3 70.8677 5.53523
  -6   3  -3 250.260 11.8094
   6  -3   3 253.635 11.4490
  -7   3  -3 6.15130 6.02196
   7  -3   3 5.16992 8.93427
  10   2  -3 3.10233 13.5208
 -10  -2   3 0.59553 7.00654
   9   2  -3 26.6137 4.49090
  -9  -2   3 35.5534 5.86390
   8   2  -3 515.030 17.8635
  -8  -2   3 518.279 19.3416
   7   2  -3 138.180 5.87997
  -7  -2   3 134.174 6.32907
   6   2  -3 260.293 8.18876
  -6  -2   3 251.658 8.48919
   5   2  -3 52.4927 2.98868
  -5  -2   3 54.7432 3.61306
   4   2  -3 78.0101 4.60421
  -4  -2   3 80.3738 3.62488
   3   2  -3 6011.79 156.440
  -3  -2   3 5770.06 156.418
   2   2  -3 1838.35 48.5310
  -2  -2   3 1795.61 48.5046
   1   2  -3 210.490 6.02964
  -1  -2   3 208.236 7.26232
   0   2  -3 131.832 3.83282
   0  -2   3 128.948 3.81622
  -1   2  -3 1080.04 28.0225
   1  -2   3 1076.49 27.7016
  -2   2  -3 2325.67 72.3968
   2  -2   3 2330.59 59.4521
  -3   2  -3 1098.45 47.4756
   3  -2   3 1076.93 34.2096
  -4   2  -3 129.140 6.38866
   4  -2   3 127.804 6.20111
  -5   2  -3 2.21679 3.72619
   5  -2   3 2.88736 3.39591
  -6   2  -3 504.813 18.3689
   6  -2   3 489.760 25.7311
  -7   2  -3 0.03553 5.02457
   7  -2   3 4.83657 4.91506
  -8   2  -3 385.078 16.6988
   8  -2   3 364.023 17.2374
   9   1  -3 318.238 11.8236
  -9  -1   3 318.073 13.8815
   8   1  -3 106.581 6.99854
  -8  -1   3 93.6818 7.00497
   7   1  -3 10.7402 3.49978
  -7  -1   3 4.84527 3.53695
   6   1  -3 222.835 8.00517
  -6  -1   3 225.994 7.74433
   5   1  -3 485.372 13.6010
  -5  -1   3 481.063 13.8373
   4   1  -3 41.2259 2.47614
  -4  -1   3 36.5316 2.40186
   3   1  -3 2281.60 51.5697
  -3  -1   3 2263.05 60.7868
   2   1  -3 309.774 8.76538
  -2  -1   3 312.863 8.75303
   1   1  -3 2332.19 75.6887
  -1  -1   3 2264.56 76.1888
   0   1  -3 1364.09 41.8877
   0  -1   3 1316.36 60.8015
  -1   1  -3 938.671 24.0627
   1  -1   3 937.975 24.0457
  -2   1  -3 713.670 18.4033
   2  -1   3 707.479 18.3777
  -3   1  -3 175.691 4.84339
   3  -1   3 164.401 6.27626
  -4   1  -3 184.728 6.26061
   4  -1   3 191.922 7.28697
  -5   1  -3 353.968 13.1279
   5  -1   3 362.333 12.5888
  -6   1  -3 279.657 11.4171
   6  -1   3 290.479 14.9019
  -7   1  -3 54.6939 4.82487
   7  -1   3 50.6301 5.34743
  -8   1  -3 30.3593 5.90214
   8  -1   3 29.3696 7.08389
  -9   1  -3 8.07314 6.76105
   9  -1   3 0.00000 6.78603
   9   0  -3 53.8741 7.22851
  -9   0   3 51.4526 11.9234
   8   0  -3 191.131 10.0178
  -8   0   3 176.541 16.5914
   7   0  -3 164.141 8.39637
  -7   0   3 160.501 7.63188
   6   0  -3 314.174 10.4936
  -6   0   3 316.369 12.3141
   5   0  -3 66.3617 3.67203
  -5   0   3 57.7163 3.99898
   4   0  -3 9.44036 1.52781
  -4   0   3 4.36851 1.95290
   3   0  -3 2928.08 67.0273
  -3   0   3 3023.90 98.3120
   2   0  -3 2601.09 58.9482
  -2   0   3 2613.90 86.4711
   1   0  -3 4981.50 223.677
   0   0  -3 226.845 6.30012
   0   0   3 225.254 6.30081
  -1   0  -3 542.752 17.9893
   1   0   3 559.781 18.0017
  -2   0  -3 364.522 8.55011
   2   0   3 371.583 11.7079
  -3   0  -3 3474.84 93.0409
   3   0   3 3523.71 109.262
  -4   0  -3 302.845 7.47671
   4   0   3 297.573 10.2459
  -5   0  -3 227.517 6.15701
   5   0   3 228.670 8.49960
  -6   0  -3 71.2013 3.87934
   6   0   3 63.7945 6.85624
  -7   0  -3 4.78892 3.77318
   7   0   3 5.99259 3.59354
  -8   0  -3 384.896 15.4109
   8   0   3 408.837 14.9801
  -9   0  -3 9.97972 5.70406
   9   0   3 7.16291 6.47395
   9  -1  -3 154.656 14.5999
   8  -1  -3 285.991 13.0696
  -8   1   3 279.776 21.2835
   7  -1  -3 14.9927 4.53719
  -7   1   3 8.92620 4.31679
   6  -1  -3 16.0452 3.90387
  -6   1   3 17.0929 3.68315
   5  -1  -3 230.821 7.73674
  -5   1   3 226.867 9.26051
   4  -1  -3 1866.27 49.4865
  -4   1   3 1877.44 49.3616
   3  -1  -3 1392.48 31.9130
  -3   1   3 1402.43 36.9076
   2  -1  -3 34.0774 1.83981
  -2   1   3 32.3850 1.80808
   1  -1  -3 501.494 13.2662
  -1   1   3 491.999 11.5710
   0  -1  -3 1338.61 44.2284
   0   1   3 1322.30 44.5408
  -2  -1  -3 2245.55 74.5289
   2   1   3 2189.68 74.5198
  -3  -1  -3 517.962 15.4423
   3   1   3 504.764 26.5658
  -4  -1  -3 291.883 8.83837
   4   1   3 287.823 16.0927
  -5  -1  -3 1150.83 30.4321
   5   1   3 1129.10 30.3702
  -6  -1  -3 60.7903 4.30992
   6   1   3 78.4911 4.20978
  -7  -1  -3 430.416 23.9193
   7   1   3 456.468 15.4418
  -8  -1  -3 190.958 5.71812
   8   1   3 193.454 9.00389
  -9  -1  -3 20.1575 4.93403
   9   1   3 20.6468 9.66217
 -10  -1  -3 54.0358 6.39413
   8  -2  -3 0.67751 7.64468
  -8   2   3 2.04235 6.14662
   7  -2  -3 11.0611 5.50478
  -7   2   3 8.42765 5.02348
   6  -2  -3 692.685 25.7109
  -6   2   3 758.106 25.2711
   5  -2  -3 84.6186 6.73273
  -5   2   3 91.1308 7.89572
   4  -2  -3 472.831 16.1880
  -4   2   3 480.595 16.7156
   3  -2  -3 4.31276 2.22089
  -3   2   3 5.00709 2.35828
   2  -2  -3 33.1103 3.20371
  -2   2   3 20.2537 3.58512
   1  -2  -3 2141.68 67.1473
  -1   2   3 2178.46 57.3980
   0  -2  -3 896.756 28.6802
   0   2   3 905.218 28.6728
  -1  -2  -3 53.1863 2.45626
   1   2   3 44.5664 2.52773
  -2  -2  -3 149.842 5.88140
   2   2   3 152.229 5.83217
  -3  -2  -3 384.705 10.9000
   3   2   3 372.267 13.4225
  -4  -2  -3 978.487 33.0735
   4   2   3 956.142 48.8482
  -5  -2  -3 1170.00 32.3906
   5   2   3 1193.58 58.7888
  -6  -2  -3 161.539 5.19508
   6   2   3 161.750 8.19186
  -7  -2  -3 121.681 6.11936
   7   2   3 147.094 9.02537
  -8  -2  -3 3.37771 2.50482
   8   2   3 11.6635 6.95404
  -9  -2  -3 34.4857 4.97164
   9   2   3 41.0716 9.05747
 -10  -2  -3 133.501 6.72571
   7  -3  -3 5.33890 9.53195
  -7   3   3 0.21099 5.04108
   6  -3  -3 35.1164 5.44181
  -6   3   3 39.6616 4.64241
   5  -3  -3 5.43782 4.00477
  -5   3   3 2.22754 4.31800
   4  -3  -3 2480.43 77.8655
  -4   3   3 2498.54 66.6936
   3  -3  -3 350.764 12.2252
  -3   3   3 341.661 10.4081
   2  -3  -3 1074.30 34.1498
  -2   3   3 1078.46 34.9145
   1  -3  -3 950.679 45.0451
  -1   3   3 930.405 33.1331
   0  -3  -3 71.3055 3.43443
   0   3   3 60.7973 3.37980
  -1  -3  -3 2126.34 69.7722
   1   3   3 2198.57 69.7792
  -2  -3  -3 3289.82 108.132
   2   3   3 3377.60 91.0582
  -3  -3  -3 44.6130 2.12872
   3   3   3 48.0196 3.04140
  -4  -3  -3 1060.81 30.3768
   4   3   3 1080.08 55.0731
  -5  -3  -3 437.638 13.3335
   5   3   3 397.258 23.6754
  -6  -3  -3 210.153 7.49875
   6   3   3 213.411 13.1496
  -7  -3  -3 1069.71 38.1753
   7   3   3 1162.16 58.9883
  -8  -3  -3 0.80871 4.87426
   8   3   3 0.00000 15.1983
  -9  -3  -3 1.72214 4.63716
 -10  -3  -3 8.70147 5.49073
  10   3   3 20.6322 11.6056
   7  -4  -3 17.2137 7.77544
  -7   4   3 24.0075 6.99966
   6  -4  -3 48.9434 8.24748
  -6   4   3 67.9041 5.78520
   5  -4  -3 110.901 8.16142
  -5   4   3 107.797 7.57629
   4  -4  -3 817.692 38.2424
  -4   4   3 781.994 22.8479
   3  -4  -3 100.846 9.28090
  -3   4   3 101.720 5.79274
   2  -4  -3 555.575 27.1023
  -2   4   3 566.541 19.9760
   1  -4  -3 265.057 10.6601
  -1   4   3 276.179 10.6728
   0  -4  -3 222.628 8.56681
   0   4   3 217.179 8.45189
  -1  -4  -3 1923.12 62.9517
   1   4   3 1955.97 62.9426
  -2  -4  -3 51.9254 4.96549
   2   4   3 41.5600 2.70168
  -3  -4  -3 28.9822 2.15595
   3   4   3 27.7114 1.97015
  -4  -4  -3 1475.03 53.4609
   4   4   3 1370.84 47.3947
  -5  -4  -3 192.452 7.69895
   5   4   3 210.592 13.2881
  -6  -4  -3 676.441 19.6991
   6   4   3 714.383 35.4869
  -7  -4  -3 439.819 13.9027
   7   4   3 463.772 24.8345
  -8  -4  -3 7.15112 5.23456
   8   4   3 0.00000 7.20326
  -9  -4  -3 146.067 9.09737
 -10  -4  -3 3.68525 7.24996
  10   4   3 6.92865 11.9669
   6  -5  -3 21.1203 7.58818
  -6   5   3 11.4400 6.50919
   5  -5  -3 21.4940 6.00419
  -5   5   3 26.2968 5.12517
   4  -5  -3 3.79209 6.14464
  -4   5   3 6.58068 4.30561
   3  -5  -3 111.781 7.07720
  -3   5   3 94.6460 7.17827
  -2   5   3 1225.13 59.5923
   1  -5  -3 54.2687 6.18211
  -1   5   3 61.1797 6.43255
   0  -5  -3 129.048 7.34627
   0   5   3 121.780 7.08313
  -1  -5  -3 14.1190 3.61358
   1   5   3 16.5805 5.15673
  -2  -5  -3 46.6816 4.53047
   2   5   3 38.3463 4.50470
  -3  -5  -3 1717.49 56.5186
   3   5   3 1663.67 44.8775
  -4  -5  -3 833.723 22.0565
   4   5   3 781.318 21.9696
  -5  -5  -3 54.6352 5.52371
   5   5   3 82.8393 9.12814
  -6  -5  -3 270.982 9.70440
   6   5   3 268.506 15.3840
  -7  -5  -3 228.715 8.75587
   7   5   3 249.158 15.3074
  -8  -5  -3 145.274 7.79191
   8   5   3 160.260 13.7305
  -9  -5  -3 438.793 12.9875
   9   5   3 489.436 27.4528
 -10  -5  -3 2.95651 5.39270
  10   5   3 15.0600 11.4256
   5  -6  -3 469.212 19.1338
  -5   6   3 475.735 16.4270
   4  -6  -3 76.5170 9.46463
  -4   6   3 77.0113 6.67317
  -3   6   3 162.924 8.26630
   2  -6  -3 442.389 21.5487
  -2   6   3 459.255 22.4716
   1  -6  -3 180.639 10.9750
  -1   6   3 151.436 9.04531
   0  -6  -3 556.165 20.4152
   0   6   3 562.763 20.4290
  -1  -6  -3 320.214 11.7532
   1   6   3 315.323 11.6732
  -2  -6  -3 61.0131 6.34878
   2   6   3 67.8711 6.30855
  -3  -6  -3 737.462 25.5527
   3   6   3 758.069 21.4820
  -4  -6  -3 8.02799 2.52811
   4   6   3 5.45887 2.15472
  -5  -6  -3 218.322 8.15816
   5   6   3 207.996 6.86146
  -6  -6  -3 416.880 16.2192
   6   6   3 401.378 22.4799
  -7  -6  -3 76.7224 5.38278
   7   6   3 91.1024 9.99395
  -8  -6  -3 11.5209 4.69281
   8   6   3 0.00000 7.25003
  -9  -6  -3 2.68597 4.61829
   9   6   3 0.00000 10.5677
 -10  -6  -3 22.9103 5.81534
  10   6   3 27.5712 11.3774
   4  -7  -3 0.00000 6.98886
  -4   7   3 0.55748 8.07666
   3  -7  -3 137.897 14.1447
  -3   7   3 128.955 8.99255
   2  -7  -3 74.1000 9.55758
  -2   7   3 104.271 8.37771
   1  -7  -3 40.2549 10.2281
  -1   7   3 45.2270 6.08329
   0  -7  -3 1055.22 34.8634
   0   7   3 991.188 45.3414
  -1  -7  -3 42.6107 12.7041
   1   7   3 44.5737 6.09367
  -2  -7  -3 40.2069 4.33302
   2   7   3 36.0963 4.22372
  -3  -7  -3 395.411 14.9841
   3   7   3 409.305 12.7283
  -4  -7  -3 614.446 20.3757
   4   7   3 605.670 17.5723
  -5  -7  -3 539.760 19.2360
   5   7   3 553.710 15.6911
  -6  -7  -3 126.401 8.62907
   6   7   3 121.253 7.75283
  -7  -7  -3 12.8231 4.56960
   7   7   3 8.43130 6.62424
  -8  -7  -3 41.8994 5.68234
   8   7   3 35.4423 8.71962
  -9  -7  -3 165.367 8.39318
 -10  -7  -3 6.05855 6.03575
  10   7   3 0.00000 12.1305
  -3   8   3 122.481 8.78436
   2  -8  -3 90.3006 7.71282
  -2   8   3 90.3097 9.18433
   1  -8  -3 76.2950 5.80904
  -1   8   3 80.4662 6.98797
   0  -8  -3 2.48939 5.43872
   0   8   3 3.00747 5.62901
  -1  -8  -3 31.9145 5.87073
   1   8   3 23.3913 5.71269
  -2  -8  -3 847.637 28.6774
   2   8   3 850.666 28.3562
  -3  -8  -3 157.811 10.3752
   3   8   3 143.572 6.79986
  -4  -8  -3 51.3762 5.27921
   4   8   3 44.1626 3.84378
  -5  -8  -3 35.9743 4.32478
   5   8   3 34.3475 5.83045
  -6  -8  -3 245.879 10.0171
   6   8   3 239.149 8.44060
  -7  -8  -3 336.038 14.6188
   7   8   3 347.959 21.5897
  -8  -8  -3 265.355 11.3198
   8   8   3 289.711 19.7884
  -9  -8  -3 4.03761 5.51720
   9   8   3 7.13714 10.8097
 -10  -8  -3 3.85792 6.54169
  10   8   3 0.00000 12.8129
   2  -9  -3 64.7262 12.2793
  -2   9   3 90.2722 15.6039
   1  -9  -3 38.4286 6.10299
  -1   9   3 36.0350 7.38784
   0  -9  -3 353.469 12.0692
   0   9   3 333.654 16.4027
  -1  -9  -3 114.243 8.82079
   1   9   3 118.633 9.16392
  -2  -9  -3 165.015 9.50967
   2   9   3 166.561 9.54739
  -3  -9  -3 15.0254 4.73855
   3   9   3 22.8463 4.39720
  -4  -9  -3 61.1547 6.59166
   4   9   3 60.7858 4.95279
  -5  -9  -3 70.3031 5.62655
   5   9   3 61.9777 4.82513
  -6  -9  -3 162.372 8.74858
   6   9   3 162.128 7.49364
  -7  -9  -3 2.29545 5.73573
   7   9   3 0.00000 9.22181
  -8  -9  -3 18.1019 6.31771
  -9  -9  -3 54.8033 7.80090
   9   9   3 51.8462 12.5318
   0 -10  -3 0.00000 9.03549
   0  10   3 7.89828 7.85156
  -1 -10  -3 5.85663 6.59476
   1  10   3 24.9842 7.26644
  -2 -10  -3 402.488 18.0265
   2  10   3 398.812 16.5877
  -3 -10  -3 247.213 10.3642
   3  10   3 238.640 10.6838
  -4 -10  -3 194.139 10.0895
   4  10   3 215.778 11.2638
  -5 -10  -3 60.6516 5.82545
   5  10   3 53.4718 6.39954
  -6 -10  -3 10.4010 4.80211
   6  10   3 5.11012 5.25822
  -7 -10  -3 30.9492 7.12564
   7  10   3 26.2181 4.99808
  -8 -10  -3 257.273 15.8109
   8  10   3 281.418 23.2230
  -3 -11  -3 8.01649 6.65540
   3  11   3 10.6000 6.73668
  -4 -11  -3 54.4250 7.03862
   4  11   3 46.3447 7.02322
  -5 -11  -3 61.6167 6.70645
   5  11   3 60.3456 6.79086
  -6 -11  -3 71.5696 8.00793
   6  11   3 91.5045 7.86655
   6  10  -4 34.1692 16.9690
  -6 -10   4 2.85840 12.4399
  -5 -10   4 66.4355 11.7781
   4  10  -4 37.5762 18.5480
  -4 -10   4 51.7138 10.2181
   3  10  -4 120.956 13.7252
  -3 -10   4 158.625 12.7429
   2  10  -4 27.3516 8.80701
  -2 -10   4 15.7544 11.0053
  -8  -9   4 49.0776 25.2587
   7   9  -4 321.093 15.6933
  -7  -9   4 226.344 26.8055
   6   9  -4 300.084 30.3454
  -6  -9   4 327.633 14.2477
   5   9  -4 0.00000 24.0951
  -5  -9   4 3.90541 5.85000
   4   9  -4 0.00000 12.8329
  -4  -9   4 1.78839 7.33408
   3   9  -4 144.674 9.35217
  -3  -9   4 137.159 18.1453
   2   9  -4 9.24125 4.95315
  -2  -9   4 6.54333 5.44670
   1   9  -4 262.541 12.4126
  -1  -9   4 262.811 10.0260
   0   9  -4 96.4407 8.59163
   0  -9   4 108.195 6.75647
  -1   9  -4 8.53776 10.7967
   1  -9   4 4.50073 6.05134
  -9  -8   4 77.3100 12.9802
   8   8  -4 63.0599 13.9504
  -8  -8   4 83.2336 7.38107
   7   8  -4 232.022 13.7535
  -7  -8   4 208.724 13.3371
   6   8  -4 26.4815 10.1820
  -6  -8   4 29.1039 6.60740
   5   8  -4 382.294 22.5186
  -5  -8   4 307.262 13.3523
   4   8  -4 261.577 15.4805
  -4  -8   4 239.172 11.0812
   3   8  -4 81.1535 6.47492
  -3  -8   4 74.3874 5.15891
   2   8  -4 124.671 7.87013
  -2  -8   4 135.480 6.58980
   1   8  -4 2.00135 4.32686
  -1  -8   4 5.04591 3.59454
   0   8  -4 25.1513 5.20581
   0  -8   4 32.0876 4.19994
  -1   8  -4 171.998 9.99669
   1  -8   4 158.995 7.80281
  -2   8  -4 362.974 15.8174
   2  -8   4 372.937 12.4322
   9   7  -4 42.5062 12.7049
  -9  -7   4 44.0061 8.15330
   8   7  -4 15.0653 10.7310
  -8  -7   4 10.1946 4.76128
   7   7  -4 2.33416 4.11637
  -7  -7   4 18.7251 4.20990
   6   7  -4 490.488 21.7552
  -6  -7   4 444.322 17.0682
   5   7  -4 172.064 8.60989
  -5  -7   4 172.927 8.41480
   4   7  -4 213.446 9.70405
  -4  -7   4 212.883 7.50607
   3   7  -4 206.419 9.74552
  -3  -7   4 218.155 9.62289
   2   7  -4 25.6647 4.35224
  -2  -7   4 27.4567 3.23709
   1   7  -4 128.281 7.03845
  -1  -7   4 130.096 5.90878
   0   7  -4 20.6273 4.07373
   0  -7   4 20.6932 3.23150
  -1   7  -4 69.3578 5.98232
   1  -7   4 67.0401 5.15458
  -2   7  -4 6.79592 5.12575
   2  -7   4 3.86580 4.26238
  -3   7  -4 3.74162 5.95767
   3  -7   4 0.37205 3.83070
  -4   7  -4 92.3854 9.19060
   4  -7   4 82.7830 11.7085
   9   6  -4 44.9828 12.2525
  -9  -6   4 30.1521 5.88393
   8   6  -4 302.688 22.0938
  -8  -6   4 325.243 10.3929
  -7  -6   4 658.815 16.9115
   6   6  -4 83.2461 5.75498
  -6  -6   4 82.7056 5.17861
   5   6  -4 31.8273 3.81556
  -5  -6   4 33.2968 3.51666
   4   6  -4 814.645 27.5364
  -4  -6   4 814.548 22.2564
   3   6  -4 21.3852 3.70224
  -3  -6   4 30.4674 2.68805
   2   6  -4 1078.18 29.9110
  -2  -6   4 1103.96 28.9499
   1   6  -4 1694.84 53.9036
  -1  -6   4 1681.32 44.2030
   0   6  -4 175.981 8.05586
   0  -6   4 185.658 5.51050
  -1   6  -4 33.2858 3.99248
   1  -6   4 31.9911 3.15135
  -2   6  -4 106.872 6.64524
   2  -6   4 105.992 6.29862
  -3   6  -4 3.78076 4.98560
   3  -6   4 4.55171 3.23056
  -4   6  -4 101.796 8.23600
   4  -6   4 101.003 8.33599
  -5   6  -4 28.8546 6.59901
   5  -6   4 13.4113 7.25831
 -10  -5   4 112.266 7.84590
   9   5  -4 76.3207 12.9331
  -9  -5   4 79.2436 6.01408
   8   5  -4 161.172 16.6331
  -8  -5   4 155.143 7.31036
   7   5  -4 70.5424 9.40254
  -7  -5   4 61.9925 4.22066
   6   5  -4 418.019 14.7857
  -6  -5   4 414.621 11.1243
   5   5  -4 530.614 18.5501
  -5  -5   4 537.006 13.4517
   4   5  -4 324.008 11.6915
  -4  -5   4 311.138 8.44901
   3   5  -4 488.824 17.6547
  -3  -5   4 523.714 14.1784
   2   5  -4 16.5454 2.24836
  -2  -5   4 11.1829 2.13369
   1   5  -4 72.2627 4.17336
  -1  -5   4 71.1173 3.64782
   0   5  -4 700.742 22.8106
   0  -5   4 690.034 16.1009
  -1   5  -4 2662.87 83.5809
   1  -5   4 2618.44 67.6742
  -2   5  -4 125.697 6.66998
   2  -5   4 118.945 5.09058
  -3   5  -4 104.694 7.12347
   3  -5   4 110.851 5.08704
  -4   5  -4 3.06770 4.92067
   4  -5   4 9.76746 7.46278
  -5   5  -4 9.22342 5.51177
   5  -5   4 12.8589 6.12367
  -6   5  -4 179.499 10.7842
   6  -5   4 162.621 12.1633
  10   4  -4 77.8030 14.3330
 -10  -4   4 98.7753 7.00175
   9   4  -4 68.1197 8.32031
  -9  -4   4 56.0533 6.00182
   8   4  -4 66.0908 9.41865
  -8  -4   4 67.8271 5.38580
   7   4  -4 899.317 31.0917
  -7  -4   4 868.135 25.7171
   6   4  -4 10.5942 2.26462
  -6  -4   4 8.20414 3.10473
   5   4  -4 548.356 18.7010
  -5  -4   4 549.499 13.6952
   4   4  -4 522.896 17.6098
  -4  -4   4 513.307 12.7258
   3   4  -4 8.32901 2.28119
  -3  -4   4 5.08998 1.63578
   2   4  -4 1232.39 32.6691
  -2  -4   4 1213.50 32.3423
   1   4  -4 196.410 5.90389
  -1  -4   4 187.398 5.84752
   0   4  -4 93.2284 4.50382
   0  -4   4 68.1367 3.05592
  -1   4  -4 481.772 13.1749
   1  -4   4 479.837 13.0168
  -2   4  -4 23.5686 3.09306
   2  -4   4 27.0785 2.36191
  -3   4  -4 877.120 29.6547
   3  -4   4 901.668 23.6154
  -4   4  -4 34.6643 4.57005
   4  -4   4 32.2428 4.32380
  -5   4  -4 24.0140 4.26442
   5  -4   4 15.1980 5.32404
  -6   4  -4 11.4227 5.22818
   6  -4   4 11.9895 5.94769
  -7   4  -4 19.5743 6.74617
   7  -4   4 15.7349 7.58520
  10   3  -4 10.2256 13.9877
 -10  -3   4 6.98632 7.47719
   9   3  -4 74.8524 8.43802
  -9  -3   4 81.6265 6.36135
   8   3  -4 802.253 26.3092
  -8  -3   4 809.406 23.2810
   7   3  -4 1.56201 2.57807
  -7  -3   4 1.15322 3.41363
   6   3  -4 41.1340 3.48632
  -6  -3   4 34.9104 3.42888
   5   3  -4 1296.75 43.7629
  -5  -3   4 1297.73 35.2520
   4   3  -4 30.6069 3.08845
  -4  -3   4 27.5063 2.41961
   3   3  -4 3745.29 97.8483
  -3  -3   4 3728.81 86.1963
   2   3  -4 5254.83 137.648
  -2  -3   4 5264.63 137.340
   1   3  -4 256.590 7.51745
  -1  -3   4 253.426 8.95274
   0   3  -4 558.052 14.5215
   0  -3   4 530.987 14.4753
  -1   3  -4 1087.69 28.4200
   1  -3   4 1085.01 28.0942
  -2   3  -4 44.6892 2.60692
   2  -3   4 40.8426 2.58523
  -3   3  -4 1987.83 51.0672
   3  -3   4 1938.57 50.4370
  -4   3  -4 120.017 6.69760
   4  -3   4 121.186 6.47409
  -5   3  -4 229.049 10.7102
   5  -3   4 239.382 10.1822
  -6   3  -4 2.79047 5.10833
   6  -3   4 9.99106 5.03220
  -7   3  -4 5.43326 6.50898
   7  -3   4 5.06632 6.42417
   9   2  -4 23.7765 4.60468
  -9  -2   4 23.1231 6.09056
   8   2  -4 246.598 10.1109
  -8  -2   4 225.141 11.0112
   7   2  -4 5.37285 3.12394
  -7  -2   4 2.42442 3.31510
   6   2  -4 290.684 10.5829
  -6  -2   4 296.425 9.49538
   5   2  -4 13.8376 2.08419
  -5  -2   4 23.6465 2.59022
   4   2  -4 29.1543 2.43416
  -4  -2   4 31.8646 2.46883
   3   2  -4 79.2987 3.39623
  -3  -2   4 78.9172 3.35671
   2   2  -4 88.1836 3.22925
  -2  -2   4 89.3069 3.22591
   1   2  -4 1342.98 35.3305
  -1  -2   4 1328.37 43.4271
   0   2  -4 4650.96 142.444
   0  -2   4 4503.82 206.822
  -1   2  -4 233.018 8.12834
   1  -2   4 238.782 6.54461
  -2   2  -4 70.8408 3.02044
   2  -2   4 75.0572 2.93971
  -3   2  -4 164.821 5.23054
   3  -2   4 159.805 5.12525
  -4   2  -4 142.403 5.73100
   4  -2   4 147.780 6.63190
  -5   2  -4 1489.08 63.2367
   5  -2   4 1418.18 45.5901
  -6   2  -4 89.8355 7.36837
   6  -2   4 92.3089 6.56884
  -7   2  -4 7.62793 5.17596
   7  -2   4 0.00000 5.16469
  -8   2  -4 0.55310 6.84825
   8  -2   4 18.9297 10.8046
   9   1  -4 154.875 8.67089
  -9  -1   4 161.848 9.82973
   8   1  -4 464.266 16.7582
  -8  -1   4 455.188 17.5677
   7   1  -4 3.10020 3.63306
  -7  -1   4 7.63915 3.75552
   6   1  -4 1424.91 38.4074
  -6  -1   4 1460.00 48.7020
   5   1  -4 23.6612 2.35876
  -5  -1   4 20.2280 3.00907
   4   1  -4 30.3830 1.86414
  -4  -1   4 25.8884 2.33432
   3   1  -4 908.904 24.7023
  -3  -1   4 906.723 30.7135
   2   1  -4 3969.94 103.909
  -2  -1   4 3808.47 129.456
   1   1  -4 25.9927 1.51636
  -1  -1   4 19.8558 1.74611
   0   1  -4 866.404 39.8542
   0  -1   4 881.964 39.8526
  -1   1  -4 260.324 6.89002
   1  -1   4 237.055 12.1093
  -2   1  -4 1778.41 45.0077
   2  -1   4 1742.82 44.9636
  -3   1  -4 64.1143 2.88508
   3  -1   4 76.3722 3.66290
  -4   1  -4 41.4703 2.22617
   4  -1   4 35.3447 3.02173
  -5   1  -4 17.4045 2.77823
   5  -1   4 15.9254 3.05166
  -6   1  -4 140.564 6.43993
   6  -1   4 138.993 7.79409
  -7   1  -4 559.490 16.7972
   7  -1   4 563.927 19.5234
  -8   1  -4 249.579 12.0961
   8  -1   4 232.589 11.7037
  -9   1  -4 8.08179 6.85856
   9  -1   4 0.21474 6.93806
   9   0  -4 385.715 15.9444
  -9   0   4 345.749 26.0789
   8   0  -4 1.67058 4.93716
  -8   0   4 1.73965 8.72304
   7   0  -4 158.780 8.28877
  -7   0   4 144.084 7.65021
   6   0  -4 165.449 6.80914
  -6   0   4 177.586 7.79459
   5   0  -4 0.47282 2.32880
  -5   0   4 0.00000 2.45870
   4   0  -4 4586.79 104.350
  -4   0   4 4676.01 153.043
   3   0  -4 1344.91 30.9558
  -3   0   4 1374.55 45.3635
   2   0  -4 211.148 6.35948
  -2   0   4 220.188 7.84222
   1   0  -4 35.2347 2.15511
   0   0  -4 4870.07 155.071
   0   0   4 4706.39 222.480
  -1   0  -4 75.4377 2.95755
   1   0   4 77.5952 2.95061
  -2   0  -4 4027.15 88.4388
   2   0   4 3751.20 178.406
  -3   0  -4 609.307 14.2623
   3   0   4 624.593 19.5149
  -4   0  -4 221.555 5.79170
   4   0   4 222.858 7.94715
  -5   0  -4 119.800 4.11347
   5   0   4 134.879 5.72145
  -6   0  -4 50.5593 3.84977
   6   0   4 61.8055 4.65061
  -7   0  -4 293.927 9.97444
   7   0   4 294.714 11.4063
  -8   0  -4 7.75204 4.32717
   8   0   4 7.89661 4.74426
  -9   0  -4 4.76153 5.82389
   9   0   4 14.5386 11.0011
   8  -1  -4 72.8025 7.08805
  -8   1   4 86.4850 11.7865
   7  -1  -4 237.634 11.0729
  -7   1   4 245.110 17.7751
   6  -1  -4 155.844 6.81160
  -6   1   4 162.478 7.99646
   5  -1  -4 388.613 11.5594
  -5   1   4 381.790 11.0521
   4  -1  -4 59.2495 2.88369
  -4   1   4 57.5292 3.07951
   3  -1  -4 131.921 3.89837
  -3   1   4 131.412 4.35134
   2  -1  -4 1763.70 46.6360
  -2   1   4 1776.79 58.9683
   1  -1  -4 1387.84 36.3074
  -1   1   4 1373.02 37.3982
   0  -1  -4 127.859 3.89775
   0   1   4 133.493 3.90916
  -1  -1  -4 282.681 9.92761
   1   1   4 320.330 14.2789
  -2  -1  -4 2244.44 60.9351
   2   1   4 2303.58 104.901
  -3  -1  -4 6.28035 2.10225
  -4  -1  -4 3181.28 82.7431
   4   1   4 3066.11 103.263
  -5  -1  -4 1010.04 26.7202
   5   1   4 956.296 45.8808
  -6  -1  -4 12.7794 2.74414
   6   1   4 2.64930 9.96253
  -7  -1  -4 16.8228 4.02786
   7   1   4 22.7803 6.55062
  -8  -1  -4 291.953 7.46945
   8   1   4 278.249 17.9851
  -9  -1  -4 81.6561 7.18997
   9   1   4 72.6350 19.8628
   8  -2  -4 3.27908 11.9722
  -8   2   4 6.76597 11.1573
   7  -2  -4 306.347 13.6216
  -7   2   4 315.292 13.4419
   6  -2  -4 31.9640 4.98627
  -6   2   4 29.5139 4.85937
   5  -2  -4 181.863 8.39816
  -5   2   4 181.995 8.67786
   4  -2  -4 882.970 28.4810
  -4   2   4 882.105 29.4882
   3  -2  -4 2790.52 72.3764
  -3   2   4 2891.43 91.6749
   2  -2  -4 838.769 26.5864
  -2   2   4 843.673 22.9075
   1  -2  -4 585.260 18.8023
  -1   2   4 596.261 16.1644
   0  -2  -4 1456.02 37.9582
   0   2   4 1473.85 38.9256
  -1  -2  -4 453.618 14.9351
   1   2   4 428.888 20.7758
  -2  -2  -4 1309.91 44.1964
   2   2   4 1306.46 44.1925
  -3  -2  -4 81.8159 4.77384
   3   2   4 80.9819 6.34869
  -4  -2  -4 242.275 6.78548
   4   2   4 225.105 14.5310
  -5  -2  -4 11.1824 1.65643
   5   2   4 9.65610 3.94097
  -6  -2  -4 928.368 22.0962
   6   2   4 954.111 47.1102
  -7  -2  -4 1258.84 34.5792
   7   2   4 1272.37 63.5156
  -8  -2  -4 2.11563 3.16416
  -9  -2  -4 196.641 6.69900
 -10  -2  -4 1.20861 5.83290
   7  -3  -4 51.9724 11.0029
  -7   3   4 57.2108 6.16354
   6  -3  -4 75.1318 6.20118
  -6   3   4 73.8435 5.37622
   5  -3  -4 589.883 20.4735
  -5   3   4 595.165 17.5949
   4  -3  -4 120.123 7.01132
  -4   3   4 121.600 5.86182
   3  -3  -4 23.0285 4.08033
  -3   3   4 20.7146 2.61816
   2  -3  -4 36.6353 8.09761
  -2   3   4 39.5058 4.05104
   1  -3  -4 3959.86 126.605
  -1   3   4 4131.77 129.128
   0  -3  -4 280.799 9.57276
   0   3   4 271.782 9.54343
  -1  -3  -4 1738.18 55.9381
   1   3   4 1706.03 55.8984
  -2  -3  -4 1546.41 50.2572
   2   3   4 1524.79 52.4584
  -3  -3  -4 16.7706 1.33687
   3   3   4 18.5835 2.01275
  -4  -3  -4 1960.57 53.4614
   4   3   4 1884.63 96.9825
  -5  -3  -4 255.754 8.87256
   5   3   4 227.072 15.3594
  -6  -3  -4 26.9313 3.14568
   6   3   4 22.8410 4.91914
  -7  -3  -4 48.0674 9.07392
   7   3   4 46.4139 6.92505
  -8  -3  -4 33.7528 7.28816
  -9  -3  -4 240.989 9.94149
 -10  -3  -4 69.6361 6.57114
  10   3   4 78.7612 14.0063
   7  -4  -4 91.7959 9.01356
  -7   4   4 94.5305 7.57667
   6  -4  -4 4.29466 6.04403
  -6   4   4 13.7174 5.07743
   5  -4  -4 5.38376 4.79462
  -5   4   4 3.62855 3.90598
   4  -4  -4 167.831 8.56284
  -4   4   4 164.080 7.22899
   3  -4  -4 161.066 10.6933
  -3   4   4 168.849 6.70050
   2  -4  -4 590.104 19.9815
  -2   4   4 583.580 19.9321
   1  -4  -4 474.269 16.7955
  -1   4   4 471.718 16.7436
   0  -4  -4 183.024 7.23823
   0   4   4 193.688 8.08153
  -1  -4  -4 1938.42 63.6568
   1   4   4 1979.69 63.6494
  -2  -4  -4 57.3536 3.93445
   2   4   4 67.7213 3.18395
  -3  -4  -4 1853.94 58.6341
   3   4   4 2011.39 69.8422
  -4  -4  -4 1875.16 51.5704
   4   4   4 1915.58 65.6346
  -5  -4  -4 253.692 8.98924
   5   4   4 274.504 15.7302
  -6  -4  -4 265.753 9.39415
   6   4   4 271.294 15.3319
  -7  -4  -4 592.623 23.4096
   7   4   4 563.188 30.0524
  -8  -4  -4 3.39720 7.29583
   8   4   4 1.43573 6.60160
  -9  -4  -4 552.378 23.1557
 -10  -4  -4 84.4667 6.89643
  10   4   4 98.2983 14.4413
   6  -5  -4 0.00000 7.33277
  -6   5   4 4.67807 6.00693
   5  -5  -4 182.785 11.0457
  -5   5   4 189.114 9.24149
   4  -5  -4 283.746 17.4487
  -4   5   4 285.552 11.8906
   3  -5  -4 94.8527 9.73907
  -3   5   4 82.6759 7.20911
  -2   5   4 93.6460 9.70528
   1  -5  -4 98.4163 7.10707
  -1   5   4 103.534 7.20565
   0  -5  -4 137.660 7.63516
   0   5   4 122.982 7.19502
  -1  -5  -4 890.523 29.7846
   1   5   4 938.113 30.9872
  -2  -5  -4 52.8387 4.38620
   2   5   4 52.1404 4.24609
  -3  -5  -4 456.145 16.1346
   3   5   4 460.272 13.4787
  -4  -5  -4 13.5593 2.11585
   4   5   4 47.0697 6.13325
  -5  -5  -4 255.625 8.33173
   5   5   4 271.046 15.9698
  -6  -5  -4 1689.52 46.6579
   6   5   4 1674.62 84.3625
  -7  -5  -4 46.6276 4.88045
   7   5   4 56.8322 6.96032
  -8  -5  -4 29.3478 11.5607
   8   5   4 29.4984 7.51710
  -9  -5  -4 55.4645 6.90317
   9   5   4 59.2879 10.4308
 -10  -5  -4 15.3107 5.83643
  10   5   4 39.7866 12.0126
   5  -6  -4 140.173 9.78512
  -5   6   4 139.938 8.55341
   4  -6  -4 27.2300 8.15139
  -4   6   4 26.2446 6.99417
  -3   6   4 47.5971 5.13921
  -2   6   4 748.770 25.6432
   1  -6  -4 0.00000 10.3820
  -1   6   4 0.00000 11.1329
   0  -6  -4 887.095 30.0495
   0   6   4 896.350 30.0625
  -1  -6  -4 555.446 19.9102
   1   6   4 538.354 18.7726
  -2  -6  -4 7.61027 5.38819
   2   6   4 1.66485 5.34215
  -3  -6  -4 1361.83 45.2064
   3   6   4 1379.86 37.9836
  -4  -6  -4 182.062 7.29931
   4   6   4 174.927 6.09115
  -5  -6  -4 9.24814 4.54368
   5   6   4 20.9285 9.82907
  -6  -6  -4 330.485 20.7790
   6   6   4 302.959 19.9993
  -7  -6  -4 24.7776 4.06037
   7   6   4 16.0406 6.31362
  -8  -6  -4 301.532 21.1281
   8   6   4 396.270 21.6413
  -9  -6  -4 64.5306 7.41379
   9   6   4 64.9909 10.3087
 -10  -6  -4 9.83431 5.73139
  10   6   4 9.82648 11.4922
   4  -7  -4 12.7413 7.08715
  -4   7   4 5.68659 8.04571
   3  -7  -4 258.116 17.9718
  -3   7   4 270.453 11.4996
   2  -7  -4 14.8334 4.57201
  -2   7   4 14.9055 6.04566
  -1   7   4 2.24926 5.15880
   0  -7  -4 378.324 22.8204
   0   7   4 389.796 22.7256
  -1  -7  -4 16.2803 8.21103
  -2  -7  -4 1134.64 37.8718
   2   7   4 1116.75 37.2513
  -3  -7  -4 786.613 27.2696
   3   7   4 797.792 22.8851
  -4  -7  -4 184.317 9.82341
   4   7   4 179.649 7.00454
  -5  -7  -4 86.6433 6.78573
   5   7   4 88.0131 4.73846
  -6  -7  -4 345.822 12.7217
   6   7   4 332.336 14.3745
  -7  -7  -4 4.45946 4.14322
   7   7   4 0.00000 6.46280
  -8  -7  -4 726.258 28.3259
   8   7   4 822.435 40.6851
  -9  -7  -4 44.8882 7.49115
   9   7   4 37.2244 10.5219
 -10  -7  -4 3.87512 5.90931
  10   7   4 3.64452 11.5194
  -3   8   4 54.0424 7.51099
   2  -8  -4 32.7447 4.72525
  -2   8   4 28.9429 6.23594
   1  -8  -4 64.4308 7.59136
  -1   8   4 78.6165 6.91813
   0  -8  -4 178.249 11.1090
   0   8   4 185.915 10.5834
  -1  -8  -4 171.619 10.0874
   1   8   4 178.298 11.6759
  -2  -8  -4 155.438 8.74568
   2   8   4 154.999 8.38135
  -3  -8  -4 89.5639 7.51897
   3   8   4 87.2074 6.60577
  -4  -8  -4 241.214 11.0658
   4   8   4 248.279 8.93589
  -5  -8  -4 893.800 29.2058
   5   8   4 872.880 24.5276
  -6  -8  -4 3.29633 3.74562
   6   8   4 9.45486 5.53122
  -7  -8  -4 0.74570 5.75999
   7   8   4 2.93665 7.45924
  -8  -8  -4 65.9598 7.94597
   8   8   4 54.1778 9.86724
  -9  -8  -4 35.0840 5.60683
 -10  -8  -4 203.976 10.6692
  10   8   4 260.833 21.7994
   1  -9  -4 224.010 18.2395
  -1   9   4 249.067 13.6146
   0  -9  -4 9.23298 7.45897
   0   9   4 0.00000 6.62540
  -1  -9  -4 15.8633 6.81480
   1   9   4 4.09706 6.32404
  -2  -9  -4 287.033 13.6375
   2   9   4 258.310 12.0097
  -3  -9  -4 353.841 15.5370
   3   9   4 374.219 12.8276
  -4  -9  -4 28.7724 5.76034
   4   9   4 27.8991 4.89525
  -5  -9  -4 93.0316 7.35963
   5   9   4 95.5751 6.14819
  -6  -9  -4 14.4704 4.87451
   6   9   4 13.2737 3.89068
  -7  -9  -4 197.593 9.58953
   7   9   4 210.643 12.2044
  -8  -9  -4 141.397 11.0077
  -9  -9  -4 14.5791 6.89523
   9   9   4 9.81604 11.3007
   0 -10  -4 54.6468 10.1110
   0  10   4 47.3804 9.58285
  -1 -10  -4 159.596 13.5776
   1  10   4 158.465 13.6000
  -2 -10  -4 2.86224 7.59146
   2  10   4 4.87359 6.17109
  -3 -10  -4 34.3996 5.48440
   3  10   4 40.9459 6.56896
  -4 -10  -4 24.3919 6.93413
   4  10   4 15.5999 5.95290
  -5 -10  -4 479.512 19.9113
   5  10   4 489.281 15.6820
  -6 -10  -4 6.17121 5.33865
   6  10   4 1.93028 5.18337
  -7 -10  -4 180.599 8.86271
   7  10   4 202.381 18.0849
  -8 -10  -4 32.0940 9.60597
   8  10   4 23.3488 11.9576
  -3 -11  -4 49.8019 7.90987
   3  11   4 40.8613 7.14967
  -4 -11  -4 138.766 9.07152
   4  11   4 130.376 9.12902
  -5 -11  -4 19.7723 6.82176
   5  11   4 35.6196 6.48508
  -6 -11  -4 0.53908 6.91785
   6  11   4 0.00000 5.70208
  -5 -10   5 43.8170 18.8422
   4  10  -5 0.00000 17.0589
  -4 -10   5 0.00000 17.2123
  -3 -10   5 4.42943 11.9604
   7   9  -5 36.4479 13.6855
  -7  -9   5 1.67128 12.3863
   6   9  -5 0.00000 24.2034
  -6  -9   5 13.8689 13.7602
   5   9  -5 24.1812 25.1442
  -5  -9   5 8.40790 9.43983
   4   9  -5 733.039 27.7424
  -4  -9   5 696.569 34.3708
   3   9  -5 118.425 14.2330
  -3  -9   5 100.316 8.43047
   2   9  -5 0.65052 9.15301
  -2  -9   5 0.00000 11.2937
   1   9  -5 94.1313 13.1743
  -1  -9   5 67.2738 7.59925
   0   9  -5 47.3003 8.93433
   0  -9   5 46.8091 9.52233
   8   8  -5 2.66406 5.41836
  -8  -8   5 0.00000 14.9054
   7   8  -5 61.0097 11.1114
  -7  -8   5 48.7831 18.4173
   6   8  -5 63.2432 10.9325
  -6  -8   5 72.1992 10.4707
   5   8  -5 2.68146 9.36519
  -5  -8   5 0.80976 4.96526
   4   8  -5 228.025 17.2477
  -4  -8   5 183.686 9.30753
   3   8  -5 0.00000 14.2109
  -3  -8   5 0.00000 12.2259
   2   8  -5 313.525 12.5552
  -2  -8   5 317.715 13.0519
   1   8  -5 50.0893 5.24667
  -1  -8   5 44.5249 4.91532
   0   8  -5 0.78515 4.77512
   0  -8   5 1.95094 3.80014
  -1   8  -5 121.476 8.32279
   1  -8   5 113.599 6.62298
  -2   8  -5 121.488 9.08243
   2  -8   5 116.342 8.72866
  -9  -7   5 95.3259 15.1462
   8   7  -5 20.8459 11.9846
  -8  -7   5 18.2605 6.85166
   7   7  -5 758.363 33.2283
  -7  -7   5 690.242 21.5626
   6   7  -5 117.045 12.6862
  -6  -7   5 112.361 10.4223
   5   7  -5 8.74519 6.31795
  -5  -7   5 10.3299 4.26631
   4   7  -5 54.3723 5.36229
  -4  -7   5 61.3374 4.16245
   3   7  -5 120.872 9.78282
  -3  -7   5 112.156 5.51479
   2   7  -5 459.737 15.9511
  -2  -7   5 448.058 13.2091
   1   7  -5 215.354 9.32260
  -1  -7   5 218.820 7.69711
   0   7  -5 256.638 10.5944
   0  -7   5 249.291 8.43400
  -1   7  -5 0.77973 4.23639
   1  -7   5 3.47420 3.49923
  -2   7  -5 60.3728 6.08109
   2  -7   5 60.5372 4.58667
  -3   7  -5 147.364 10.3570
   3  -7   5 134.827 7.01492
   9   6  -5 14.3212 12.1788
  -9  -6   5 18.6637 6.46085
   8   6  -5 73.4576 11.7865
  -8  -6   5 102.791 6.07575
   7   6  -5 8.14615 4.24905
  -7  -6   5 7.33531 3.95892
   6   6  -5 1.95868 3.99602
  -6  -6   5 1.25923 3.47568
   5   6  -5 1047.74 35.5581
  -5  -6   5 1079.37 28.9225
   4   6  -5 637.025 22.4542
  -4  -6   5 658.671 18.0505
   3   6  -5 24.7514 3.77647
  -3  -6   5 31.1976 2.70728
   2   6  -5 36.1327 4.23304
  -2  -6   5 41.7499 3.97006
   1   6  -5 217.573 8.74576
  -1  -6   5 214.699 8.87001
   0   6  -5 408.217 14.4744
   0  -6   5 410.323 11.6771
  -1   6  -5 511.975 18.1091
   1  -6   5 530.430 14.9852
  -2   6  -5 67.4785 5.72861
   2  -6   5 66.0087 4.86542
  -3   6  -5 290.196 12.5145
   3  -6   5 290.955 9.69308
  -4   6  -5 44.0748 6.63417
   4  -6   5 40.3356 6.27684
  -5   6  -5 0.18396 7.59521
   5  -6   5 13.6662 9.92624
   9   5  -5 34.8008 12.2951
  -9  -5   5 48.6649 5.59839
   8   5  -5 10.5715 9.70849
  -8  -5   5 23.8305 4.59354
   7   5  -5 421.753 18.8912
  -7  -5   5 402.443 11.4620
   6   5  -5 18.9123 3.41076
  -6  -5   5 19.9312 3.25700
   5   5  -5 132.009 6.61754
  -5  -5   5 124.097 5.58548
   4   5  -5 90.3046 5.57228
  -4  -5   5 87.0380 4.00260
   3   5  -5 572.839 20.0965
  -3  -5   5 588.291 16.0166
   2   5  -5 912.843 31.1755
  -2  -5   5 951.131 31.0192
   1   5  -5 139.124 5.95715
  -1  -5   5 139.223 5.07949
   0   5  -5 111.022 5.43305
   0  -5   5 110.311 3.74216
  -1   5  -5 128.010 6.31597
   1  -5   5 133.838 5.12840
  -2   5  -5 120.574 6.67427
   2  -5   5 128.522 5.30995
  -3   5  -5 583.306 20.3278
   3  -5   5 585.760 16.2361
  -4   5  -5 440.584 16.4875
   4  -5   5 425.527 16.7108
  -5   5  -5 185.233 9.55453
   5  -5   5 194.830 10.9172
  -6   5  -5 8.54361 6.64434
   6  -5   5 7.12008 7.14291
  10   4  -5 202.138 21.1401
 -10  -4   5 203.868 17.9108
   9   4  -5 46.3737 8.00091
  -9  -4   5 40.4794 6.05711
   8   4  -5 502.792 27.5625
  -8  -4   5 530.790 16.3904
   7   4  -5 378.474 13.5056
  -7  -4   5 387.762 12.4634
   6   4  -5 112.893 7.25038
  -6  -4   5 129.457 6.05603
   5   4  -5 522.829 18.1830
  -5  -4   5 529.896 13.2737
   4   4  -5 101.925 5.36815
  -4  -4   5 105.036 4.03314
   3   4  -5 370.716 10.6457
  -3  -4   5 362.385 9.23803
   2   4  -5 972.187 26.5326
  -2  -4   5 1001.26 32.5179
   1   4  -5 128.720 4.91554
  -1  -4   5 127.771 5.46672
   0   4  -5 386.428 10.6819
   0  -4   5 381.224 10.6623
  -1   4  -5 521.305 14.1864
   1  -4   5 516.578 13.9996
  -2   4  -5 265.543 8.05944
   2  -4   5 262.829 7.91195
  -3   4  -5 242.058 9.83755
   3  -4   5 241.927 7.70954
  -4   4  -5 159.534 8.12302
   4  -4   5 150.079 8.09327
  -5   4  -5 44.8285 4.69416
   5  -4   5 37.7199 7.76170
  -6   4  -5 265.500 11.0703
   6  -4   5 250.056 12.6931
  -7   4  -5 61.1575 7.82071
   7  -4   5 67.3973 12.5507
   9   3  -5 58.3785 8.30310
  -9  -3   5 55.2812 6.95611
   8   3  -5 86.7991 5.95710
  -8  -3   5 69.3845 6.09788
   7   3  -5 21.4679 3.25680
  -7  -3   5 18.8704 3.87759
   6   3  -5 531.224 15.4000
  -6  -3   5 567.791 18.9341
   5   3  -5 1689.62 56.1143
  -5  -3   5 1665.63 45.2097
   4   3  -5 145.928 5.58984
  -4  -3   5 165.001 5.64330
   3   3  -5 269.208 8.04651
  -3  -3   5 261.603 7.98648
   2   3  -5 300.672 8.80270
  -2  -3   5 300.931 10.6038
   1   3  -5 100.197 3.87720
  -1  -3   5 97.6660 4.25797
   0   3  -5 2113.26 66.0791
   0  -3   5 2121.79 95.8208
  -1   3  -5 27.7612 2.56195
   1  -3   5 29.8574 1.99765
  -2   3  -5 42.2438 3.11883
   2  -3   5 47.0233 2.92497
  -3   3  -5 628.519 16.9435
   3  -3   5 622.123 16.7413
  -4   3  -5 59.9673 3.50611
   4  -3   5 66.8227 7.59829
  -5   3  -5 170.494 9.21647
   5  -3   5 176.402 8.58914
  -6   3  -5 245.349 11.9532
   6  -3   5 228.138 11.0032
  -7   3  -5 24.8931 6.92638
   7  -3   5 12.3533 6.48869
   9   2  -5 1.29941 4.46374
  -9  -2   5 0.77552 5.94885
   8   2  -5 474.383 16.8008
  -8  -2   5 462.379 18.1690
   7   2  -5 18.2913 3.54667
  -7  -2   5 23.4162 4.51691
   6   2  -5 109.946 5.13630
  -6  -2   5 117.390 8.74175
   5   2  -5 341.048 8.91234
  -5  -2   5 364.507 10.6676
   4   2  -5 158.432 5.75119
  -4  -2   5 165.359 5.69145
   3   2  -5 2708.03 71.1999
  -3  -2   5 2628.55 71.1700
   2   2  -5 29.6314 2.00184
  -2  -2   5 45.0838 3.08887
   1   2  -5 88.6024 4.28265
  -1  -2   5 92.2526 5.76206
   0   2  -5 35.3506 2.58776
   0  -2   5 34.4011 3.99940
  -1   2  -5 42.0775 2.21371
   1  -2   5 36.1973 2.42486
  -2   2  -5 2754.47 69.3901
   2  -2   5 2679.36 69.3261
  -3   2  -5 1199.89 30.9970
   3  -2   5 1190.56 30.9301
  -4   2  -5 49.0024 3.01602
   4  -2   5 53.7906 3.82888
  -5   2  -5 7.67380 3.48731
   5  -2   5 1.09669 3.46610
  -6   2  -5 44.8336 5.24138
   6  -2   5 45.7593 4.78743
  -7   2  -5 41.6266 6.24026
   7  -2   5 44.3029 5.74488
  -8   2  -5 414.896 18.0333
   8  -2   5 394.110 25.1284
   9   1  -5 241.694 10.7751
  -9  -1   5 246.660 12.4882
   8   1  -5 204.068 10.0042
  -8  -1   5 199.715 10.1798
   7   1  -5 34.6076 4.25831
  -7  -1   5 33.9680 4.47173
   6   1  -5 595.983 17.0845
  -6  -1   5 615.665 21.5593
   5   1  -5 68.1980 3.42022
  -5  -1   5 74.3278 5.01071
   4   1  -5 192.825 5.35017
  -4  -1   5 185.930 7.76468
   3   1  -5 1516.25 40.8576
  -3  -1   5 1519.75 50.8618
   2   1  -5 60.4896 2.79860
  -2  -1   5 66.2917 3.57444
   1   1  -5 2087.57 68.8273
  -1  -1   5 2051.30 68.8140
   0   1  -5 202.722 7.46755
   0  -1   5 202.893 10.2000
  -1   1  -5 429.584 11.1051
   1  -1   5 393.238 19.6332
  -2   1  -5 1676.03 43.0259
   2  -1   5 1687.70 53.4627
  -3   1  -5 135.166 4.33050
   3  -1   5 120.814 4.19559
  -4   1  -5 210.926 5.80331
   4  -1   5 207.600 7.91670
  -5   1  -5 682.326 16.2342
   5  -1   5 678.490 22.2166
  -6   1  -5 17.0479 3.58148
   6  -1   5 22.9126 4.25941
  -7   1  -5 196.005 8.55770
   7  -1   5 189.873 14.1103
  -8   1  -5 2.27140 5.21866
   8  -1   5 0.53514 5.67051
  -9   1  -5 42.4531 7.60382
   9  -1   5 32.2329 12.9722
   9   0  -5 3.72992 6.46043
  -9   0   5 10.7615 11.9040
   8   0  -5 34.5656 5.07917
  -8   0   5 36.1772 5.01453
   7   0  -5 309.902 12.3742
  -7   0   5 300.040 12.2876
   6   0  -5 1563.13 41.7808
  -6   0   5 1554.43 52.5774
   5   0  -5 11.1134 2.09251
  -5   0   5 6.82472 2.92263
   4   0  -5 252.208 6.69574
  -4   0   5 256.687 9.69337
   3   0  -5 105.764 3.43497
  -3   0   5 112.529 4.99378
   2   0  -5 139.780 5.59379
  -2   0   5 135.862 5.56832
   1   0  -5 7451.69 334.631
   0   0  -5 233.179 8.16737
   0   0   5 229.599 6.60089
  -1   0  -5 724.187 23.6036
   1   0   5 718.542 23.5968
  -2   0  -5 401.938 9.17706
   2   0   5 369.154 18.4491
  -3   0  -5 674.900 14.0164
  -4   0  -5 1472.27 33.5364
   4   0   5 1452.97 66.4090
  -5   0  -5 270.592 7.11347
   5   0   5 263.070 9.63381
  -6   0  -5 40.1041 2.92510
   6   0   5 36.9204 3.64196
  -7   0  -5 133.080 5.30495
   7   0   5 139.825 7.48327
  -8   0  -5 155.451 8.18731
   8   0   5 149.649 14.3522
  -9   0  -5 43.9843 8.90663
   9   0   5 52.0800 12.2991
   8  -1  -5 12.9247 6.09059
  -8   1   5 4.00788 9.61761
   7  -1  -5 44.8476 4.93366
  -7   1   5 37.1800 9.03777
   6  -1  -5 10.8030 3.50195
  -6   1   5 14.2021 3.19889
   5  -1  -5 88.7733 3.84601
  -5   1   5 89.6293 5.22428
   4  -1  -5 2025.28 46.0562
  -4   1   5 2003.54 67.3669
   3  -1  -5 40.4774 2.15456
  -3   1   5 36.0617 2.77768
   2  -1  -5 206.497 6.21552
  -2   1   5 218.091 7.81181
   1  -1  -5 178.123 6.50057
  -1   1   5 175.110 5.35718
   0  -1  -5 516.461 14.1870
   0   1   5 510.508 14.1918
  -1  -1  -5 8269.15 371.219
  -2  -1  -5 2734.02 74.1825
   2   1   5 2819.61 127.674
  -3  -1  -5 30.1751 1.48002
  -4  -1  -5 458.352 9.82696
  -5  -1  -5 555.290 11.9443
  -6  -1  -5 268.415 6.54320
   6   1   5 262.578 14.9019
  -7  -1  -5 807.333 18.8498
   7   1   5 759.362 38.1689
  -8  -1  -5 123.400 5.01585
   8   1   5 130.192 12.4497
  -9  -1  -5 45.3775 3.80020
   9   1   5 64.8447 19.5656
   8  -2  -5 0.00000 11.3172
  -8   2   5 8.23928 11.6743
   7  -2  -5 22.4779 6.01895
  -7   2   5 36.0328 9.56767
   6  -2  -5 421.190 15.6627
  -6   2   5 414.465 16.5151
   5  -2  -5 16.6704 3.75670
  -5   2   5 8.46783 3.55156
   4  -2  -5 112.058 4.56419
  -4   2   5 123.843 6.24199
   3  -2  -5 75.2600 3.40208
  -3   2   5 72.6251 3.13440
   2  -2  -5 1902.62 50.5802
  -2   2   5 1924.86 44.1001
   1  -2  -5 1482.53 46.3222
  -1   2   5 1482.16 50.4013
   0  -2  -5 7.12762 1.21396
   0   2   5 6.44510 1.40646
  -1  -2  -5 1133.02 37.3884
   1   2   5 1168.16 53.7571
  -2  -2  -5 621.144 28.9024
   2   2   5 588.747 28.8475
  -3  -2  -5 1104.74 37.4104
   3   2   5 1099.10 37.4044
  -4  -2  -5 2039.75 55.4833
  -5  -2  -5 473.847 11.5307
   5   2   5 473.435 24.7487
  -6  -2  -5 740.421 17.7762
   6   2   5 727.710 38.0291
  -7  -2  -5 64.4913 5.04728
   7   2   5 63.1739 7.88096
  -8  -2  -5 4.79754 2.92020
  -9  -2  -5 252.254 7.85802
 -10  -2  -5 326.437 10.5551
   7  -3  -5 172.058 12.0935
  -7   3   5 192.282 9.88469
   6  -3  -5 8.43999 5.20934
  -6   3   5 6.60655 4.31036
   5  -3  -5 71.8239 5.82295
  -5   3   5 79.0498 5.00529
   4  -3  -5 505.570 23.9132
  -4   3   5 502.740 14.9743
   3  -3  -5 25.0152 2.46638
  -3   3   5 24.8053 2.84387
   2  -3  -5 2280.76 71.6361
  -2   3   5 2311.16 61.3437
   1  -3  -5 866.471 23.1877
  -1   3   5 889.889 23.8796
   0  -3  -5 104.249 4.57879
   0   3   5 101.724 4.50388
  -1  -3  -5 600.003 19.9163
   1   3   5 597.613 28.6461
  -2  -3  -5 1453.49 46.5165
   2   3   5 1394.28 47.3541
  -3  -3  -5 1377.29 36.7234
   3   3   5 1381.21 46.8038
  -4  -3  -5 495.814 18.8303
   4   3   5 449.114 26.8572
  -5  -3  -5 288.966 7.86557
   5   3   5 274.937 16.7981
  -6  -3  -5 114.800 5.91295
   6   3   5 120.491 9.33554
  -7  -3  -5 789.208 29.5473
   7   3   5 753.318 39.1188
  -8  -3  -5 104.735 11.8897
  -9  -3  -5 57.1053 7.38030
   9   3   5 47.0061 15.6388
 -10  -3  -5 13.3973 6.02130
   7  -4  -5 15.6609 8.39764
  -7   4   5 22.8802 6.69659
   6  -4  -5 128.373 9.45465
  -6   4   5 129.796 8.35678
   5  -4  -5 95.7586 6.96718
  -5   4   5 94.8436 5.70349
   4  -4  -5 10.4466 4.14970
  -4   4   5 9.47271 3.39902
   3  -4  -5 341.218 12.4269
  -3   4   5 355.030 11.0668
   2  -4  -5 412.623 14.6817
  -2   4   5 389.091 14.7912
   1  -4  -5 447.923 21.0528
  -1   4   5 434.063 15.6145
   0  -4  -5 1888.90 59.7062
   0   4   5 1867.83 59.6720
  -1  -4  -5 2964.90 96.5225
   1   4   5 3002.75 96.5125
  -2  -4  -5 18.5228 3.62211
   2   4   5 14.3881 2.67076
  -3  -4  -5 285.359 9.86221
   3   4   5 287.049 10.9549
  -4  -4  -5 1217.31 33.2513
   4   4   5 1143.95 42.3382
  -5  -4  -5 96.4232 5.41018
   5   4   5 86.4160 8.94100
  -6  -4  -5 1105.25 30.5604
   6   4   5 1117.26 59.8871
  -7  -4  -5 486.113 19.6399
   7   4   5 464.480 25.3297
  -8  -4  -5 109.629 16.7144
  -9  -4  -5 124.518 10.1704
 -10  -4  -5 3.52702 6.34642
  10   4   5 42.4611 12.0269
   6  -5  -5 34.8126 7.91681
  -6   5   5 34.4268 6.93461
   5  -5  -5 79.3315 7.56638
  -5   5   5 74.5501 5.97865
  -4   5   5 285.752 10.5016
   3  -5  -5 82.3990 9.42629
  -3   5   5 89.8964 5.29746
   2  -5  -5 729.297 24.2546
  -2   5   5 715.509 35.9544
   1  -5  -5 35.5846 8.22582
  -1   5   5 31.7138 6.53519
   0  -5  -5 55.7554 6.32255
   0   5   5 53.1392 6.14603
  -1  -5  -5 9.65932 3.67401
   1   5   5 8.26145 3.53252
  -2  -5  -5 336.143 12.1751
   2   5   5 330.283 12.0001
  -3  -5  -5 2210.93 73.0659
   3   5   5 2283.44 61.4384
  -4  -5  -5 225.898 9.12443
   4   5   5 239.036 10.1457
  -5  -5  -5 707.070 19.9117
   5   5   5 719.896 36.8006
  -6  -5  -5 60.4525 8.75095
   6   5   5 53.8671 11.0459
  -7  -5  -5 31.4743 5.28717
   7   5   5 25.7646 5.95102
  -8  -5  -5 295.475 21.8919
   8   5   5 277.720 19.6940
  -9  -5  -5 502.994 17.7334
   9   5   5 559.750 29.4632
 -10  -5  -5 25.8083 6.26663
  10   5   5 35.1734 12.0903
   5  -6  -5 292.607 15.6773
  -5   6   5 322.976 13.2165
   4  -6  -5 72.6083 7.16609
  -4   6   5 63.3120 5.86179
  -3   6   5 548.209 17.8867
  -2   6   5 473.868 14.5104
   1  -6  -5 248.997 16.0146
  -1   6   5 242.691 15.9894
   0  -6  -5 420.218 25.1236
   0   6   5 400.383 16.4305
  -1  -6  -5 429.659 16.4458
   1   6   5 433.436 16.2433
  -2  -6  -5 94.0752 6.45917
   2   6   5 85.8710 6.37456
  -3  -6  -5 909.311 30.5883
   3   6   5 922.803 25.6558
  -4  -6  -5 85.9311 5.06123
   4   6   5 81.2694 4.32918
  -5  -6  -5 260.447 10.3459
   5   6   5 253.072 11.5485
  -6  -6  -5 645.582 33.9954
   6   6   5 598.549 33.3874
  -7  -6  -5 32.3713 4.99031
   7   6   5 29.3105 6.32213
  -8  -6  -5 136.034 18.1289
   8   6   5 140.428 12.8548
  -9  -6  -5 16.9946 6.78447
   9   6   5 7.76851 8.63204
 -10  -6  -5 0.00000 7.82368
  10   6   5 0.00000 10.8267
   4  -7  -5 7.77524 7.70977
  -4   7   5 16.0156 7.41037
   3  -7  -5 314.893 19.8912
  -3   7   5 359.748 19.2117
   2  -7  -5 37.5150 5.66703
  -2   7   5 39.1198 6.82137
  -1   7   5 276.787 12.9766
   0  -7  -5 1436.60 46.5727
   0   7   5 1392.30 46.4113
  -2  -7  -5 9.78459 7.58774
   2   7   5 0.00000 9.42971
  -3  -7  -5 404.293 15.4801
   3   7   5 411.911 15.4388
  -4  -7  -5 44.3565 8.58749
   4   7   5 39.9037 6.43039
  -5  -7  -5 1808.33 75.9631
   5   7   5 1720.79 60.5371
  -6  -7  -5 557.200 20.2085
   6   7   5 616.495 32.2361
  -7  -7  -5 5.60319 4.85601
   7   7   5 0.00000 12.7413
  -8  -7  -5 72.6099 8.64116
   8   7   5 60.6440 9.02895
  -9  -7  -5 23.3590 7.02624
   9   7   5 31.8357 9.93077
 -10  -7  -5 38.0488 9.11087
  10   7   5 44.7417 11.7588
  -3   8   5 244.055 15.7283
   2  -8  -5 0.00000 6.88820
  -2   8   5 4.46012 5.75432
   1  -8  -5 0.04521 7.27952
  -1   8   5 0.00000 5.12973
   0  -8  -5 15.0397 10.7399
   0   8   5 15.7646 10.1446
  -1  -8  -5 3.48828 9.29440
   1   8   5 3.20937 9.00287
  -2  -8  -5 869.831 30.5594
   2   8   5 783.485 26.4442
  -3  -8  -5 29.7477 8.40893
   3   8   5 42.2664 8.12750
  -4  -8  -5 46.7829 8.64623
   4   8   5 36.7874 6.52342
  -5  -8  -5 12.2407 7.54535
   5   8   5 8.06413 6.52058
  -6  -8  -5 186.192 9.20357
   6   8   5 227.772 17.9186
  -7  -8  -5 357.410 15.9275
   7   8   5 306.188 20.1898
  -8  -8  -5 478.546 16.1633
   8   8   5 495.097 27.8059
  -9  -8  -5 1.41605 8.87416
   9   8   5 0.00000 10.4037
 -10  -8  -5 13.6687 8.04317
  10   8   5 34.7214 12.4359
   1  -9  -5 94.4739 11.7109
  -1   9   5 105.379 10.4316
   0  -9  -5 139.299 9.09431
   0   9   5 155.556 11.7185
  -1  -9  -5 2.69254 6.39692
   1   9   5 0.00000 11.5931
  -2  -9  -5 319.865 14.3203
   2   9   5 292.779 14.3537
  -3  -9  -5 4.66783 5.85757
   3   9   5 0.76603 5.01132
  -4  -9  -5 161.668 18.9343
   4   9   5 168.746 13.1917
  -5  -9  -5 250.571 11.2297
   5   9   5 254.642 11.1375
  -6  -9  -5 98.0506 7.89521
   6   9   5 83.4130 10.4918
  -7  -9  -5 20.8759 4.67983
   7   9   5 33.0098 9.01751
  -8  -9  -5 11.8145 7.68523
   8   9   5 6.09339 9.39821
  -9  -9  -5 50.9828 9.40000
   9   9   5 17.1537 14.5167
   0 -10  -5 0.00000 20.3943
   0  10   5 23.9357 9.57410
  -1 -10  -5 0.00000 8.85937
   1  10   5 2.15111 8.31965
  -2 -10  -5 55.1296 8.51871
   2  10   5 48.0658 14.5878
  -3 -10  -5 40.3323 6.71250
   3  10   5 32.9771 6.58168
  -4 -10  -5 596.981 23.3887
   4  10   5 632.111 20.2358
  -5 -10  -5 112.264 8.52456
   5  10   5 98.7534 6.87461
  -6 -10  -5 2.80365 5.33446
   6  10   5 5.45415 4.50203
  -7 -10  -5 28.3000 25.4252
   7  10   5 4.11335 8.41620
  -8 -10  -5 87.9155 10.2517
   8  10   5 33.5516 14.5834
  -3 -11  -5 8.23501 8.68860
   3  11   5 8.93039 6.89178
  -4 -11  -5 4.30931 7.10969
   4  11   5 0.20912 6.90326
  -5 -11  -5 135.319 9.63149
   5  11   5 134.001 9.68233
  -6 -11  -5 78.5248 8.17561
   6  11   5 81.8406 6.70825
  -7  -9   6 202.605 14.5692
   6   9  -6 89.5784 15.9747
  -6  -9   6 148.539 22.2338
   5   9  -6 71.3121 26.2655
  -5  -9   6 49.3622 8.68821
   4   9  -6 98.4123 12.8847
  -4  -9   6 114.843 15.2103
   3   9  -6 22.8514 12.7566
  -3  -9   6 20.4117 11.3365
   2   9  -6 0.00000 11.3586
  -2  -9   6 0.00000 13.5022
   1   9  -6 351.025 27.9179
   0   9  -6 17.4523 6.22224
   8   8  -6 0.07149 11.9183
  -8  -8   6 10.1429 24.4741
   7   8  -6 147.284 12.2995
  -7  -8   6 172.591 20.9994
   6   8  -6 44.8705 10.3580
  -6  -8   6 40.4998 9.75721
   5   8  -6 163.757 17.7655
  -5  -8   6 196.522 11.9343
   4   8  -6 240.005 17.2918
  -4  -8   6 216.427 10.5907
   3   8  -6 0.00000 13.2134
  -3  -8   6 0.00000 11.8896
   2   8  -6 256.508 19.9665
  -2  -8   6 235.190 14.7041
   1   8  -6 11.2123 17.1626
  -1  -8   6 15.7294 8.12424
   0   8  -6 14.7923 5.99360
   0  -8   6 17.2064 6.58372
  -1   8  -6 214.626 11.3724
   1  -8   6 229.730 9.08060
  -2   8  -6 32.2256 8.02810
   2  -8   6 44.7971 8.51994
  -9  -7   6 57.9421 17.2505
   8   7  -6 3.18858 7.04206
  -8  -7   6 0.06360 7.93386
   7   7  -6 51.6536 10.9348
  -7  -7   6 53.0548 13.1410
   6   7  -6 49.0403 10.5541
  -6  -7   6 51.5290 9.51814
   5   7  -6 402.025 21.5348
  -5  -7   6 396.954 16.4640
   4   7  -6 473.859 23.0302
  -4  -7   6 452.420 25.5300
  -3  -7   6 138.425 8.74445
   2   7  -6 11.1600 5.75661
  -2  -7   6 8.28931 7.61649
   1   7  -6 13.2761 3.75224
  -1  -7   6 14.3159 3.26895
   0   7  -6 117.261 6.94598
   0  -7   6 106.120 7.64187
  -1   7  -6 165.654 8.68043
   1  -7   6 167.794 7.08661
  -2   7  -6 18.0354 5.17174
   2  -7   6 24.2991 4.07619
  -3   7  -6 17.6340 6.33011
   3  -7   6 11.1634 4.54170
  -9  -6   6 17.1222 13.7592
   8   6  -6 628.776 21.6491
  -8  -6   6 629.656 21.5578
   7   6  -6 270.804 13.8413
  -7  -6   6 247.936 13.0556
   6   6  -6 2.69612 10.3065
  -6  -6   6 14.9547 5.59672
   5   6  -6 383.930 20.8842
  -5  -6   6 421.982 16.5513
   4   6  -6 253.617 10.6129
  -4  -6   6 253.487 8.21251
   3   6  -6 126.687 7.30190
  -3  -6   6 138.948 8.05142
   2   6  -6 1124.49 37.4404
  -2  -6   6 1051.64 35.9660
   1   6  -6 474.282 16.8825
  -1  -6   6 490.390 16.9384
   0   6  -6 124.100 6.32163
   0  -6   6 129.113 6.94701
  -1   6  -6 4.99087 3.31674
   1  -6   6 3.93461 3.42653
  -2   6  -6 1.63195 4.06430
   2  -6   6 5.84791 3.93681
  -3   6  -6 390.830 15.4589
   3  -6   6 402.112 12.1744
  -4   6  -6 164.316 10.7426
   4  -6   6 148.882 10.3350
   9   5  -6 21.4811 12.4557
  -9  -5   6 34.4906 5.85695
   8   5  -6 145.625 18.7783
  -8  -5   6 150.070 8.65643
   7   5  -6 42.9697 5.05926
  -7  -5   6 54.7019 5.01392
   6   5  -6 511.976 22.5500
  -6  -5   6 483.291 13.0934
   5   5  -6 307.939 11.9042
  -5  -5   6 310.758 8.68239
   4   5  -6 95.5525 6.44545
  -4  -5   6 97.5280 4.97401
   3   5  -6 969.055 26.7201
  -3  -5   6 997.394 32.7477
   2   5  -6 50.1312 3.41697
  -2  -5   6 43.2604 3.68172
   1   5  -6 6.58140 2.55871
  -1  -5   6 9.69110 2.71721
   0   5  -6 543.292 14.9336
   0  -5   6 535.359 18.1360
  -1   5  -6 1205.51 38.7528
   1  -5   6 1156.65 30.7252
  -2   5  -6 266.699 10.4874
   2  -5   6 269.220 9.02865
  -3   5  -6 327.657 12.8908
   3  -5   6 328.248 12.1884
  -4   5  -6 12.5608 5.14188
   4  -5   6 14.0475 5.04811
  -5   5  -6 5.28425 5.48735
   5  -5   6 3.37045 6.11284
   9   4  -6 6.16408 7.83673
  -9  -4   6 1.91442 6.92481
   8   4  -6 9.53949 3.74202
  -8  -4   6 10.1073 4.84836
   7   4  -6 272.472 11.1258
  -7  -4   6 285.388 10.1090
   6   4  -6 479.260 18.2114
  -6  -4   6 499.163 14.7395
   5   4  -6 854.026 31.6120
  -5  -4   6 911.374 24.7213
   4   4  -6 521.528 14.7658
  -4  -4   6 518.481 12.9351
   3   4  -6 17.1877 2.41140
  -3  -4   6 17.2334 2.03276
   2   4  -6 394.743 11.5475
  -2  -4   6 399.758 13.8846
   1   4  -6 532.855 15.0112
  -1  -4   6 532.896 18.0034
   0   4  -6 169.143 7.21439
   0  -4   6 178.998 10.1715
  -1   4  -6 66.6634 4.43571
   1  -4   6 64.2892 3.35969
  -2   4  -6 39.7380 2.99386
   2  -4   6 41.6970 3.41957
  -3   4  -6 1482.14 38.8610
   3  -4   6 1470.25 38.3904
  -4   4  -6 45.3568 4.72969
   4  -4   6 51.3025 3.55716
  -5   4  -6 244.324 9.66885
   5  -4   6 224.000 15.4423
  -6   4  -6 59.3320 7.70849
   6  -4   6 69.2394 7.30110
   9   3  -6 200.311 9.12141
  -9  -3   6 197.889 12.0712
   8   3  -6 234.278 10.0980
  -8  -3   6 226.756 11.5592
   7   3  -6 22.1428 3.60605
  -7  -3   6 28.6780 5.46315
   6   3  -6 249.591 8.39825
  -6  -3   6 264.536 8.92376
   5   3  -6 472.916 13.7935
  -5  -3   6 462.697 13.7583
   4   3  -6 178.355 6.21545
  -4  -3   6 173.442 6.24052
   3   3  -6 2412.97 63.6176
  -3  -3   6 2316.09 79.3936
   2   3  -6 1517.62 40.1349
  -2  -3   6 1493.02 49.2788
   1   3  -6 1518.62 40.5888
  -1  -3   6 1540.29 49.7522
   0   3  -6 12.4804 2.31352
   0  -3   6 12.0838 3.23631
  -1   3  -6 9.69269 2.35656
   1  -3   6 10.7461 1.62030
  -2   3  -6 215.292 8.23554
   2  -3   6 215.691 6.54880
  -3   3  -6 1300.49 33.7890
   3  -3   6 1269.00 33.3728
  -4   3  -6 0.00000 2.83146
   4  -3   6 3.30146 2.43573
  -5   3  -6 31.0208 3.88236
   5  -3   6 28.5197 4.62617
  -6   3  -6 5.68409 5.56292
   6  -3   6 0.39121 7.33538
  -7   3  -6 22.1357 5.89931
   7  -3   6 31.6171 6.80785
   9   2  -6 43.4241 5.23508
  -9  -2   6 43.8594 8.89135
   8   2  -6 73.2770 6.59735
  -8  -2   6 79.1119 6.66951
   7   2  -6 91.0908 6.12489
  -7  -2   6 92.3617 7.23000
   6   2  -6 529.697 15.2411
  -6  -2   6 533.306 19.3133
   5   2  -6 193.292 5.79276
  -5  -2   6 194.218 8.60652
   4   2  -6 635.770 17.8856
  -4  -2   6 636.699 22.2282
   3   2  -6 54.7036 3.18395
  -3  -2   6 44.7569 3.99181
   2   2  -6 39.8605 2.47252
  -2  -2   6 40.7664 3.41758
   1   2  -6 2238.12 73.7800
  -1  -2   6 2151.38 100.171
   0   2  -6 5019.66 155.793
   0  -2   6 5041.56 226.296
  -1   2  -6 1930.78 49.2032
   1  -2   6 1891.57 87.0572
  -2   2  -6 783.194 20.6472
   2  -2   6 793.508 25.4999
  -3   2  -6 103.885 4.13365
   3  -2   6 93.5132 3.92134
  -4   2  -6 405.131 11.5391
   4  -2   6 410.505 14.0620
  -5   2  -6 1034.28 28.1162
   5  -2   6 1013.54 33.0706
  -6   2  -6 148.908 9.00722
   6  -2   6 137.355 8.06100
  -7   2  -6 19.1313 5.93152
   7  -2   6 14.8255 5.58691
  -8   2  -6 53.1700 7.75290
   8  -2   6 27.0224 7.06158
   9   1  -6 67.3298 6.52794
  -9  -1   6 57.0313 6.97989
   8   1  -6 52.1402 5.08302
  -8  -1   6 54.5177 6.01241
   7   1  -6 150.919 8.10439
  -7  -1   6 152.135 8.36938
   6   1  -6 1355.57 36.9328
  -6  -1   6 1378.75 46.3699
   5   1  -6 169.157 5.34509
  -5  -1   6 174.829 7.86579
   4   1  -6 9.88337 1.87892
  -4  -1   6 10.3311 2.79670
   3   1  -6 450.294 12.8426
  -3  -1   6 452.029 15.9869
   2   1  -6 373.406 10.8146
  -2  -1   6 392.215 13.5533
   1   1  -6 1159.11 38.7331
  -1  -1   6 1146.62 38.7123
   0   1  -6 1534.57 50.5702
   0  -1   6 1465.65 68.7623
  -1   1  -6 431.553 11.3231
   1  -1   6 409.468 20.0869
  -2   1  -6 3763.48 83.4196
   2  -1   6 3635.08 168.364
  -3   1  -6 74.4626 3.34314
   3  -1   6 75.6759 3.93272
  -4   1  -6 676.876 16.0767
   4  -1   6 697.261 31.8716
  -5   1  -6 367.212 9.40729
   5  -1   6 360.956 12.8680
  -6   1  -6 151.951 5.50138
   6  -1   6 152.237 8.27375
  -7   1  -6 317.548 14.6789
   7  -1   6 324.971 12.8755
  -8   1  -6 190.343 9.81318
   8  -1   6 192.316 16.4592
   9   0  -6 261.351 13.7069
  -9   0   6 237.553 28.1041
   8   0  -6 52.4492 5.60158
  -8   0   6 51.2518 5.83220
   7   0  -6 7.30556 3.91731
  -7   0   6 7.24322 4.14006
   6   0  -6 197.029 7.78916
  -6   0   6 203.526 9.00485
   5   0  -6 50.4812 2.91045
  -5   0   6 53.2291 3.99666
   4   0  -6 3182.96 71.6258
  -4   0   6 3111.58 104.986
   3   0  -6 949.519 22.0237
  -3   0   6 956.594 32.2420
   2   0  -6 720.648 24.7937
  -2   0   6 733.157 24.7839
   1   0  -6 83.1542 3.78526
  -1   0   6 74.2228 3.72373
   0   0  -6 1737.42 56.3313
   0   0   6 1641.08 54.8856
  -1   0  -6 809.655 26.9771
   1   0   6 840.266 26.9871
  -2   0  -6 6250.76 160.585
   2   0   6 5875.86 276.477
  -3   0  -6 59.0517 2.38535
  -4   0  -6 3.43886 1.43353
  -5   0  -6 49.2852 2.48778
   5   0   6 68.7899 6.51409
  -6   0  -6 19.4301 2.62249
   6   0   6 12.4669 5.41460
  -7   0  -6 459.704 11.9857
   7   0   6 480.448 24.2651
  -8   0  -6 5.44598 3.97836
   8   0   6 5.22537 8.38233
  -9   0  -6 36.7974 5.33323
   9   0   6 38.8519 11.7131
   8  -1  -6 0.00000 6.32627
  -8   1   6 0.00000 10.4508
   7  -1  -6 480.732 15.0354
  -7   1   6 452.794 27.8917
   6  -1  -6 34.8277 4.08788
  -6   1   6 36.2751 3.87187
   5  -1  -6 14.2698 2.62794
  -5   1   6 16.5155 3.18494
   4  -1  -6 49.5017 2.68209
  -4   1   6 43.6455 3.77741
   3  -1  -6 56.2321 2.73403
  -3   1   6 54.7411 3.72175
   2  -1  -6 4048.32 106.346
  -2   1   6 4069.45 134.524
   1  -1  -6 5099.39 167.975
  -1   1   6 5050.62 136.714
   0  -1  -6 430.002 12.1918
   0   1   6 443.823 12.2194
  -1  -1  -6 914.157 30.1108
   1   1   6 923.584 30.1164
  -2  -1  -6 1473.19 48.6635
   2   1   6 1543.13 69.8043
  -3  -1  -6 86.7430 2.89052
  -4  -1  -6 4900.14 99.2506
  -5  -1  -6 874.272 18.3334
  -6  -1  -6 67.4785 3.20961
  -7  -1  -6 231.828 6.50470
  -8  -1  -6 124.903 5.18248
  -9  -1  -6 184.667 6.63883
   8  -2  -6 10.9168 7.03535
  -8   2   6 17.0849 11.5515
   7  -2  -6 725.939 25.2716
  -7   2   6 712.546 40.0336
   6  -2  -6 31.1223 5.15530
  -6   2   6 20.7786 7.98769
   5  -2  -6 2.33553 2.49651
  -5   2   6 2.18536 5.59217
   4  -2  -6 40.5255 2.62457
  -4   2   6 48.3643 3.94946
   3  -2  -6 230.070 7.04059
  -3   2   6 223.343 7.35354
   2  -2  -6 1292.25 34.3401
  -2   2   6 1294.93 35.4083
   1  -2  -6 201.907 5.98726
  -1   2   6 200.371 6.20558
   0  -2  -6 268.089 7.48449
   0   2   6 259.988 9.57274
  -1  -2  -6 1597.73 52.4018
   1   2   6 1635.12 75.2913
  -2  -2  -6 360.301 12.6587
   2   2   6 386.494 18.2022
  -3  -2  -6 724.459 25.4047
   3   2   6 775.853 35.3514
  -4  -2  -6 259.705 7.94781
  -5  -2  -6 19.3876 1.90360
  -6  -2  -6 853.456 20.2566
  -7  -2  -6 567.891 14.2085
  -8  -2  -6 1.69196 2.66795
  -9  -2  -6 221.516 7.13201
 -10  -2  -6 71.6173 4.25017
   7  -3  -6 48.3985 7.49752
  -7   3   6 44.4524 8.96596
   6  -3  -6 33.3352 5.90649
  -6   3   6 37.0266 4.94490
   5  -3  -6 1474.50 48.4458
  -5   3   6 1548.84 41.5062
   4  -3  -6 84.2393 4.21583
  -4   3   6 83.1951 5.41082
   3  -3  -6 90.1076 4.80308
  -3   3   6 96.9066 4.85613
   2  -3  -6 8.56556 2.14670
  -2   3   6 12.4679 2.23269
   1  -3  -6 3264.59 102.005
  -1   3   6 3291.22 87.1111
   0  -3  -6 1003.61 26.3852
   0   3   6 1001.93 34.3731
  -1  -3  -6 3735.72 117.504
   1   3   6 3723.04 173.511
  -2  -3  -6 317.809 10.8555
   2   3   6 325.688 16.2798
  -3  -3  -6 137.381 5.66833
   3   3   6 139.986 5.60844
  -4  -3  -6 488.187 17.6959
   4   3   6 450.347 24.9689
  -5  -3  -6 50.1311 2.72521
   5   3   6 44.4906 5.61584
  -6  -3  -6 578.986 14.1181
   6   3   6 594.854 30.3398
  -7  -3  -6 200.849 12.1192
   7   3   6 204.394 13.9579
  -8  -3  -6 75.5778 7.00287
   8   3   6 65.3952 8.63120
  -9  -3  -6 99.3361 9.31246
 -10  -3  -6 67.9178 6.11260
   7  -4  -6 70.3702 11.3412
  -7   4   6 58.8410 8.73303
   6  -4  -6 0.00000 6.47988
  -6   4   6 6.09002 5.20739
   5  -4  -6 171.239 11.2749
  -5   4   6 180.360 8.62441
   4  -4  -6 11.7483 4.44246
  -4   4   6 18.0651 3.67830
   3  -4  -6 1407.06 45.4194
  -3   4   6 1457.01 39.1661
   2  -4  -6 739.071 23.9485
  -2   4   6 743.226 20.7688
   1  -4  -6 14.3282 2.15127
  -1   4   6 25.6029 2.50816
   0  -4  -6 1628.92 52.1251
   0   4   6 1641.44 52.1171
  -1  -4  -6 1106.31 35.7154
   1   4   6 1083.91 35.6599
  -2  -4  -6 57.5028 4.60552
   2   4   6 56.1158 3.66462
  -3  -4  -6 2764.06 87.1272
   3   4   6 2762.31 93.2637
  -4  -4  -6 1856.64 50.2499
   4   4   6 1843.99 64.0199
  -5  -4  -6 384.880 15.0151
   5   4   6 389.655 21.1135
  -6  -4  -6 82.0695 5.43524
   6   4   6 83.3261 7.76654
  -7  -4  -6 107.004 10.1572
   7   4   6 84.4667 9.23264
  -8  -4  -6 147.790 12.1191
  -9  -4  -6 282.322 15.3029
   9   4   6 273.742 20.2973
 -10  -4  -6 0.00000 9.52318
  10   4   6 14.4974 11.6701
   6  -5  -6 3.79232 7.41136
  -6   5   6 3.52273 6.31253
   5  -5  -6 138.038 10.7567
  -5   5   6 150.609 8.84232
   4  -5  -6 182.851 15.2460
  -4   5   6 198.044 8.67262
   3  -5  -6 580.528 19.4626
  -3   5   6 581.146 17.2179
   2  -5  -6 98.3778 6.01710
  -2   5   6 91.7576 7.93727
   1  -5  -6 75.4924 10.0739
  -1   5   6 70.8279 6.36566
   0  -5  -6 182.656 9.70943
   0   5   6 166.581 8.47150
  -1  -5  -6 1050.44 34.0084
   1   5   6 1014.51 33.9486
  -2  -5  -6 695.305 23.6259
   2   5   6 695.098 23.4998
  -3  -5  -6 24.8103 5.00720
   3   5   6 36.6209 5.13205
  -4  -5  -6 51.6050 4.29648
   4   5   6 70.6538 5.97788
  -5  -5  -6 451.756 13.4283
   5   5   6 431.341 24.4412
  -6  -5  -6 1607.31 55.7361
   6   5   6 1606.98 80.2710
  -7  -5  -6 8.37859 4.17593
   7   5   6 5.49496 5.42154
  -8  -5  -6 210.230 13.5165
   8   5   6 205.964 15.1428
  -9  -5  -6 24.9525 9.28731
   9   5   6 24.3511 9.57679
 -10  -5  -6 0.00000 9.36355
  10   5   6 5.59380 11.5756
   5  -6  -6 93.2549 9.16712
  -5   6   6 90.7801 7.83669
   4  -6  -6 2.79902 6.09315
  -4   6   6 4.59778 5.06922
  -3   6   6 81.3421 6.90340
   2  -6  -6 830.291 38.2834
  -2   6   6 815.888 23.7097
   1  -6  -6 485.140 24.8663
  -1   6   6 477.309 17.5962
   0  -6  -6 1812.80 86.8094
  -1  -6  -6 445.776 16.3509
   1   6   6 461.577 17.0455
  -2  -6  -6 103.058 6.85288
   2   6   6 107.772 6.52775
  -3  -6  -6 670.199 23.1621
   3   6   6 677.131 19.3044
  -4  -6  -6 0.00000 10.5549
   4   6   6 7.71140 5.11334
  -5  -6  -6 246.735 9.62092
   5   6   6 174.482 13.0505
  -6  -6  -6 683.412 24.6389
   6   6   6 767.235 38.1566
  -7  -6  -6 63.8350 6.49582
   7   6   6 50.2683 6.84263
  -8  -6  -6 428.203 19.7752
   8   6   6 384.275 22.5825
  -9  -6  -6 32.3411 8.13290
   9   6   6 22.2961 19.5615
 -10  -6  -6 199.599 12.7372
   4  -7  -6 26.2276 8.65568
  -4   7   6 21.2374 6.54633
   3  -7  -6 257.816 11.9332
  -3   7   6 274.524 13.3429
   2  -7  -6 16.4214 5.24082
  -2   7   6 13.0060 6.60911
  -1   7   6 219.523 11.8020
   0  -7  -6 253.768 13.5661
   0   7   6 262.486 13.5142
   1   7   6 4.67755 11.9174
  -2  -7  -6 901.029 42.7195
   2   7   6 951.178 42.7821
  -3  -7  -6 1252.20 54.3944
   3   7   6 1186.66 40.7123
  -4  -7  -6 177.410 11.8708
   4   7   6 173.043 7.59195
  -5  -7  -6 34.5154 7.59474
   5   7   6 55.7188 13.5951
  -6  -7  -6 117.099 7.59390
   6   7   6 117.246 12.9160
  -7  -7  -6 3.33314 4.73320
   7   7   6 0.00000 12.4005
  -8  -7  -6 532.012 32.7788
   8   7   6 562.028 31.2819
  -9  -7  -6 9.26816 11.9790
   9   7   6 1.70209 8.76398
 -10  -7  -6 6.94110 8.59571
  10   7   6 4.90746 13.9671
   3  -8  -6 11.3472 12.3025
  -3   8   6 11.1931 7.01667
   2  -8  -6 27.1402 6.36626
  -2   8   6 20.1659 8.42204
   1  -8  -6 147.998 19.0746
  -1   8   6 129.150 22.0874
   0  -8  -6 438.362 18.9661
   0   8   6 465.463 18.8255
  -1  -8  -6 7.74157 13.1803
   1   8   6 30.0127 8.98103
  -2  -8  -6 4.87704 9.66014
   2   8   6 48.8450 15.2401
  -3  -8  -6 34.8991 12.6856
   3   8   6 33.2902 6.13244
  -4  -8  -6 200.987 10.8660
   4   8   6 192.564 8.62216
  -5  -8  -6 914.496 45.6819
   5   8   6 963.759 49.3968
  -6  -8  -6 3.24762 7.20362
   6   8   6 0.00000 9.54211
  -7  -8  -6 40.8466 17.0531
   7   8   6 56.4692 14.9918
  -8  -8  -6 28.6058 9.31822
   8   8   6 24.7110 8.73768
  -9  -8  -6 31.8297 13.0690
   9   8   6 21.0426 9.92641
 -10  -8  -6 447.733 36.3964
  10   8   6 429.973 28.2100
   1  -9  -6 395.885 24.0270
  -1   9   6 478.728 23.6053
   0  -9  -6 38.4149 14.1166
   0   9   6 31.8253 7.90122
  -1  -9  -6 25.6039 17.1497
   1   9   6 10.5307 11.1584
  -2  -9  -6 97.3395 17.9009
   2   9   6 90.6434 12.0189
  -3  -9  -6 16.3923 10.6345
   3   9   6 25.1659 8.49698
  -4  -9  -6 48.8597 15.0945
   4   9   6 64.6072 15.6798
  -5  -9  -6 267.595 13.9898
   5   9   6 227.667 11.8784
  -6  -9  -6 13.0124 4.87827
  -7  -9  -6 142.571 8.67574
   7   9   6 154.822 19.3799
  -8  -9  -6 13.1780 7.86428
   8   9   6 14.1960 18.4536
  -9  -9  -6 63.1227 18.8102
   0 -10  -6 83.9785 11.4062
   0  10   6 67.9197 8.91028
  -1 -10  -6 264.318 15.7809
   1  10   6 284.219 18.4603
  -2 -10  -6 221.421 13.9588
   2  10   6 259.987 16.9097
  -3 -10  -6 8.56734 9.39510
   3  10   6 9.73391 6.75950
  -4 -10  -6 14.1969 19.1068
   4  10   6 13.8416 13.8024
  -5 -10  -6 98.2841 8.36561
   5  10   6 70.5964 10.5967
  -6 -10  -6 8.33603 5.98942
   6  10   6 0.99033 8.43254
  -7 -10  -6 291.374 14.0908
   7  10   6 311.883 26.7619
  -8 -10  -6 13.6716 9.35259
  -3 -11  -6 136.931 11.7767
   3  11   6 129.675 9.23677
  -4 -11  -6 205.361 15.1980
   4  11   6 202.262 14.6486
  -5 -11  -6 3.02174 7.69679
   5  11   6 6.81308 6.80755
  -6 -11  -6 32.2222 7.43742
   6  11   6 38.7680 7.04067
   6   9  -7 12.6654 15.8766
  -6  -9   7 27.3075 20.3314
  -5  -9   7 9.00744 13.1380
   4   9  -7 447.225 20.2076
  -4  -9   7 503.946 19.9907
   3   9  -7 0.00000 17.9246
  -3  -9   7 0.00000 11.0745
   2   9  -7 150.895 19.6878
  -2  -9   7 201.871 16.5230
   1   9  -7 55.1428 21.9367
  -1  -9   7 85.2997 21.4430
   8   8  -7 8.24112 6.76556
  -8  -8   7 0.00000 26.1791
   7   8  -7 132.565 12.8684
  -7  -8   7 127.523 20.2278
   6   8  -7 6.61256 20.1394
  -6  -8   7 4.68862 10.8893
   5   8  -7 90.0260 12.8282
   4   8  -7 256.593 17.9367
  -4  -8   7 231.413 17.3871
   3   8  -7 54.3005 13.3418
  -3  -8   7 42.1962 12.7957
   1   8  -7 77.9447 14.0359
   0   8  -7 8.27056 20.0377
   1  -8   7 288.544 18.7215
   8   7  -7 111.129 9.60520
  -8  -7   7 116.417 10.2163
   7   7  -7 668.295 41.6762
  -7  -7   7 664.345 27.8558
   6   7  -7 1.28067 10.0633
  -6  -7   7 21.3883 14.7354
   5   7  -7 0.99791 11.4685
  -5  -7   7 3.23750 15.1557
  -4  -7   7 8.05123 5.68237
   3   7  -7 5.48980 11.6869
  -3  -7   7 11.0176 10.7327
   2   7  -7 1175.53 53.9596
  -2  -7   7 1190.57 56.6572
   1   7  -7 83.1487 8.45828
  -1  -7   7 81.6369 7.15994
   0   7  -7 6.35611 15.9218
   0  -7   7 10.0040 6.99414
  -1   7  -7 0.00000 18.5850
   1  -7   7 8.41475 5.68875
  -2   7  -7 18.0923 8.93992
   2  -7   7 34.0432 4.33181
  -3   7  -7 179.426 10.1236
   3  -7   7 213.925 10.2669
  -9  -6   7 6.32036 26.8999
   8   6  -7 66.8681 7.87376
  -8  -6   7 65.5814 9.34485
  -7  -6   7 0.63787 12.7033
   6   6  -7 14.7101 9.96673
  -6  -6   7 7.33939 10.6376
   5   6  -7 1152.06 58.1432
  -5  -6   7 1311.69 65.0383
  -4  -6   7 147.765 7.42046
   3   6  -7 271.464 17.4678
  -3  -6   7 250.238 15.0491
   2   6  -7 386.962 25.5331
   1   6  -7 152.685 8.34636
  -1  -6   7 145.178 6.98431
   0   6  -7 352.512 19.3534
   0  -6   7 386.603 19.7298
  -1   6  -7 341.229 20.3774
   1  -6   7 422.053 20.2471
  -2   6  -7 69.3295 8.95606
   2  -6   7 81.5299 6.24272
  -3   6  -7 176.898 9.69034
   3  -6   7 188.063 7.68862
  -4   6  -7 42.3065 6.73416
   4  -6   7 35.8869 5.33354
  -9  -5   7 39.2855 9.91139
   8   5  -7 101.901 6.74291
  -8  -5   7 122.293 11.9615
  -7  -5   7 65.6054 6.59416
   6   5  -7 266.947 13.9767
  -6  -5   7 263.594 9.89892
   5   5  -7 379.587 15.4062
  -5  -5   7 378.200 13.2367
   4   5  -7 26.8837 2.98246
  -4  -5   7 21.6801 2.89521
   3   5  -7 444.279 15.1768
  -3  -5   7 414.842 16.2030
   2   5  -7 658.203 18.7879
  -2  -5   7 680.526 22.6666
   1   5  -7 25.6589 3.36957
  -1  -5   7 18.8621 2.92592
   0   5  -7 1194.11 40.5031
   0  -5   7 1342.38 57.8271
  -1   5  -7 16.1069 3.78476
   1  -5   7 17.2334 3.59418
  -2   5  -7 8.77267 3.95335
   2  -5   7 18.6240 3.39145
  -3   5  -7 212.182 9.69795
   3  -5   7 224.302 9.30068
  -4   5  -7 252.070 11.4641
   4  -5   7 242.977 8.83634
  -5   5  -7 326.936 12.6017
   5  -5   7 305.782 14.2279
   9   4  -7 133.770 7.39555
  -9  -4   7 130.423 11.3637
   8   4  -7 267.520 11.7022
  -8  -4   7 252.652 12.8545
   7   4  -7 28.2374 4.66660
  -7  -4   7 27.7374 5.35181
   6   4  -7 119.265 8.32296
  -6  -4   7 124.397 8.03301
   5   4  -7 92.1023 5.20983
  -5  -4   7 92.5961 9.39305
   4   4  -7 16.7783 2.70990
  -4  -4   7 15.0573 2.95700
   3   4  -7 1716.18 45.7686
  -3  -4   7 1721.84 56.2718
   2   4  -7 500.399 14.3638
  -2  -4   7 507.280 17.3163
   1   4  -7 25.6311 2.70297
  -1  -4   7 23.5667 4.45949
   0   4  -7 15.6050 3.04180
   0  -4   7 21.9138 4.49017
  -1   4  -7 261.645 10.0490
   1  -4   7 263.884 14.1106
  -2   4  -7 547.451 19.3932
   2  -4   7 565.293 15.2719
  -3   4  -7 57.8629 3.75274
   3  -4   7 60.2640 3.78349
  -4   4  -7 1.58264 3.16895
   4  -4   7 0.26361 3.00528
  -5   4  -7 1.95819 4.52687
   5  -4   7 0.00000 5.05250
  -6   4  -7 285.803 11.9240
   6  -4   7 262.369 13.3480
   9   3  -7 183.130 8.99267
  -9  -3   7 166.126 12.0253
   8   3  -7 34.4432 5.06623
  -8  -3   7 31.6163 6.01765
   7   3  -7 16.7280 4.44959
  -7  -3   7 16.7836 4.97692
   6   3  -7 822.359 22.4249
  -6  -3   7 805.078 28.6976
   5   3  -7 990.057 31.8564
  -5  -3   7 939.671 33.4077
   4   3  -7 690.917 19.4430
  -4  -3   7 697.587 24.3380
   3   3  -7 308.416 9.25097
  -3  -3   7 305.840 11.7277
   2   3  -7 119.915 4.79181
  -2  -3   7 129.137 5.54212
   1   3  -7 580.334 16.1216
  -1  -3   7 578.359 19.4227
   0   3  -7 2358.13 74.9702
   0  -3   7 2470.17 108.803
  -1   3  -7 301.031 10.8303
   1  -3   7 307.379 15.4632
  -2   3  -7 733.662 24.6586
   2  -3   7 783.573 24.8187
  -3   3  -7 66.6900 3.61934
   3  -3   7 64.4364 3.75322
  -4   3  -7 85.5185 4.57313
   4  -3   7 84.3813 4.36081
  -5   3  -7 225.444 7.17871
   5  -3   7 226.975 10.0739
  -6   3  -7 265.772 10.4460
   6  -3   7 244.797 16.7508
  -7   3  -7 31.2594 6.11380
   7  -3   7 27.0204 7.13066
   9   2  -7 42.6991 5.80222
  -9  -2   7 36.5083 7.28869
   8   2  -7 92.1878 6.29669
  -8  -2   7 95.5676 11.9071
   7   2  -7 580.404 19.5937
  -7  -2   7 564.312 21.1165
   6   2  -7 219.620 6.74474
  -6  -2   7 215.346 9.99773
   5   2  -7 47.1996 3.49515
  -5  -2   7 43.9649 4.21615
   4   2  -7 151.313 5.81030
  -4  -2   7 150.169 7.11808
   3   2  -7 2722.24 72.5169
  -3  -2   7 2690.75 90.4503
   2   2  -7 68.2176 3.26215
  -2  -2   7 76.9311 4.42450
   1   2  -7 1611.31 54.2282
  -1  -2   7 1623.28 73.6869
   0   2  -7 205.341 6.52557
   0  -2   7 219.678 11.2455
  -1   2  -7 9.19711 1.55657
   1  -2   7 3.53653 2.91673
  -2   2  -7 1075.24 28.1735
   2  -2   7 1105.67 49.7198
  -3   2  -7 515.823 14.0767
   3  -2   7 515.825 17.2437
  -4   2  -7 1209.74 32.2491
   4  -2   7 1271.46 39.9219
  -5   2  -7 91.8803 4.55547
   5  -2   7 98.1713 6.38364
  -6   2  -7 2.02834 4.12092
   6  -2   7 13.2660 4.69775
  -7   2  -7 4.93244 6.28751
   7  -2   7 0.00000 8.37480
  -8   2  -7 214.521 13.8236
   8  -2   7 198.890 18.4355
   9   1  -7 159.867 10.3824
  -9  -1   7 161.126 10.3062
   8   1  -7 145.112 7.90761
  -8  -1   7 154.229 9.51914
   7   1  -7 154.222 7.49900
  -7  -1   7 158.817 8.75050
   6   1  -7 267.796 7.91160
  -6  -1   7 269.937 11.2443
   5   1  -7 26.9139 2.54556
  -5  -1   7 33.1283 3.86483
   4   1  -7 789.445 21.8414
  -4  -1   7 778.207 27.0602
   3   1  -7 1968.92 52.9342
  -3  -1   7 1975.78 65.9432
   2   1  -7 19.5100 1.98584
  -2  -1   7 23.5297 2.60431
   1   1  -7 917.973 30.9783
  -1  -1   7 906.801 30.9730
   0   1  -7 592.719 19.9617
   0  -1   7 566.065 19.2278
  -1   1  -7 265.559 9.04403
   1  -1   7 256.553 13.1750
  -2   1  -7 1964.32 50.0855
   2  -1   7 1923.76 88.5266
  -3   1  -7 42.0520 2.23457
   3  -1   7 44.3019 4.88627
  -4   1  -7 189.033 5.35747
  -5   1  -7 823.703 19.3762
   5  -1   7 793.398 38.2114
  -6   1  -7 50.0150 3.33580
   6  -1   7 53.7170 8.98420
  -7   1  -7 140.748 7.95015
   7  -1   7 147.095 12.7008
  -8   1  -7 58.4118 5.34891
   8  -1   7 49.6550 10.0447
   8   0  -7 6.74453 5.30121
  -8   0   7 0.38968 5.12918
   7   0  -7 568.621 17.1624
  -7   0   7 568.262 20.8962
   6   0  -7 1294.46 30.2716
  -6   0   7 1306.93 44.2129
   5   0  -7 712.553 17.2442
  -5   0   7 729.911 25.1158
   4   0  -7 90.4176 3.78251
  -4   0   7 85.3869 5.24662
   3   0  -7 48.1779 2.67088
  -3   0   7 43.6563 3.35933
   2   0  -7 67.3968 3.77746
  -2   0   7 51.8582 3.74169
   1   0  -7 5254.38 171.641
  -1   0   7 5128.79 139.627
   0   0  -7 260.757 9.48434
   0   0   7 265.655 9.23912
  -1   0  -7 205.330 7.70599
   1   0   7 232.111 7.76674
  -2   0  -7 11.3230 1.43404
   2   0   7 13.1796 2.68676
  -3   0  -7 20.5949 1.60908
   3   0   7 18.8309 3.23599
  -4   0  -7 2779.29 56.5827
  -5   0  -7 743.791 15.8127
  -6   0  -7 15.0406 2.44277
  -7   0  -7 9.11722 2.69005
  -8   0  -7 6.14319 3.26213
  -9   0  -7 44.4697 5.64895
   8  -1  -7 71.1963 7.62020
  -8   1   7 65.0785 13.0403
   7  -1  -7 61.5952 5.49432
  -7   1   7 63.2215 5.48011
   6  -1  -7 11.0764 2.87686
  -6   1   7 10.7331 3.87822
   5  -1  -7 30.1881 2.78136
  -5   1   7 32.3130 4.03233
   4  -1  -7 2207.23 50.2715
  -4   1   7 2186.30 73.5493
   3  -1  -7 58.7395 3.39062
  -3   1   7 57.4455 4.10731
   2  -1  -7 531.082 14.5468
  -2   1   7 527.526 15.0214
   1  -1  -7 338.255 11.9090
  -1   1   7 335.589 9.76467
   0  -1  -7 1225.02 32.9818
   0   1   7 1194.80 32.9920
  -1  -1  -7 1778.18 48.5534
   1   1   7 1817.33 58.3181
  -2  -1  -7 1049.12 34.6972
   2   1   7 1068.11 34.7172
  -3  -1  -7 171.374 4.71911
   3   1   7 173.507 9.31392
  -4  -1  -7 313.126 7.05274
  -5  -1  -7 244.661 5.96251
  -6  -1  -7 142.974 4.50295
  -7  -1  -7 459.770 10.6909
  -8  -1  -7 16.5279 3.18207
  -9  -1  -7 19.7030 3.90775
   8  -2  -7 45.0559 10.5364
  -8   2   7 49.8679 13.0324
   7  -2  -7 90.1765 7.88502
  -7   2   7 82.6319 11.6046
   6  -2  -7 56.5152 5.70488
  -6   2   7 56.7023 9.10683
   5  -2  -7 405.145 12.6502
  -5   2   7 421.502 15.2721
   4  -2  -7 1250.05 29.0998
  -4   2   7 1262.54 42.4142
   3  -2  -7 6.02906 2.13733
  -3   2   7 10.0860 2.31478
   2  -2  -7 686.099 18.6415
  -2   2   7 685.384 19.2475
   1  -2  -7 72.3481 3.12802
  -1   2   7 71.4191 3.23921
   0  -2  -7 208.859 6.29120
   0   2   7 205.257 6.29034
  -1  -2  -7 4414.45 142.816
   1   2   7 4435.06 205.043
  -2  -2  -7 167.221 6.51219
   2   2   7 170.035 9.27604
  -3  -2  -7 745.255 20.6889
   3   2   7 767.459 35.7988
  -4  -2  -7 1897.30 44.1120
  -5  -2  -7 238.197 5.78567
  -6  -2  -7 922.910 19.4516
  -7  -2  -7 102.162 4.20654
  -8  -2  -7 4.74292 2.90215
  -9  -2  -7 168.255 6.39334
 -10  -2  -7 138.975 6.74745
   7  -3  -7 267.841 14.2702
  -7   3   7 254.852 15.7744
   6  -3  -7 125.917 13.1866
  -6   3   7 137.040 10.4192
   5  -3  -7 131.402 8.51987
  -5   3   7 132.161 9.35481
   4  -3  -7 111.585 5.12367
  -4   3   7 112.753 7.70091
   3  -3  -7 31.5628 3.05528
  -3   3   7 25.3076 3.08199
   2  -3  -7 2347.67 75.4165
  -2   3   7 2484.14 82.2477
   1  -3  -7 140.223 5.77034
  -1   3   7 137.547 6.36919
   0  -3  -7 243.058 7.17208
   0   3   7 239.953 9.18120
  -1  -3  -7 442.110 12.0112
   1   3   7 432.412 15.3653
  -2  -3  -7 19.1361 3.86773
   2   3   7 20.7186 3.65864
  -3  -3  -7 3145.05 149.176
   3   3   7 3266.76 149.225
  -4  -3  -7 138.361 6.09611
   4   3   7 140.031 6.00545
  -5  -3  -7 10.4119 2.42353
   5   3   7 8.55269 3.66727
  -6  -3  -7 0.92252 1.99327
   6   3   7 4.78057 4.24904
  -7  -3  -7 78.4805 3.99180
   7   3   7 76.3196 9.17601
  -8  -3  -7 280.689 11.5695
  -9  -3  -7 195.374 8.23325
 -10  -3  -7 4.81839 5.68451
   6  -4  -7 44.6321 7.28496
  -6   4   7 46.4699 6.15443
   5  -4  -7 605.575 31.9777
  -5   4   7 618.353 18.6323
   4  -4  -7 102.061 5.28181
  -4   4   7 111.441 6.25877
   3  -4  -7 304.754 11.0221
  -3   4   7 297.872 10.1107
   2  -4  -7 73.7068 4.81752
  -2   4   7 77.0220 4.53252
   1  -4  -7 154.761 6.45245
  -1   4   7 152.806 5.66425
   0  -4  -7 1864.65 48.8792
   0   4   7 1886.76 50.1273
  -1  -4  -7 2437.31 77.5161
   1   4   7 2473.66 114.528
  -2  -4  -7 26.6834 2.62546
   2   4   7 30.1194 2.50643
  -3  -4  -7 1071.68 34.2491
   3   4   7 1065.74 36.5121
  -4  -4  -7 550.243 15.9584
   4   4   7 479.439 17.3841
  -5  -4  -7 170.999 8.88973
   5   4   7 157.633 11.5698
  -6  -4  -7 469.044 11.8678
   6   4   7 489.852 24.9755
  -7  -4  -7 429.210 17.3240
   7   4   7 441.047 24.0635
  -8  -4  -7 74.6768 11.4858
   8   4   7 54.1656 8.33122
  -9  -4  -7 14.3629 5.66364
   9   4   7 16.0623 9.19415
 -10  -4  -7 0.12626 8.16660
   6  -5  -7 146.638 12.1830
  -6   5   7 149.234 11.4460
   5  -5  -7 140.997 10.9786
  -5   5   7 141.573 8.54074
   4  -5  -7 83.8797 10.2580
  -4   5   7 97.4027 6.32271
   3  -5  -7 74.2364 5.09593
  -3   5   7 80.0253 5.03077
   2  -5  -7 139.785 7.36505
  -2   5   7 141.782 6.37651
   1  -5  -7 200.443 11.0786
  -1   5   7 207.339 7.82180
   0  -5  -7 1289.52 34.0181
   0   5   7 1283.82 34.8771
  -1  -5  -7 57.6413 4.44115
   1   5   7 53.7052 4.16327
  -2  -5  -7 820.823 27.3999
   2   5   7 789.911 40.7006
  -3  -5  -7 2079.52 64.8015
   3   5   7 1944.37 68.8802
  -4  -5  -7 71.4872 5.25762
   4   5   7 64.1212 4.98210
  -5  -5  -7 2027.41 54.2875
   5   5   7 2000.33 69.2129
  -6  -5  -7 108.330 4.44571
   6   5   7 107.619 13.6365
  -7  -5  -7 34.3051 4.88030
   7   5   7 33.7546 5.97859
  -8  -5  -7 263.424 15.2340
   8   5   7 220.965 15.6152
  -9  -5  -7 601.378 24.9960
   9   5   7 584.054 32.1710
 -10  -5  -7 116.073 12.4524
   5  -6  -7 282.577 15.5927
  -5   6   7 302.039 13.1573
   4  -6  -7 4.48735 6.32723
  -4   6   7 5.57744 5.13774
   3  -6  -7 247.527 10.1703
  -3   6   7 235.936 9.78754
   2  -6  -7 420.064 20.7802
  -2   6   7 420.939 13.3524
   1  -6  -7 53.3497 7.05291
  -1   6   7 99.8417 7.21926
  -1  -6  -7 164.587 8.24187
   1   6   7 137.551 7.88864
  -2  -6  -7 577.468 20.4578
   2   6   7 564.030 20.1367
  -3  -6  -7 486.983 17.7625
   3   6   7 498.797 18.7546
  -4  -6  -7 65.3375 12.1394
   4   6   7 64.0428 7.20189
  -5  -6  -7 37.3820 5.94062
   5   6   7 59.5307 8.06640
  -6  -6  -7 67.3058 6.02538
   6   6   7 100.463 10.8395
  -7  -6  -7 247.459 10.6615
   7   6   7 258.807 15.2794
  -8  -6  -7 137.766 12.8190
   8   6   7 155.210 16.5623
  -9  -6  -7 7.17853 13.4988
   9   6   7 20.1062 18.3792
 -10  -6  -7 1.03320 8.29911
   4  -7  -7 156.177 15.8549
  -4   7   7 147.141 9.71630
   3  -7  -7 68.9116 21.2078
  -3   7   7 64.2275 7.56463
   2  -7  -7 11.9884 5.51088
  -2   7   7 3.56580 5.74295
  -1   7   7 286.636 13.5444
   0  -7  -7 1720.02 56.5960
   0   7   7 1751.33 56.4771
  -1  -7  -7 33.1464 13.5208
   1   7   7 58.3775 13.3849
  -2  -7  -7 140.539 12.3315
   2   7   7 164.713 9.48934
  -3  -7  -7 328.357 16.6144
   3   7   7 298.140 10.0112
  -4  -7  -7 33.5473 8.75373
   4   7   7 25.2329 7.33106
  -5  -7  -7 1031.48 33.6288
   5   7   7 995.797 35.9317
  -6  -7  -7 575.947 20.2704
   6   7   7 592.080 31.2234
  -7  -7  -7 96.9107 10.8407
   7   7   7 93.8224 13.8584
  -8  -7  -7 49.2388 12.5097
   8   7   7 10.7274 7.22412
  -9  -7  -7 2.01338 11.6115
   9   7   7 11.0227 8.83277
 -10  -7  -7 50.7512 10.8009
   3  -8  -7 3.69460 11.9820
  -3   8   7 24.2345 9.32725
   2  -8  -7 52.6128 7.91586
  -2   8   7 64.8764 12.7609
   1  -8  -7 31.3072 17.5650
  -1   8   7 19.8687 10.7483
   0  -8  -7 51.1911 11.5615
   0   8   7 60.7384 10.5477
  -1  -8  -7 0.00000 14.7397
   1   8   7 35.8581 9.23198
  -2  -8  -7 942.722 32.9111
   2   8   7 922.347 47.4395
  -3  -8  -7 0.00000 12.3151
   3   8   7 3.90369 5.38845
  -4  -8  -7 448.433 17.4977
   4   8   7 462.853 18.6323
  -5  -8  -7 30.9020 8.12003
   5   8   7 127.180 17.9272
  -6  -8  -7 4.85877 7.25910
   6   8   7 20.4579 11.7263
  -7  -8  -7 285.641 12.6584
   7   8   7 291.865 20.6957
  -8  -8  -7 374.693 18.1998
  -9  -8  -7 51.2336 12.6983
   9   8   7 45.2693 9.95969
 -10  -8  -7 80.7170 26.6286
  -1   9   7 10.6883 25.6596
   0  -9  -7 48.6769 14.6940
   0   9   7 41.8545 13.8037
  -1  -9  -7 15.2617 12.1227
   1   9   7 19.4071 11.0676
  -2  -9  -7 430.466 28.3116
   2   9   7 417.928 27.6533
  -3  -9  -7 3.13577 10.3180
   3   9   7 5.37666 9.57488
  -4  -9  -7 58.3160 9.09870
   4   9   7 52.2851 9.21770
  -5  -9  -7 0.00000 16.9617
   5   9   7 8.83547 11.2026
  -6  -9  -7 18.5438 9.38492
   6   9   7 29.9103 11.2073
  -7  -9  -7 124.489 9.98973
  -8  -9  -7 10.6755 10.2901
   8   9   7 17.1173 17.6386
  -9  -9  -7 6.90240 17.7839
   9   9   7 12.3169 10.2574
  -1 -10  -7 31.2880 16.1427
   1  10   7 31.4329 14.7228
  -2 -10  -7 86.2077 20.3091
   2  10   7 71.5901 13.9848
  -3 -10  -7 15.6472 9.25121
   3  10   7 22.8563 15.0218
  -4 -10  -7 650.896 25.5808
   4  10   7 660.391 21.1453
  -5 -10  -7 159.011 14.2688
   5  10   7 160.673 15.0049
  -6 -10  -7 0.00000 6.24246
   6  10   7 2.64210 8.42565
  -7 -10  -7 37.0420 22.8828
   7  10   7 43.5735 19.9025
  -8 -10  -7 27.3328 13.3778
   8  10   7 39.8981 20.5745
  -3 -11  -7 42.7303 14.1278
   3  11   7 45.4421 13.6260
  -4 -11  -7 17.2022 16.7584
   4  11   7 0.00000 8.96853
  -5 -11  -7 3.09030 7.91757
   5  11   7 11.3527 18.0451
  -6 -11  -7 187.451 11.8571
   4   9  -8 311.988 22.6981
  -4  -9   8 295.830 15.4720
   3   9  -8 2.54787 19.6493
  -3  -9   8 6.89876 19.8484
  -7  -8   8 128.367 20.7750
   6   8  -8 1.43852 11.4917
  -6  -8   8 0.00000 12.2275
   5   8  -8 0.88327 10.6331
  -5  -8   8 19.2999 17.0085
   4   8  -8 205.646 13.8137
  -4  -8   8 178.734 14.2995
   3   8  -8 165.275 12.3834
  -3  -8   8 103.019 10.9219
   2   8  -8 609.434 40.1357
   1   8  -8 75.4418 14.2246
   0   8  -8 115.097 22.6493
   1  -8   8 57.3306 10.0884
   8   7  -8 63.2325 12.4599
  -8  -7   8 69.0875 24.6930
   7   7  -8 25.2320 22.0494
  -7  -7   8 42.1195 19.6162
   6   7  -8 18.0819 11.0961
  -6  -7   8 15.7994 10.1696
  -5  -7   8 154.777 17.6219
  -4  -7   8 407.340 23.1291
   3   7  -8 18.4233 10.5924
  -3  -7   8 6.21264 9.36173
   2   7  -8 26.4743 12.9481
  -2  -7   8 27.1392 9.63550
   1   7  -8 13.2758 7.24662
  -1  -7   8 17.6088 7.38840
   0   7  -8 175.840 18.5553
   0  -7   8 188.767 18.2511
  -1   7  -8 268.169 24.9307
   1  -7   8 314.936 21.9973
  -2   7  -8 0.00000 20.8209
   2  -7   8 14.6285 4.89079
   3  -7   8 4.21191 5.64223
   8   6  -8 336.875 15.0020
  -8  -6   8 311.835 14.6491
  -7  -6   8 132.543 14.7585
   6   6  -8 267.808 16.3455
  -6  -6   8 252.807 14.8317
   5   6  -8 707.018 46.2448
  -5  -6   8 1048.19 51.8509
  -4  -6   8 105.882 13.0069
   3   6  -8 22.5577 13.4978
  -3  -6   8 8.46122 7.66601
   2   6  -8 1140.23 31.5074
  -2  -6   8 1108.04 38.0110
   1   6  -8 136.043 6.83560
  -1  -6   8 150.624 15.4193
   0   6  -8 240.544 18.0414
   0  -6   8 264.535 15.8315
  -1   6  -8 248.297 19.6933
   1  -6   8 282.744 20.3473
  -2   6  -8 7.30190 7.36225
   2  -6   8 1.10415 4.00509
  -3   6  -8 64.8343 10.4526
   3  -6   8 83.3133 5.66771
  -4   6  -8 0.00000 10.6050
   4  -6   8 3.39338 4.86572
   9   5  -8 7.17309 5.15744
  -9  -5   8 0.00000 26.3639
   8   5  -8 266.885 14.5453
  -8  -5   8 232.319 14.7263
  -7  -5   8 7.71233 5.74514
  -6  -5   8 112.318 17.6210
   5   5  -8 61.8250 7.49380
  -5  -5   8 62.7043 9.35821
   4   5  -8 13.2637 4.90122
  -4  -5   8 15.0985 5.49583
   3   5  -8 1484.13 40.8140
  -3  -5   8 1531.97 49.5912
   2   5  -8 12.3951 4.80955
  -2  -5   8 4.69615 6.29428
   1   5  -8 129.757 6.53730
  -1  -5   8 124.976 9.83603
   0   5  -8 412.117 15.2759
   0  -5   8 447.049 21.8097
  -1   5  -8 473.434 16.9055
   1  -5   8 490.529 23.9859
  -2   5  -8 77.7292 6.08015
   2  -5   8 79.5165 5.62571
  -3   5  -8 482.001 17.9051
   3  -5   8 512.534 14.4867
  -4   5  -8 19.3053 5.20558
   4  -5   8 28.0046 4.18144
  -5   5  -8 12.8635 6.64676
   5  -5   8 8.92827 6.32612
   9   4  -8 60.5834 6.35850
  -9  -4   8 71.4216 16.5978
   8   4  -8 118.772 8.03172
  -8  -4   8 108.846 10.8390
  -7  -4   8 53.2765 8.48993
   6   4  -8 604.393 22.8600
  -6  -4   8 555.659 30.9162
   5   4  -8 847.347 30.4663
  -5  -4   8 871.968 31.0491
   4   4  -8 156.342 7.82261
   3   4  -8 231.279 7.92775
  -3  -4   8 239.132 9.37622
   2   4  -8 17.7920 2.69495
  -2  -4   8 20.5982 3.01903
   1   4  -8 812.792 22.6114
  -1  -4   8 846.208 38.7653
   0   4  -8 450.714 15.8461
   0  -4   8 476.057 22.7777
  -1   4  -8 88.0572 5.94270
   1  -4   8 101.385 8.14467
  -2   4  -8 15.8844 3.68325
   2  -4   8 11.9430 4.70497
  -3   4  -8 69.1751 5.53885
   3  -4   8 73.2577 5.47554
  -4   4  -8 57.5293 4.06066
   4  -4   8 62.4052 5.07811
  -5   4  -8 818.014 26.7684
   5  -4   8 727.934 26.8063
  -6   4  -8 21.0479 6.08254
   6  -4   8 21.1531 9.46743
   9   3  -8 301.773 13.3456
  -9  -3   8 280.030 15.0580
   8   3  -8 122.986 7.65017
  -8  -3   8 134.163 10.0278
   7   3  -8 147.683 7.48671
  -7  -3   8 139.483 10.8816
   6   3  -8 1136.28 39.4177
  -6  -3   8 1153.43 39.4930
   5   3  -8 149.804 6.91916
  -5  -3   8 134.092 8.62758
   4   3  -8 170.143 6.40911
  -4  -3   8 166.265 8.12670
   3   3  -8 1720.75 45.4137
  -3  -3   8 1628.00 56.7210
   2   3  -8 640.489 22.3628
  -2  -3   8 617.870 30.2303
   1   3  -8 2253.62 60.6273
  -1  -3   8 2390.25 104.275
   0   3  -8 176.751 7.42092
   0  -3   8 189.097 10.6367
  -1   3  -8 34.1921 3.33262
   1  -3   8 23.6582 4.45369
  -2   3  -8 49.5416 3.96642
   2  -3   8 44.5396 5.18673
  -3   3  -8 415.885 21.2459
   3  -3   8 439.163 14.8854
  -4   3  -8 60.6921 4.12184
   4  -3   8 66.3536 5.24783
  -5   3  -8 22.5695 3.18308
   5  -3   8 17.7823 6.65696
  -6   3  -8 36.0535 5.23785
   6  -3   8 31.8542 8.21179
  -7   3  -8 56.6934 6.85891
   7  -3   8 75.4081 11.7149
   9   2  -8 146.889 9.88360
  -9  -2   8 131.647 10.6528
   8   2  -8 68.9989 5.44172
  -8  -2   8 78.0456 7.27085
   7   2  -8 156.711 7.94619
  -7  -2   8 151.991 10.3347
   6   2  -8 120.590 5.56811
  -6  -2   8 124.071 7.79533
   5   2  -8 65.8291 4.45623
  -5  -2   8 63.1566 4.97724
   4   2  -8 1805.37 49.0063
  -4  -2   8 1829.63 61.1089
   3   2  -8 21.6249 2.49385
  -3  -2   8 17.1325 3.22044
   2   2  -8 29.1260 2.28948
  -2  -2   8 34.1120 3.25979
   1   2  -8 940.618 31.8696
  -1  -2   8 911.648 43.2230
   0   2  -8 2725.51 71.9467
   0  -2   8 2741.39 123.711
  -1   2  -8 804.877 26.2606
   1  -2   8 835.091 38.0191
  -2   2  -8 1065.20 27.9613
   2  -2   8 1095.58 49.4107
  -3   2  -8 109.278 4.77715
   3  -2   8 120.735 7.88304
  -4   2  -8 25.0685 2.48822
   4  -2   8 33.6214 4.73020
  -5   2  -8 1200.01 28.0891
   5  -2   8 1200.22 55.2775
  -6   2  -8 67.3654 4.40260
   6  -2   8 65.9267 8.09821
  -7   2  -8 153.667 8.59889
   7  -2   8 166.879 14.2410
  -8   2  -8 25.1236 6.44704
   9   1  -8 9.38139 7.02319
  -9  -1   8 1.55635 8.25989
   8   1  -8 66.3092 9.16437
  -8  -1   8 56.2287 6.75924
   7   1  -8 297.546 10.6829
  -7  -1   8 297.400 12.9891
   6   1  -8 1126.69 26.7046
  -6  -1   8 1155.04 39.1371
   5   1  -8 126.823 5.42748
  -5  -1   8 125.624 7.07333
   4   1  -8 297.688 9.44400
  -4  -1   8 298.225 11.6177
   3   1  -8 174.123 6.08407
  -3  -1   8 163.390 7.47433
   2   1  -8 1025.27 28.1664
  -2  -1   8 1048.72 35.1812
   1   1  -8 968.104 32.2964
  -1  -1   8 938.723 26.1531
   0   1  -8 892.327 29.7502
   0  -1   8 854.236 28.7730
  -1   1  -8 17.1201 2.01598
   1  -1   8 19.3181 3.51000
  -2   1  -8 641.099 17.0200
   2  -1   8 644.401 30.1197
  -3   1  -8 303.013 7.57020
   3  -1   8 304.786 15.2513
  -4   1  -8 1500.63 34.0560
  -5   1  -8 494.568 11.0609
  -6   1  -8 258.196 6.99138
  -7   1  -8 56.5561 3.63455
  -8   1  -8 43.8576 5.37702
   8   0  -8 62.2487 6.31166
  -8   0   8 71.4686 6.80701
   7   0  -8 109.616 6.77286
  -7   0   8 105.286 7.63875
   6   0  -8 89.9094 4.66273
  -6   0   8 84.3202 6.43179
   5   0  -8 4.72826 2.51874
  -5   0   8 6.28951 3.44469
   4   0  -8 2075.39 47.1598
  -4   0   8 2041.22 69.0590
   3   0  -8 754.401 21.1868
  -3   0   8 774.763 26.3339
   2   0  -8 2186.64 73.1045
  -2   0   8 2189.36 73.0986
   1   0  -8 99.1785 4.63204
  -1   0   8 86.6204 3.65269
   0   0  -8 68.7616 3.72790
   0   0   8 65.2699 3.52678
  -1   0  -8 11.4575 1.46487
  -2   0  -8 2476.23 80.5260
   2   0   8 2493.62 80.5281
  -3   0  -8 12.8412 1.60334
   3   0   8 10.8065 3.29145
  -4   0  -8 61.1169 2.81175
  -5   0  -8 47.2137 2.63568
  -6   0  -8 57.7726 3.25768
  -7   0  -8 488.709 11.4491
  -8   0  -8 8.04421 3.56779
  -9   0  -8 4.72467 5.38483
   8  -1  -8 12.9105 9.28030
  -8   1   8 12.3893 11.4491
   7  -1  -8 134.993 8.52420
  -7   1   8 134.773 8.65389
   6  -1  -8 29.2957 3.42826
  -6   1   8 25.7005 4.53041
   5  -1  -8 342.623 9.25827
  -5   1   8 336.448 13.1464
   4  -1  -8 257.599 7.21993
  -4   1   8 251.373 10.2161
   3  -1  -8 5.82825 2.16648
  -3   1   8 8.98415 2.67638
   2  -1  -8 1319.42 34.7732
  -2   1   8 1290.05 35.8016
   1  -1  -8 2369.70 79.0472
  -1   1   8 2374.61 64.3703
   0  -1  -8 1260.11 34.2271
   0   1   8 1248.75 34.2424
  -1  -1  -8 2161.79 58.7604
   1   1   8 2184.50 70.5434
  -2  -1  -8 190.665 7.21328
   2   1   8 192.077 7.18041
  -3  -1  -8 176.257 5.82633
   3   1   8 208.674 10.0240
  -4  -1  -8 3496.97 71.0707
  -5  -1  -8 259.090 6.33874
  -6  -1  -8 254.126 6.62459
  -7  -1  -8 374.981 9.15493
  -8  -1  -8 6.49510 3.26945
  -9  -1  -8 107.303 5.71346
   7  -2  -8 510.239 29.5453
  -7   2   8 505.099 21.6528
   6  -2  -8 17.1560 3.57354
  -6   2   8 21.9421 8.13264
   5  -2  -8 35.7920 3.17171
  -5   2   8 42.2952 4.31742
   4  -2  -8 41.2890 3.06724
  -4   2   8 53.4714 3.72927
   3  -2  -8 59.8205 3.87202
  -3   2   8 59.1883 3.95774
   2  -2  -8 1539.36 40.7691
  -2   2   8 1530.93 42.0137
   1  -2  -8 488.963 13.2736
  -1   2   8 468.908 13.6496
   0  -2  -8 148.840 4.99041
   0   2   8 153.680 4.99741
  -1  -2  -8 265.991 9.81829
   1   2   8 285.569 14.1534
  -2  -2  -8 428.638 15.0349
   2   2   8 457.109 21.5857
  -3  -2  -8 1907.59 52.5768
   3   2   8 2037.78 90.6822
  -4  -2  -8 550.582 13.4374
   4   2   8 561.667 27.0120
  -5  -2  -8 930.637 19.4850
  -6  -2  -8 306.438 7.42840
  -7  -2  -8 202.058 5.90677
  -8  -2  -8 28.6829 3.23118
  -9  -2  -8 423.559 10.8627
   7  -3  -8 6.14490 7.47307
  -7   3   8 11.8470 9.30562
   6  -3  -8 29.2690 10.2945
  -6   3   8 36.7356 7.35014
   5  -3  -8 1212.15 32.2251
  -5   3   8 1233.41 62.2602
   4  -3  -8 160.839 6.36336
  -4   3   8 157.476 10.7107
   3  -3  -8 344.996 12.1616
  -3   3   8 342.861 19.3894
   2  -3  -8 220.334 8.58061
  -2   3   8 238.479 9.69900
   1  -3  -8 199.656 7.45390
  -1   3   8 187.946 8.14157
   0  -3  -8 591.335 16.0172
   0   3   8 588.508 20.7188
  -1  -3  -8 3177.95 82.2898
   1   3   8 3191.11 148.216
  -2  -3  -8 400.745 14.3982
   2   3   8 437.079 20.7860
  -3  -3  -8 156.209 6.71324
   3   3   8 162.431 9.63571
  -4  -3  -8 30.2413 3.13682
   4   3   8 29.0832 4.47633
  -5  -3  -8 62.8748 3.98209
  -6  -3  -8 940.937 22.4391
  -7  -3  -8 6.77190 2.36317
  -8  -3  -8 42.9992 3.14957
  -9  -3  -8 5.85567 3.19575
 -10  -3  -8 10.2805 6.98137
   6  -4  -8 16.7639 7.28382
  -6   4   8 30.8795 8.18994
   5  -4  -8 250.368 18.4288
  -5   4   8 270.876 13.7641
   4  -4  -8 111.404 5.81955
  -4   4   8 114.964 8.63952
   3  -4  -8 840.085 27.6766
  -3   4   8 862.664 24.0591
   2  -4  -8 626.921 20.3426
  -2   4   8 600.209 22.4728
   1  -4  -8 62.1825 4.44015
  -1   4   8 66.5894 5.17784
   0  -4  -8 1274.43 33.5423
   0   4   8 1268.21 43.6755
  -1  -4  -8 45.8092 2.98586
   1   4   8 48.9965 3.46596
  -2  -4  -8 36.7869 3.11374
   2   4   8 44.6411 5.14203
  -3  -4  -8 3456.56 109.475
   3   4   8 3512.20 161.879
  -4  -4  -8 861.008 29.7390
   4   4   8 858.623 29.7470
  -5  -4  -8 1158.56 39.4437
   5   4   8 1127.79 39.3371
  -6  -4  -8 651.931 15.9436
   6   4   8 684.309 33.7466
  -7  -4  -8 7.56858 3.85813
   7   4   8 7.49143 5.48687
  -8  -4  -8 182.742 11.7036
   8   4   8 191.860 14.3948
  -9  -4  -8 153.897 8.92545
 -10  -4  -8 42.0482 6.80409
   5  -5  -8 7.39187 6.77499
  -5   5   8 16.7418 5.45339
   4  -5  -8 74.3101 6.89834
  -4   5   8 64.9094 5.54298
   3  -5  -8 715.676 23.4088
  -3   5   8 696.265 20.4674
   2  -5  -8 66.2819 4.90114
  -2   5   8 71.4945 4.60946
   1  -5  -8 350.921 13.1598
  -1   5   8 356.844 11.6428
   0  -5  -8 75.9889 4.44591
   0   5   8 81.2797 4.45060
  -1  -5  -8 152.215 6.89329
   1   5   8 142.385 10.3103
  -2  -5  -8 945.170 31.0557
   2   5   8 855.547 42.5096
  -3  -5  -8 261.305 9.55568
   3   5   8 244.817 9.72375
  -4  -5  -8 6.94895 2.55031
   4   5   8 5.37966 2.36125
  -5  -5  -8 506.581 15.5725
   5   5   8 469.996 19.9425
  -6  -5  -8 432.820 15.3828
   6   5   8 654.703 24.2619
  -7  -5  -8 128.719 8.23126
   7   5   8 131.791 10.3959
  -8  -5  -8 530.508 22.3096
   8   5   8 546.366 29.8092
  -9  -5  -8 0.00000 9.44282
   9   5   8 7.99578 8.88308
 -10  -5  -8 1.58816 8.17836
   5  -6  -8 30.6439 12.9938
  -5   6   8 50.5651 8.31598
   4  -6  -8 93.2888 8.18767
  -4   6   8 103.468 6.89052
   3  -6  -8 105.684 6.62843
  -3   6   8 112.913 6.79365
   2  -6  -8 291.368 15.0329
  -2   6   8 272.763 10.0869
   1  -6  -8 296.592 15.3598
  -1   6   8 294.157 10.5218
   0  -6  -8 522.620 17.7382
   0   6   8 518.656 27.2629
  -1  -6  -8 270.305 11.4314
   1   6   8 257.696 11.8646
  -2  -6  -8 379.351 14.5226
   2   6   8 367.111 19.8556
  -3  -6  -8 273.145 11.4919
   3   6   8 251.799 11.4462
  -4  -6  -8 12.1328 5.68445
   4   6   8 18.4490 4.28820
  -5  -6  -8 721.474 31.5427
   5   6   8 672.108 35.6630
  -6  -6  -8 338.303 11.1351
   6   6   8 364.885 20.2109
  -7  -6  -8 27.3730 5.15511
   7   6   8 28.9980 5.98072
  -8  -6  -8 55.4508 11.8911
   8   6   8 37.2181 15.0074
  -9  -6  -8 4.87540 20.3103
   9   6   8 7.04101 19.3889
 -10  -6  -8 76.5335 13.3645
  10   6   8 63.0459 14.6447
   4  -7  -8 86.5568 14.1433
  -4   7   8 122.226 9.14175
   3  -7  -8 148.428 8.82148
  -3   7   8 154.001 9.52371
   2  -7  -8 0.00000 5.35527
  -2   7   8 3.79831 4.41426
   1  -7  -8 276.756 15.1660
  -1   7   8 274.213 13.5405
   0  -7  -8 114.328 11.1034
   0   7   8 103.635 8.87073
  -1  -7  -8 40.2758 14.1928
   1   7   8 34.7745 9.14099
  -2  -7  -8 676.903 34.2307
   2   7   8 718.253 24.9562
  -3  -7  -8 967.359 32.9376
   3   7   8 964.716 34.9707
  -4  -7  -8 707.387 24.2204
   4   7   8 665.912 25.7522
  -5  -7  -8 105.122 8.89009
   5   7   8 102.547 11.2679
  -6  -7  -8 1.73448 6.44824
   6   7   8 8.67311 9.30068
  -7  -7  -8 102.050 17.0671
   7   7   8 90.2005 13.2345
  -8  -7  -8 484.925 22.2005
   8   7   8 424.280 24.3155
  -9  -7  -8 37.1914 15.6503
   9   7   8 74.7660 18.8270
 -10  -7  -8 4.24037 11.7003
   2  -8  -8 55.3955 7.14655
  -2   8   8 52.4350 7.96956
   1  -8  -8 15.6281 6.18078
  -1   8   8 23.3171 9.33288
   0  -8  -8 79.6204 11.9309
   0   8   8 45.8422 7.99509
  -1  -8  -8 424.812 26.6039
   1   8   8 395.341 17.3955
  -2  -8  -8 152.763 11.6246
   2   8   8 151.288 18.7509
  -3  -8  -8 15.1254 7.37945
   3   8   8 1.06487 7.58360
  -4  -8  -8 35.8782 8.24630
   4   8   8 40.5288 8.37013
  -5  -8  -8 674.142 37.9142
   5   8   8 692.148 36.9105
  -6  -8  -8 88.3068 8.67487
   6   8   8 96.8905 11.6767
  -7  -8  -8 199.066 10.6176
   7   8   8 219.255 17.0072
  -8  -8  -8 110.327 15.6355
   8   8   8 55.9236 8.50490
  -9  -8  -8 21.1176 12.9216
   9   8   8 7.66291 9.15427
  -1   9   8 189.599 18.7328
   0  -9  -8 37.2689 9.69140
   0   9   8 54.4945 10.4600
  -1  -9  -8 101.783 13.3470
   1   9   8 113.864 12.4662
  -2  -9  -8 75.4417 19.4665
   2   9   8 61.0364 18.7320
  -3  -9  -8 4.82856 9.92992
   3   9   8 0.36700 7.45773
  -4  -9  -8 212.555 11.4941
   4   9   8 203.110 11.6036
  -5  -9  -8 243.075 22.5717
   5   9   8 260.505 22.8844
  -6  -9  -8 5.30080 9.69365
   6   9   8 16.7348 8.93498
  -7  -9  -8 109.330 10.1339
   7   9   8 88.0586 15.1962
  -8  -9  -8 10.6719 11.0778
   8   9   8 3.42238 11.2566
   9   9   8 18.2916 10.1691
  -1 -10  -8 410.134 32.4846
   1  10   8 309.929 19.1862
  -2 -10  -8 400.865 31.0654
   2  10   8 448.178 20.4775
  -3 -10  -8 120.456 15.2210
   3  10   8 113.965 21.2400
  -4 -10  -8 49.9598 11.6814
   4  10   8 38.1211 8.79898
  -5 -10  -8 10.4831 11.9125
   5  10   8 17.2668 18.6527
  -6 -10  -8 44.4994 24.5161
   6  10   8 16.6918 22.6902
  -7 -10  -8 289.202 15.6090
   7  10   8 342.272 24.6881
   8  10   8 46.8249 20.0706
  -4 -11  -8 243.029 19.6114
   4  11   8 294.852 23.9606
  -5 -11  -8 16.0863 14.8690
   5  11   8 0.00000 19.7491
   6  11   8 81.1925 23.5017
   4   9  -9 149.437 22.2770
  -4  -9   9 117.980 16.2968
   3   9  -9 22.8268 10.8756
  -3  -9   9 11.8102 11.5085
   6   8  -9 60.6225 16.2781
  -6  -8   9 37.5090 18.2439
   5   8  -9 86.6585 13.4567
  -5  -8   9 165.809 19.9215
   4   8  -9 279.979 16.4064
  -4  -8   9 249.345 13.8110
   3   8  -9 19.3872 12.1053
  -3  -8   9 11.2364 7.65770
   2   8  -9 108.473 25.5600
   1   8  -9 57.5787 15.5389
  -1  -8   9 90.9659 20.8112
   0   8  -9 165.633 24.4927
   7   7  -9 383.343 22.0591
  -7  -7   9 310.160 26.9782
   6   7  -9 34.9172 21.2190
  -6  -7   9 67.5725 11.4670
   5   7  -9 153.877 16.0202
  -5  -7   9 171.866 18.2595
  -4  -7   9 131.700 11.2787
   3   7  -9 0.00000 8.55582
  -3  -7   9 11.1698 8.01769
   2   7  -9 350.641 16.2962
  -2  -7   9 275.388 17.1629
   1   7  -9 2.15773 11.9762
   0   7  -9 60.6704 16.9347
   0  -7   9 66.2669 16.9251
  -1   7  -9 0.00000 21.2268
   1  -7   9 3.37227 17.3463
   2  -7   9 12.2473 8.04571
   8   6  -9 264.969 17.0544
  -8  -6   9 223.246 13.8103
   7   6  -9 19.6918 23.1295
  -7  -6   9 51.3960 14.9351
   6   6  -9 21.9129 11.4277
  -6  -6   9 36.6569 8.85239
   5   6  -9 460.829 23.7436
  -5  -6   9 476.019 26.7791
  -4  -6   9 28.3027 12.0663
   3   6  -9 172.286 8.92212
  -3  -6   9 163.014 12.3344
   2   6  -9 235.849 10.3028
  -2  -6   9 234.686 10.9416
   1   6  -9 261.908 13.5371
  -1  -6   9 315.420 21.3139
   0   6  -9 275.026 14.1864
   0  -6   9 318.077 20.2884
  -1   6  -9 233.044 20.6161
   1  -6   9 288.049 19.9001
  -2   6  -9 0.00000 7.61148
   2  -6   9 0.95745 6.99472
  -3   6  -9 120.052 23.7772
   3  -6   9 140.079 12.6482
  -4   6  -9 17.7997 12.2261
   4  -6   9 3.51919 5.53709
   8   5  -9 2.36430 12.2361
  -8  -5   9 17.5073 14.7404
   7   5  -9 26.4524 10.8200
  -7  -5   9 61.6864 9.20613
  -6  -5   9 401.394 27.0674
   5   5  -9 892.562 32.7080
  -5  -5   9 900.692 32.5621
   4   5  -9 2.26396 5.40722
   3   5  -9 74.0416 7.33504
  -3  -5   9 61.4683 7.63543
   2   5  -9 12.3239 8.39874
  -2  -5   9 1.02572 5.33702
   1   5  -9 282.546 14.3931
  -1  -5   9 273.157 19.1825
   0   5  -9 1742.81 55.8192
  -1   5  -9 14.5868 5.85872
   1  -5   9 26.8592 6.27895
  -2   5  -9 23.9525 4.76110
   2  -5   9 37.1482 6.43124
  -3   5  -9 62.9761 6.01643
   3  -5   9 68.3362 7.72232
  -4   5  -9 37.2743 9.91126
   4  -5   9 60.4673 5.37848
  -5   5  -9 219.092 20.3842
   5  -5   9 231.289 16.1715
   9   4  -9 64.3473 7.47827
  -9  -4   9 60.4395 11.7714
   8   4  -9 385.372 15.0023
  -8  -4   9 390.768 20.3080
   7   4  -9 2.71543 9.59697
  -7  -4   9 4.82328 7.65101
   6   4  -9 124.609 11.6282
  -6  -4   9 146.104 18.1899
   5   4  -9 125.905 7.82652
  -5  -4   9 125.432 10.0563
   4   4  -9 28.5637 8.68052
  -4  -4   9 31.0161 10.5279
   3   4  -9 1146.15 31.6614
  -3  -4   9 1212.67 40.2457
   2   4  -9 4.02042 5.90584
  -2  -4   9 3.32198 3.69672
   1   4  -9 315.333 10.8516
  -1  -4   9 334.458 17.3312
   0   4  -9 81.2746 5.99566
   0  -4   9 106.424 8.46472
  -1   4  -9 73.0771 5.89808
   1  -4   9 76.4384 8.13249
  -2   4  -9 724.093 25.0423
   2  -4   9 813.136 36.0715
  -3   4  -9 63.4891 5.35277
   3  -4   9 70.5880 7.18937
  -4   4  -9 5.39651 4.66988
   4  -4   9 12.3190 5.80298
  -5   4  -9 76.3604 5.77849
  -6   4  -9 47.1007 4.99549
   6  -4   9 44.9177 9.74301
   9   3  -9 352.193 15.4796
  -9  -3   9 300.793 25.9506
   8   3  -9 5.67243 5.61167
  -8  -3   9 3.41298 13.8215
   7   3  -9 18.1031 6.94474
  -7  -3   9 13.8044 7.67626
   6   3  -9 522.829 16.2551
  -6  -3   9 533.485 20.7903
   5   3  -9 404.778 16.8260
   4   3  -9 293.904 12.7752
  -4  -3   9 332.427 21.3547
   3   3  -9 887.052 24.2208
  -3  -3   9 858.773 30.3996
   2   3  -9 19.6057 3.69553
  -2  -3   9 27.7107 4.60617
   1   3  -9 1277.72 34.9063
  -1  -3   9 1287.64 58.0579
   0   3  -9 943.104 25.9879
   0  -3   9 979.648 44.5849
  -1   3  -9 2.31577 2.92488
   1  -3   9 2.26295 4.19823
  -2   3  -9 679.499 23.0351
   2  -3   9 727.666 33.1692
  -3   3  -9 12.2648 3.72350
   3  -3   9 18.9984 4.99782
  -4   3  -9 109.358 4.33158
   4  -3   9 118.364 9.20388
  -5   3  -9 99.8051 4.63144
  -6   3  -9 131.763 6.43343
  -7   3  -9 105.670 7.04356
   8   2  -9 33.8410 5.66606
  -8  -2   9 27.0797 6.56860
   7   2  -9 429.935 14.0551
  -7  -2   9 424.057 18.4088
   6   2  -9 231.524 10.4258
  -6  -2   9 225.655 10.9501
   5   2  -9 11.2412 3.36790
  -5  -2   9 9.10724 4.00978
   4   2  -9 26.6021 6.18906
  -4  -2   9 20.1432 4.45194
   3   2  -9 626.265 17.5396
  -3  -2   9 611.292 21.9508
   2   2  -9 301.688 9.12599
  -2  -2   9 304.468 11.6127
   1   2  -9 4543.02 153.021
  -1  -2   9 4718.80 208.015
   0   2  -9 117.102 4.74648
   0  -2   9 118.932 8.30476
  -1   2  -9 14.5195 2.87532
   1  -2   9 14.3066 4.00962
  -2   2  -9 169.722 5.74756
   2  -2   9 164.255 10.1583
  -3   2  -9 337.867 9.93416
   3  -2   9 331.883 17.1523
  -4   2  -9 699.697 19.3733
   4  -2   9 725.676 33.3671
  -5   2  -9 230.186 6.44626
  -6   2  -9 22.4054 3.20586
  -7   2  -9 5.89612 5.21250
   8   1  -9 59.8630 6.00250
  -8  -1   9 53.8031 7.15605
   7   1  -9 155.126 7.61234
  -7  -1   9 163.348 9.64138
   6   1  -9 6.25296 3.40905
  -6  -1   9 4.96151 4.22559
   5   1  -9 97.1097 4.69304
  -5  -1   9 91.1253 8.79338
   4   1  -9 431.974 12.8531
  -4  -1   9 424.531 15.8903
   3   1  -9 371.524 11.1447
  -3  -1   9 373.329 13.9109
   2   1  -9 306.547 11.8833
  -2  -1   9 322.237 11.8542
   1   1  -9 219.136 8.56163
  -1  -1   9 207.339 6.76469
   0   1  -9 184.123 7.40540
   0  -1   9 171.807 6.79642
  -1   1  -9 2047.53 93.9289
   1  -1   9 2086.39 93.9498
  -2   1  -9 712.345 18.9125
   2  -1   9 720.398 33.5376
  -3   1  -9 9.77135 1.74042
   3  -1   9 9.76032 3.81159
  -4   1  -9 126.317 4.46153
   4  -1   9 131.851 8.81154
  -5   1  -9 286.946 7.20732
  -6   1  -9 139.923 5.23547
  -7   1  -9 278.518 8.01438
  -8   1  -9 38.3724 5.54001
   8   0  -9 9.14709 5.90232
  -8   0   9 3.58025 6.24776
   7   0  -9 95.9341 6.35576
  -7   0   9 90.6157 7.76933
   6   0  -9 441.168 12.2604
  -6   0   9 468.985 17.7760
   5   0  -9 633.197 15.3992
  -5   0   9 611.556 22.5051
   4   0  -9 546.929 13.3892
  -4   0   9 535.449 19.4566
   3   0  -9 33.9130 2.95809
  -3   0   9 33.5284 3.48913
   2   0  -9 138.206 6.32532
  -2   0   9 132.490 5.16751
   1   0  -9 3259.08 107.917
  -1   0   9 3230.55 87.7700
   0   0  -9 36.9981 3.05023
   0   0   9 34.4297 2.90298
  -1   0  -9 547.558 15.5464
   1   0   9 568.860 18.6871
  -2   0  -9 73.1576 3.93483
   2   0   9 74.7332 3.85688
  -3   0  -9 130.349 4.06870
   3   0   9 128.899 8.48613
  -4   0  -9 348.538 7.95935
  -5   0  -9 329.103 7.79740
  -6   0  -9 176.582 5.46828
  -7   0  -9 28.9083 3.27189
  -8   0  -9 8.31824 3.68742
  -9   0  -9 41.9169 14.2418
   8  -1  -9 202.276 21.7968
  -8   1   9 241.187 12.3374
   7  -1  -9 37.3694 5.53146
  -7   1   9 33.8669 5.78299
   6  -1  -9 38.3549 3.75566
  -6   1   9 47.9639 5.10835
   5  -1  -9 15.0484 3.11316
  -5   1   9 19.4510 4.10021
   4  -1  -9 960.778 22.6407
  -4   1   9 958.924 32.9865
   3  -1  -9 514.430 14.5318
  -3   1   9 514.456 15.0353
   2  -1  -9 3002.68 99.9262
  -2   1   9 2998.86 81.3689
   1  -1  -9 485.827 17.0389
  -1   1   9 486.776 13.9326
   0  -1  -9 397.618 11.1647
   0   1   9 377.944 11.1730
  -1  -1  -9 1459.53 39.9634
   1   1   9 1480.28 48.0531
  -2  -1  -9 481.671 16.4161
   2   1   9 481.245 16.4045
  -3  -1  -9 713.527 24.1509
   3   1   9 742.816 34.4930
  -4  -1  -9 1466.46 30.1819
  -5  -1  -9 33.2153 2.30924
  -6  -1  -9 13.0615 2.41275
  -7  -1  -9 473.230 11.0974
  -8  -1  -9 20.0431 3.49185
  -9  -1  -9 31.2877 4.50150
   7  -2  -9 1.82998 7.10195
  -7   2   9 0.00000 7.99683
   6  -2  -9 115.070 5.86877
  -6   2   9 124.757 8.08915
   5  -2  -9 115.394 5.34811
  -5   2   9 103.946 7.06769
   4  -2  -9 720.714 20.5925
  -4   2   9 725.523 20.8640
   3  -2  -9 220.248 7.42999
  -3   2   9 226.534 7.70834
   2  -2  -9 283.041 8.59964
  -2   2   9 281.550 8.91178
   1  -2  -9 18.8711 2.01728
  -1   2   9 18.5414 2.24569
   0  -2  -9 1083.25 29.7830
   0   2   9 1087.33 29.8188
  -1  -2  -9 2104.07 68.9039
   1   2   9 2130.05 68.9431
  -2  -2  -9 51.4887 3.79837
   2   2   9 45.2136 5.15663
  -3  -2  -9 15.1146 2.70958
   3   2   9 14.1595 3.69732
  -4  -2  -9 67.7517 3.63041
   4   2   9 70.8807 6.29893
  -5  -2  -9 153.309 4.94547
  -6  -2  -9 1255.48 26.4545
  -7  -2  -9 47.0484 3.08214
  -8  -2  -9 71.3817 4.07378
  -9  -2  -9 38.0503 4.12425
   7  -3  -9 218.202 14.7941
  -7   3   9 210.230 21.1329
   6  -3  -9 165.478 11.3668
  -6   3   9 171.814 12.1413
   5  -3  -9 197.377 7.85432
  -5   3   9 205.586 15.7770
   4  -3  -9 16.4605 3.12696
  -4   3   9 13.8472 7.71442
   3  -3  -9 19.6749 3.55937
  -3   3   9 7.54649 3.89143
   2  -3  -9 3123.45 97.7265
  -2   3   9 3145.86 106.287
   1  -3  -9 45.3245 3.47016
  -1   3   9 45.8762 4.18498
   0  -3  -9 119.122 4.57535
   0   3   9 109.955 5.41729
  -1  -3  -9 261.294 9.91448
   1   3   9 268.509 14.2912
  -2  -3  -9 12.9395 2.62883
   2   3   9 2.74435 3.50435
  -3  -3  -9 1432.66 47.8867
   3   3   9 1507.62 68.8308
  -4  -3  -9 553.500 19.4498
   4   3   9 587.555 28.0154
  -5  -3  -9 28.3666 2.41648
   5   3   9 20.0323 5.41967
  -6  -3  -9 18.7595 2.28811
  -7  -3  -9 18.1760 2.67814
  -8  -3  -9 299.568 8.06669
  -9  -3  -9 136.562 6.19180
 -10  -3  -9 1.76585 6.46763
   6  -4  -9 69.3861 8.49129
  -6   4   9 74.9187 9.58076
   5  -4  -9 337.670 11.0462
  -5   4   9 316.968 15.8059
   4  -4  -9 70.0880 4.72934
  -4   4   9 91.5996 10.8215
   3  -4  -9 1055.24 33.9464
  -3   4   9 1049.26 53.6931
   2  -4  -9 265.174 10.1122
  -2   4   9 272.349 11.4373
   1  -4  -9 346.205 12.0637
  -1   4   9 330.970 13.1558
   0  -4  -9 1527.53 40.0268
   0   4   9 1513.90 52.1153
  -1  -4  -9 348.513 10.2188
   1   4   9 360.639 12.9822
  -2  -4  -9 115.507 4.65336
   2   4   9 125.729 8.78004
  -3  -4  -9 2278.06 59.3782
   3   4   9 2308.57 107.080
  -4  -4  -9 57.6851 7.08387
   4   4   9 60.5596 7.07507
  -5  -4  -9 380.960 14.2772
   5   4   9 390.781 20.3638
  -6  -4  -9 647.962 18.8162
  -7  -4  -9 25.6505 2.87312
  -8  -4  -9 274.323 10.6743
  -9  -4  -9 48.8924 5.19546
 -10  -4  -9 67.5074 7.18320
   5  -5  -9 152.643 12.2193
  -5   5   9 147.964 11.6014
   4  -5  -9 12.6984 3.81005
  -4   5   9 2.16329 6.14281
   3  -5  -9 17.4443 4.88132
  -3   5   9 16.0115 6.72564
   2  -5  -9 28.8050 3.88954
  -2   5   9 29.2859 4.85789
   1  -5  -9 227.415 9.09896
  -1   5   9 225.542 10.1416
   0  -5  -9 684.898 18.8529
   0   5   9 684.657 24.5070
  -1  -5  -9 145.394 5.64669
   1   5   9 146.189 6.85287
  -2  -5  -9 48.8174 3.91383
   2   5   9 47.1730 6.22198
  -3  -5  -9 96.1736 5.49028
   3   5   9 90.0595 8.37847
  -4  -5  -9 85.4406 5.22899
   4   5   9 79.3398 8.41038
  -5  -5  -9 1341.91 42.4828
   5   5   9 1303.03 45.3706
  -6  -5  -9 35.9851 3.22806
   6   5   9 29.0089 3.94818
  -7  -5  -9 9.42376 2.13441
   7   5   9 16.0797 5.66772
  -8  -5  -9 29.7096 7.00670
   8   5   9 38.6029 7.36243
  -9  -5  -9 62.1560 6.51164
   9   5   9 67.1503 9.97200
 -10  -5  -9 52.1047 9.30361
   4  -6  -9 9.53242 7.25737
  -4   6   9 0.93306 5.58744
   3  -6  -9 852.655 27.7985
  -3   6   9 819.666 24.3174
   2  -6  -9 167.058 10.8153
  -2   6   9 158.391 7.75088
   1  -6  -9 142.265 9.85435
  -1   6   9 145.740 6.74529
   0  -6  -9 110.964 5.54991
   0   6   9 107.462 5.61302
  -1  -6  -9 25.0045 3.72565
   1   6   9 26.1372 3.72870
  -2  -6  -9 583.246 20.0800
  -3  -6  -9 314.308 13.2631
   3   6   9 264.627 10.8616
  -4  -6  -9 159.977 7.26601
   4   6   9 134.129 7.29354
  -5  -6  -9 4.80239 5.01053
   5   6   9 9.72616 4.65596
  -6  -6  -9 168.466 8.90842
   6   6   9 159.887 9.12537
  -7  -6  -9 529.512 15.4527
   7   6   9 547.977 28.2939
  -8  -6  -9 237.547 15.1699
   8   6   9 216.028 15.1323
  -9  -6  -9 13.2159 20.8094
 -10  -6  -9 15.2662 8.96533
  10   6   9 11.0339 10.5533
   3  -7  -9 26.7731 5.19414
  -3   7   9 21.8524 5.75090
   2  -7  -9 49.8871 6.42964
  -2   7   9 35.1856 5.20887
   1  -7  -9 259.683 14.5818
  -1   7   9 245.841 10.4718
   0  -7  -9 264.765 9.91918
   0   7   9 261.707 11.4848
  -1  -7  -9 259.339 11.3453
   1   7   9 262.847 11.1335
  -2  -7  -9 1180.92 57.0387
   2   7   9 1158.80 56.8562
  -3  -7  -9 99.4720 9.08366
   3   7   9 102.059 8.23130
  -4  -7  -9 20.7013 8.26729
   4   7   9 27.9135 8.97253
  -5  -7  -9 216.028 10.0393
   5   7   9 193.116 10.5882
  -6  -7  -9 61.3411 7.66235
   6   7   9 60.9768 10.0607
  -7  -7  -9 298.739 12.2562
   7   7   9 290.472 17.4099
  -8  -7  -9 24.8233 7.12144
   8   7   9 25.8092 6.94277
  -9  -7  -9 152.340 16.8047
 -10  -7  -9 16.5472 12.2576
  10   7   9 25.9828 11.0451
   2  -8  -9 70.3963 6.24225
  -2   8   9 55.8535 6.44119
   1  -8  -9 82.6967 7.65151
  -1   8   9 71.7704 7.35225
   0  -8  -9 15.6892 8.17600
   0   8   9 5.21138 7.93976
  -1  -8  -9 73.1399 18.2891
   1   8   9 57.9465 11.7651
  -2  -8  -9 226.847 11.9310
   2   8   9 225.795 11.5200
  -3  -8  -9 10.9812 9.03419
   3   8   9 0.00000 10.4211
  -4  -8  -9 536.333 33.2615
   4   8   9 642.143 32.8252
  -5  -8  -9 31.7526 16.9147
   5   8   9 74.1359 12.1169
  -6  -8  -9 79.6774 9.28735
   6   8   9 79.6198 11.5330
  -7  -8  -9 63.0905 8.07654
   7   8   9 76.8417 13.1449
  -8  -8  -9 209.240 17.4578
   8   8   9 199.995 14.9347
  -9  -8  -9 45.2632 16.7332
   9   8   9 134.512 17.7013
   1  -9  -9 10.8128 7.62374
  -1   9   9 7.67163 6.09108
   0  -9  -9 42.2336 9.83306
   0   9   9 44.9701 10.6191
  -1  -9  -9 91.6446 13.8702
   1   9   9 77.7990 12.7196
  -2  -9  -9 425.515 29.6834
   2   9   9 422.594 29.5408
  -3  -9  -9 158.926 11.0135
   3   9   9 163.757 12.8077
  -4  -9  -9 28.6369 9.32215
   4   9   9 19.3442 9.35860
  -5  -9  -9 0.00000 18.2058
  -6  -9  -9 392.932 28.8278
   6   9   9 385.475 23.5062
  -7  -9  -9 213.674 12.3281
   7   9   9 253.212 18.3449
  -8  -9  -9 15.5056 17.5104
   8   9   9 8.80671 11.7508
   9   9   9 25.0782 9.90767
  -1 -10  -9 105.197 28.1241
   1  10   9 68.1030 19.8020
   2  10   9 8.37675 12.9804
  -3 -10  -9 21.6200 14.1896
   3  10   9 23.7088 18.7698
  -4 -10  -9 260.523 14.0561
   4  10   9 210.713 19.9580
  -5 -10  -9 63.8472 19.6814
   5  10   9 48.2183 19.9683
  -6 -10  -9 84.9126 14.7253
   6  10   9 107.493 24.7418
  -7 -10  -9 51.8065 11.2464
   8  10   9 47.0731 18.1545
   5  11   9 16.6458 18.5121
   6   8 -10 9.87312 19.6611
  -6  -8  10 8.41996 19.9169
   5   8 -10 38.8912 9.34048
   4   8 -10 62.2287 19.6133
  -4  -8  10 53.4186 10.7676
   3   8 -10 81.7124 11.8887
  -3  -8  10 118.819 11.2358
   1   8 -10 64.4518 23.5594
  -1  -8  10 38.8888 20.8543
   0   8 -10 171.352 19.8950
   0  -8  10 219.109 18.0987
  -7  -7  10 0.00000 21.0752
   6   7 -10 0.00000 12.4360
  -6  -7  10 4.73585 12.5017
   5   7 -10 95.7374 13.4716
  -5  -7  10 94.3765 18.1468
   4   7 -10 60.2093 12.3166
  -4  -7  10 75.2850 13.1214
   3   7 -10 68.0880 18.3342
  -3  -7  10 60.6422 8.48264
   2   7 -10 28.2384 12.3370
   1   7 -10 53.8986 9.16825
   0   7 -10 62.1096 14.0316
  -1   7 -10 263.397 26.8298
   2  -7  10 98.8594 10.9493
   8   6 -10 118.379 16.3863
   7   6 -10 82.9513 25.7577
  -7  -6  10 78.3298 16.0208
   6   6 -10 451.381 32.8341
  -6  -6  10 512.631 20.6799
   5   6 -10 654.799 24.7362
  -5  -6  10 661.264 34.8840
   4   6 -10 0.00000 18.8120
  -4  -6  10 6.20081 12.4569
   3   6 -10 51.9279 7.44711
  -3  -6  10 30.9618 7.97312
   2   6 -10 123.178 8.59731
   1   6 -10 11.9847 7.92892
   0   6 -10 269.885 12.2616
   0  -6  10 296.680 20.2890
  -1   6 -10 217.708 14.5311
   1  -6  10 299.507 20.2519
  -2   6 -10 10.4696 7.76367
   2  -6  10 0.00000 7.56412
  -3   6 -10 89.3410 24.4681
   3  -6  10 130.958 13.1934
   8   5 -10 278.524 20.9657
  -8  -5  10 319.555 20.4920
   7   5 -10 37.8252 11.4641
  -7  -5  10 31.0345 21.9929
   6   5 -10 51.7342 18.7691
  -6  -5  10 14.5994 16.6657
   5   5 -10 94.0388 10.3848
  -5  -5  10 75.8316 9.86276
   4   5 -10 270.658 15.0427
  -4  -5  10 283.795 18.1050
   3   5 -10 1380.34 48.8438
  -3  -5  10 1430.94 66.5820
   2   5 -10 245.835 9.88499
  -2  -5  10 240.317 10.6363
   1   5 -10 375.390 17.0691
  -1  -5  10 403.654 22.4596
   0   5 -10 30.0945 10.0032
   0  -5  10 28.7341 6.58246
  -1   5 -10 117.782 15.1269
   1  -5  10 131.092 14.8446
  -2   5 -10 148.368 18.8195
  -3   5 -10 539.741 21.5036
   3  -5  10 608.059 30.2286
  -4   5 -10 12.3295 6.13482
   4  -5  10 25.3049 7.70178
   8   4 -10 123.337 11.5002
  -8  -4  10 105.891 15.9490
   7   4 -10 41.7458 8.98999
  -7  -4  10 28.9454 8.53142
   6   4 -10 347.365 16.8287
  -6  -4  10 375.621 26.5388
   5   4 -10 110.425 7.43936
  -5  -4  10 112.824 9.84695
   4   4 -10 24.2343 9.14812
  -4  -4  10 11.7275 8.14927
  -2  -4  10 270.372 11.9752
   0   4 -10 578.424 20.4359
   0  -4  10 645.113 29.5930
  -1   4 -10 180.806 9.76647
   1  -4  10 196.098 12.4545
  -2   4 -10 50.2078 4.96052
   2  -4  10 59.1899 6.89499
  -3   4 -10 32.3370 4.82573
   3  -4  10 29.0154 6.34585
  -4   4 -10 8.39946 5.11464
   4  -4  10 13.6028 6.34703
  -5   4 -10 334.948 14.2466
   8   3 -10 68.7505 7.44204
  -8  -3  10 65.6884 14.8903
   7   3 -10 245.962 10.2587
  -7  -3  10 234.897 13.7373
   6   3 -10 984.349 34.5066
  -6  -3  10 1111.68 59.3537
   5   3 -10 162.517 9.05536
  -5  -3  10 160.027 11.2378
   4   3 -10 39.6519 8.97443
  -4  -3  10 5.07084 10.0144
   3   3 -10 493.425 17.5868
  -3  -3  10 497.102 27.0806
   2   3 -10 612.429 22.8903
  -2  -3  10 597.869 28.6852
   1   3 -10 1334.81 46.1275
  -1  -3  10 1438.18 66.7124
   0   3 -10 716.652 20.4504
   0  -3  10 789.304 35.1837
  -1   3 -10 13.1536 3.31855
   1  -3  10 9.20720 4.54865
  -2   3 -10 199.046 9.17634
   2  -3  10 243.565 13.0782
  -3   3 -10 26.9944 4.24922
   3  -3  10 31.3209 5.91949
  -4   3 -10 5.06408 4.18354
   4  -3  10 6.02437 5.73558
  -5   3 -10 86.1040 5.26058
  -6   3 -10 27.8504 3.72821
   8   2 -10 10.3291 6.65503
  -8  -2  10 23.8530 8.07641
   7   2 -10 6.96896 5.80016
  -7  -2  10 16.9071 11.8882
   6   2 -10 10.0409 6.05576
  -6  -2  10 3.05798 6.21265
   5   2 -10 127.338 10.7139
   4   2 -10 2139.23 58.0380
  -4  -2  10 2165.01 107.116
   3   2 -10 25.6443 4.47427
  -3  -2  10 26.5907 7.47442
   2   2 -10 39.2138 2.92995
  -2  -2  10 40.1622 3.89958
   1   2 -10 105.586 6.68199
  -1  -2  10 102.166 5.02647
   0   2 -10 1229.11 42.1914
   0  -2  10 1261.05 57.4663
  -1   2 -10 1560.73 51.2017
   1  -2  10 1734.30 74.3832
  -2   2 -10 1806.97 47.4543
   2  -2  10 1939.51 84.1155
  -3   2 -10 4.10411 2.67084
   3  -2  10 3.28782 4.44264
  -4   2 -10 47.9362 3.81299
   4  -2  10 58.2239 6.33393
  -5   2 -10 9.77634 2.76264
  -6   2 -10 6.65868 3.36621
  -7   2 -10 144.820 7.01187
   8   1 -10 84.2320 6.89415
  -8  -1  10 72.6253 7.98136
   7   1 -10 235.556 10.4820
  -7  -1  10 207.848 18.1467
   6   1 -10 131.235 6.68041
  -6  -1  10 118.534 13.0437
   5   1 -10 13.8944 2.98733
  -5  -1  10 8.20360 4.10220
   4   1 -10 771.461 22.3693
  -4  -1  10 740.767 25.7214
   3   1 -10 35.5290 5.10968
  -3  -1  10 36.0335 3.94037
   2   1 -10 417.376 15.2793
  -2  -1  10 413.726 15.2488
   1   1 -10 127.351 6.32131
  -1  -1  10 132.023 5.91844
   0   1 -10 49.6020 3.83041
   0  -1  10 43.3898 3.22177
  -1   1 -10 184.031 7.78886
   1  -1  10 184.749 10.8970
  -2   1 -10 479.311 13.1646
   2  -1  10 480.652 23.4129
  -3   1 -10 370.920 10.6693
   3  -1  10 366.695 18.6914
  -4   1 -10 749.073 17.5477
   4  -1  10 744.195 35.3407
  -5   1 -10 60.4309 3.39682
  -6   1 -10 46.2826 3.41722
  -7   1 -10 15.7145 3.61431
  -8   1 -10 80.4481 6.19553
   8   0 -10 149.949 9.83673
  -8   0  10 133.104 11.0193
   7   0 -10 645.463 16.8606
  -7   0  10 617.560 23.5382
   6   0 -10 26.6891 4.63099
  -6   0  10 19.4215 5.11828
   5   0 -10 150.489 6.23583
  -5   0  10 142.703 8.19990
   4   0 -10 642.335 15.7831
  -4   0  10 660.159 23.0463
   3   0 -10 497.046 14.4751
  -3   0  10 498.969 17.9300
   2   0 -10 2775.79 93.5995
  -2   0  10 2825.84 76.1846
   1   0 -10 651.055 22.3867
  -1   0  10 638.892 18.1674
   0   0 -10 16.7538 2.52503
   0   0  10 13.2781 2.45120
  -1   0 -10 151.352 5.27188
   1   0  10 163.876 6.35327
  -2   0 -10 1213.87 40.4603
   2   0  10 1254.69 40.4898
  -3   0 -10 151.729 4.61928
   3   0  10 146.495 9.58839
  -4   0 -10 107.774 4.06055
  -5   0 -10 554.745 12.2403
  -6   0 -10 244.478 6.72006
  -7   0 -10 157.112 5.90796
  -8   0 -10 19.6617 3.97281
   7  -1 -10 15.4238 4.44425
  -7   1  10 13.7871 5.91011
   6  -1 -10 87.9558 5.82585
  -6   1  10 87.4725 7.19007
   5  -1 -10 902.109 21.7904
  -5   1  10 931.433 32.1199
   4  -1 -10 132.141 5.17503
  -4   1  10 129.734 6.10996
   3  -1 -10 12.2161 2.56787
  -3   1  10 14.1899 2.82301
   2  -1 -10 13.5404 3.06426
  -2   1  10 14.8277 2.57299
   1  -1 -10 659.495 23.0152
  -1   1  10 668.510 18.7861
   0  -1 -10 3332.40 109.068
   0   1  10 3252.26 88.7517
  -1  -1 -10 2110.52 57.5194
   1   1  10 2131.04 69.0838
  -2  -1 -10 8.11936 1.75590
   2   1  10 9.58938 2.39108
  -3  -1 -10 250.012 9.64062
   3   1  10 277.692 13.6128
  -4  -1 -10 438.641 9.71520
  -5  -1 -10 42.3178 2.57444
  -6  -1 -10 248.197 6.62349
  -7  -1 -10 210.900 6.55821
  -8  -1 -10 26.0645 3.78939
  -9  -1 -10 20.0039 4.49580
   7  -2 -10 360.896 16.6283
  -7   2  10 345.790 18.4316
   6  -2 -10 1.46784 4.44980
  -6   2  10 4.46838 4.45493
   5  -2 -10 47.6993 3.78514
  -5   2  10 51.3453 5.13479
   4  -2 -10 11.4694 2.99084
  -4   2  10 8.95248 3.34768
   3  -2 -10 91.6522 4.86237
  -3   2  10 87.2853 5.12912
   2  -2 -10 600.326 16.6349
  -2   2  10 590.201 17.1722
   1  -2 -10 453.892 16.0565
  -1   2  10 451.145 13.2008
   0  -2 -10 198.034 6.34213
   0   2  10 190.116 6.33064
  -1  -2 -10 479.995 16.8797
   1   2  10 498.708 16.9724
  -2  -2 -10 534.499 18.7252
   2   2  10 573.955 26.8452
  -3  -2 -10 1035.30 34.6601
   3   2  10 1068.39 49.6660
  -4  -2 -10 550.286 15.9479
   4   2  10 594.347 27.7318
  -5  -2 -10 37.5472 2.38459
  -6  -2 -10 281.963 7.15657
  -7  -2 -10 43.9691 3.19008
  -8  -2 -10 135.018 5.69088
  -9  -2 -10 364.738 10.1910
   6  -3 -10 8.66933 4.34996
  -6   3  10 11.0925 7.58536
   5  -3 -10 637.059 22.6505
  -5   3  10 655.812 35.2629
   4  -3 -10 107.230 5.92530
  -4   3  10 99.4638 10.8856
   3  -3 -10 572.931 19.6323
  -3   3  10 596.306 21.7622
   2  -3 -10 698.285 23.2975
  -2   3  10 722.994 25.4904
   1  -3 -10 19.9143 2.96201
  -1   3  10 17.4809 3.17708
   0  -3 -10 575.768 15.9544
   0   3  10 589.597 20.5581
  -1  -3 -10 1684.89 55.7489
   1   3  10 1734.53 80.1561
  -2  -3 -10 183.523 7.72334
   2   3  10 193.256 11.1248
  -3  -3 -10 145.642 6.88535
   3   3  10 166.831 9.90121
  -4  -3 -10 868.621 29.6399
   4   3  10 912.214 42.6380
  -5  -3 -10 377.724 9.92447
   5   3  10 386.240 20.0488
  -6  -3 -10 685.334 14.8689
  -7  -3 -10 40.7992 3.28683
  -8  -3 -10 40.1400 3.82262
  -9  -3 -10 2.45931 3.74900
   6  -4 -10 34.7900 8.42675
  -6   4  10 36.0621 11.8620
   5  -4 -10 89.9761 5.85916
  -5   4  10 92.3973 9.00000
   4  -4 -10 58.3719 5.35936
  -4   4  10 57.0569 8.73303
   3  -4 -10 67.6036 5.23742
  -3   4  10 62.6639 8.06701
   2  -4 -10 163.671 7.57751
  -2   4  10 170.035 8.57408
   1  -4 -10 418.206 14.8867
  -1   4  10 440.892 16.2603
   0  -4 -10 1659.40 43.5856
   0   4  10 1660.97 56.7195
  -1  -4 -10 10.6433 2.29420
   1   4  10 12.5649 2.30532
  -2  -4 -10 73.4746 4.06602
   2   4  10 88.8810 7.64423
  -3  -4 -10 589.861 20.6544
   3   4  10 614.217 29.7732
  -4  -4 -10 9.07625 3.27446
   4   4  10 11.0847 4.99258
  -5  -4 -10 108.741 6.56022
   5   4  10 103.201 9.38356
  -6  -4 -10 301.913 8.60551
  -7  -4 -10 29.3852 2.84033
  -8  -4 -10 176.106 6.03946
  -9  -4 -10 22.2550 5.07725
 -10  -4 -10 14.6340 6.89632
   5  -5 -10 6.71813 7.43504
  -5   5  10 10.1119 8.03915
   4  -5 -10 11.3689 4.08155
  -4   5  10 16.2405 6.71454
   3  -5 -10 454.475 22.5453
  -3   5  10 450.583 25.5808
   2  -5 -10 80.5459 7.54705
  -2   5  10 89.6220 10.0343
   1  -5 -10 6.33813 3.28096
  -1   5  10 5.25992 3.94820
   0  -5 -10 86.1472 5.97805
   0   5  10 81.3785 5.97124
  -1  -5 -10 71.3270 4.46072
   1   5  10 71.3571 4.71770
  -2  -5 -10 1378.86 36.5797
   2   5  10 1405.38 66.1469
  -3  -5 -10 265.168 10.4009
   3   5  10 276.601 15.5446
  -4  -5 -10 8.36809 3.03516
   4   5  10 8.59225 5.47180
  -5  -5 -10 257.823 10.0547
   5   5  10 250.525 15.7477
  -6  -5 -10 145.199 5.75216
   6   5  10 134.585 7.30860
  -7  -5 -10 135.258 4.69742
   7   5  10 142.960 10.5618
  -8  -5 -10 785.645 28.7044
  -9  -5 -10 2.70859 6.36278
 -10  -5 -10 26.4307 6.84986
   4  -6 -10 58.4098 5.28110
  -4   6  10 70.9576 8.74925
   3  -6 -10 425.659 16.0609
  -3   6  10 434.285 18.7120
   2  -6 -10 37.5289 5.95641
  -2   6  10 46.6691 8.35450
   1  -6 -10 325.615 17.3357
  -1   6  10 333.217 19.0539
   0  -6 -10 390.597 11.9647
   0   6  10 393.693 15.8858
  -1  -6 -10 6.16355 2.98413
   1   6  10 5.47564 3.51904
  -2  -6 -10 291.352 12.8533
   2   6  10 302.843 11.7810
  -3  -6 -10 283.395 11.9160
   3   6  10 297.803 16.9771
  -4  -6 -10 427.222 16.3530
   4   6  10 461.548 23.7001
  -5  -6 -10 161.096 7.81771
   5   6  10 162.780 12.5848
  -6  -6 -10 23.0629 4.13552
   6   6  10 25.5737 3.90013
  -7  -6 -10 56.5635 4.24944
   7   6  10 63.7076 6.15597
  -8  -6 -10 2.19937 5.66956
   8   6  10 4.92349 7.04886
  -9  -6 -10 7.16082 6.12071
   9   6  10 24.2897 9.23932
 -10  -6 -10 299.839 16.7047
   3  -7 -10 42.0856 5.53890
  -3   7  10 47.0311 8.52056
   2  -7 -10 9.39071 5.07041
  -2   7  10 10.1967 4.91928
   1  -7 -10 786.777 35.2138
  -1   7  10 697.511 28.6092
   0  -7 -10 44.6255 4.40658
   0   7  10 45.0824 6.98482
  -1  -7 -10 27.5255 4.12235
   1   7  10 30.6412 5.94192
  -2  -7 -10 331.413 13.2347
  -3  -7 -10 164.236 8.62258
   3   7  10 153.198 10.2765
  -4  -7 -10 327.906 13.2126
   4   7  10 310.475 12.9553
  -5  -7 -10 238.166 9.96974
   5   7  10 214.118 9.85885
  -6  -7 -10 2.99803 9.39463
   6   7  10 0.00000 9.30443
  -7  -7 -10 67.4488 6.90935
   7   7  10 84.6319 9.12701
  -8  -7 -10 124.918 8.17733
   8   7  10 129.551 11.8292
  -9  -7 -10 10.3509 12.8995
   9   7  10 10.0514 9.09533
 -10  -7 -10 28.6128 14.2044
   2  -8 -10 38.9517 7.74957
  -2   8  10 27.3230 6.31644
   1  -8 -10 18.6750 7.58088
  -1   8  10 20.6842 5.23144
   0  -8 -10 24.0487 5.51463
   0   8  10 22.4291 7.24924
  -1  -8 -10 612.635 18.1877
   1   8  10 578.408 32.3683
  -2  -8 -10 37.4544 7.76300
  -3  -8 -10 70.9779 7.90927
   3   8  10 73.9099 11.5706
  -4  -8 -10 132.865 17.7192
   4   8  10 148.494 13.2633
  -5  -8 -10 134.900 19.4064
   5   8  10 153.436 12.4466
  -6  -8 -10 380.581 16.0724
   6   8  10 358.400 21.7071
  -7  -8 -10 656.805 24.4311
   7   8  10 729.893 36.6711
  -8  -8 -10 9.66430 7.56541
   8   8  10 11.0658 6.11348
  -9  -8 -10 12.3455 24.6650
   9   8  10 0.00000 11.9211
   1  -9 -10 132.940 12.7125
  -1   9  10 123.619 13.9845
   0  -9 -10 25.2299 6.84689
   0   9  10 25.7342 10.4932
  -1  -9 -10 71.4856 15.4983
   1   9  10 83.8813 14.9061
  -2  -9 -10 0.00000 20.0138
   2   9  10 10.6593 9.95607
  -3  -9 -10 178.969 12.1278
   3   9  10 179.810 11.7846
  -4  -9 -10 46.2852 11.1818
   4   9  10 47.0299 12.7127
  -5  -9 -10 51.9121 19.2226
  -6  -9 -10 52.3317 20.9094
   6   9  10 45.6335 12.2765
  -7  -9 -10 62.5341 10.0577
   7   9  10 39.7304 10.7239
  -8  -9 -10 76.7725 25.6403
   8   9  10 21.6671 16.4672
  -1 -10 -10 102.753 8.71513
   1  10  10 83.0934 8.41270
  -2 -10 -10 55.7286 24.3579
  -3 -10 -10 121.640 15.8151
   3  10  10 113.762 19.7639
  -4 -10 -10 7.59327 11.7938
   4  10  10 17.3526 19.9749
  -5 -10 -10 0.00000 20.6433
   5  10  10 0.00000 20.3075
  -6 -10 -10 35.8631 13.4497
   6  10  10 29.0075 11.7391
  -7 -10 -10 285.905 15.6132
   7  10  10 227.395 20.4401
   5   8 -11 163.853 16.3299
   4   8 -11 21.8199 21.6709
  -4  -8  11 49.7414 13.4742
   3   8 -11 102.384 11.5808
   2   8 -11 19.7168 10.3060
   1   8 -11 49.0851 24.0316
  -1  -8  11 0.00000 21.6001
   6   7 -11 113.741 19.0083
  -6  -7  11 82.1170 19.5123
   5   7 -11 127.398 12.0260
  -5  -7  11 142.674 20.1601
   4   7 -11 12.2934 13.4135
  -4  -7  11 15.5621 10.9346
   3   7 -11 43.9878 12.8106
  -3  -7  11 47.7715 8.39072
   2   7 -11 100.175 8.53773
   1   7 -11 1.37134 9.47074
  -1  -7  11 0.00000 17.1181
   0   7 -11 39.2671 16.0314
   0  -7  11 0.00000 18.0590
  -1   7 -11 0.00000 9.83409
   7   6 -11 31.3513 7.99577
  -7  -6  11 39.3596 7.77336
   6   6 -11 202.474 14.7802
  -6  -6  11 194.068 15.1170
   5   6 -11 169.673 11.0219
  -5  -6  11 135.506 17.5522
   4   6 -11 12.3696 9.24373
  -4  -6  11 55.6256 13.6933
   3   6 -11 621.638 19.5682
  -3  -6  11 401.581 30.4073
   2   6 -11 574.996 18.2468
   1   6 -11 24.3471 20.1496
   0   6 -11 0.02989 9.23883
  -1   6 -11 1.01174 12.2985
   1  -6  11 8.44311 17.1001
  -2   6 -11 94.0825 14.8032
   2  -6  11 118.252 13.4964
   3  -6  11 181.272 15.6711
  -8  -5  11 10.6895 24.2068
   7   5 -11 51.2947 12.3272
  -7  -5  11 67.4292 16.1656
   6   5 -11 267.214 17.3458
  -6  -5  11 273.508 24.1112
   5   5 -11 249.914 14.2392
  -5  -5  11 273.656 17.7144
   4   5 -11 445.062 20.9291
  -4  -5  11 482.694 26.4881
   3   5 -11 11.8181 7.05207
  -3  -5  11 4.93591 6.98585
   2   5 -11 11.5824 6.29515
  -2  -5  11 20.4144 10.1780
   1   5 -11 98.9652 11.2662
  -1  -5  11 77.4620 13.7902
   0   5 -11 419.882 14.6070
   0  -5  11 413.843 25.0705
  -1   5 -11 39.3202 9.98200
   1  -5  11 37.0378 14.3089
  -2   5 -11 87.9250 13.0069
   2  -5  11 84.9483 16.8092
  -3   5 -11 0.74259 19.9418
   3  -5  11 24.1068 7.67476
  -4   5 -11 9.29751 9.69725
   4  -5  11 20.0205 9.74247
   8   4 -11 231.402 15.4131
  -8  -4  11 210.354 19.0421
   7   4 -11 37.3447 10.2121
  -7  -4  11 25.7215 9.20290
   6   4 -11 229.923 14.5125
  -6  -4  11 263.458 23.0809
   5   4 -11 144.916 8.38013
  -5  -4  11 106.475 10.9025
   4   4 -11 65.3195 10.0003
  -4  -4  11 35.5891 9.00790
   3   4 -11 842.556 45.4619
   2   4 -11 13.3892 7.22458
  -2  -4  11 5.71485 5.13616
   1   4 -11 26.8233 6.45280
  -1  -4  11 15.2650 11.0949
   0   4 -11 192.335 8.37360
   0  -4  11 209.015 13.3574
  -1   4 -11 54.6661 11.4135
  -2   4 -11 728.270 36.2406
  -3   4 -11 83.1040 6.55565
   3  -4  11 95.1323 10.6428
  -4   4 -11 43.8818 11.8018
   4  -4  11 53.4996 8.08551
  -5   4 -11 0.00000 6.03099
   8   3 -11 18.5483 7.20179
  -8  -3  11 22.1050 15.6454
   7   3 -11 123.875 9.48663
  -7  -3  11 107.136 10.4937
   6   3 -11 172.868 12.4892
  -6  -3  11 202.612 21.9863
   5   3 -11 15.2780 6.95513
  -5  -3  11 22.0748 9.05312
   4   3 -11 666.988 26.2488
  -4  -3  11 691.545 32.9345
   3   3 -11 835.302 30.1904
   2   3 -11 23.4346 11.1106
   1   3 -11 100.992 12.0569
   0   3 -11 24.4811 5.05532
  -1   3 -11 93.8699 6.60282
   1  -3  11 122.922 9.58373
  -2   3 -11 1054.89 35.3893
   2  -3  11 1215.76 54.3290
  -3   3 -11 13.2119 4.30730
   3  -3  11 0.00000 5.79023
  -4   3 -11 118.614 8.25383
   4  -3  11 138.377 11.3343
  -5   3 -11 56.1871 6.01852
  -6   3 -11 10.8748 3.57407
   8   2 -11 0.00000 7.56057
  -8  -2  11 44.6223 25.3753
   7   2 -11 280.973 11.3032
  -7  -2  11 247.893 16.0709
   6   2 -11 280.591 12.2355
  -6  -2  11 291.627 14.2297
   5   2 -11 254.307 11.5842
  -5  -2  11 216.032 19.1268
   4   2 -11 1.32641 9.77052
  -4  -2  11 0.55717 10.5674
   3   2 -11 30.8531 7.59223
  -3  -2  11 47.0258 11.8089
   2   2 -11 56.5120 4.21558
  -2  -2  11 43.6369 5.75083
   1   2 -11 723.070 25.1131
  -1  -2  11 691.022 23.9424
   0   2 -11 48.4444 5.23776
   0  -2  11 61.6986 10.9868
  -1   2 -11 7.74530 2.63640
   1  -2  11 5.65307 4.81969
  -2   2 -11 28.0727 2.86367
   2  -2  11 33.4582 5.42455
  -3   2 -11 89.2852 5.02381
   3  -2  11 93.1042 8.75369
  -4   2 -11 808.548 22.1619
   4  -2  11 840.706 38.8434
  -5   2 -11 4.75784 3.01531
  -6   2 -11 0.66389 3.38949
  -7   2 -11 1.70605 4.08772
   8   1 -11 17.7620 6.57909
  -8  -1  11 3.08238 10.2078
   7   1 -11 413.403 13.1614
  -7  -1  11 413.532 19.8938
   6   1 -11 77.0699 6.90226
  -6  -1  11 72.1843 8.27782
   5   1 -11 229.546 10.1001
  -5  -1  11 235.772 16.2099
   4   1 -11 1015.93 33.9628
  -4  -1  11 1002.32 52.6722
   3   1 -11 60.3671 13.1539
  -3  -1  11 13.6952 11.8448
   2   1 -11 138.498 7.02196
  -2  -1  11 129.184 5.54146
   1   1 -11 480.033 17.3856
  -1  -1  11 481.870 16.7753
   0   1 -11 121.873 6.99309
   0  -1  11 97.4588 5.02562
  -1   1 -11 2142.35 72.0549
   1  -1  11 2164.79 98.1447
  -2   1 -11 393.457 11.2963
   2  -1  11 406.661 20.1922
  -3   1 -11 43.6956 3.21166
   3  -1  11 49.2674 5.89361
  -4   1 -11 136.604 5.47616
   4  -1  11 146.215 10.3621
  -5   1 -11 89.2486 4.08987
  -6   1 -11 376.214 9.48517
  -7   1 -11 108.705 5.22736
   7   0 -11 26.1148 7.45263
  -7   0  11 39.5590 6.48706
   6   0 -11 158.090 7.78119
  -6   0  11 169.232 14.9844
   5   0 -11 925.300 22.5431
  -5   0  11 864.832 45.5240
   4   0 -11 611.752 17.5696
  -4   0  11 606.170 22.4166
   3   0 -11 94.9498 9.05632
  -3   0  11 71.5349 6.90300
   2   0 -11 29.7273 3.48938
  -2   0  11 23.5498 2.95915
   1   0 -11 56.4386 4.58109
  -1   0  11 55.2195 3.66404
   0   0 -11 511.233 18.0642
   0   0  11 509.901 17.6155
  -1   0 -11 1527.19 51.7806
   1   0  11 1551.52 50.4248
  -2   0 -11 9.76190 2.45646
   2   0  11 9.53582 2.39963
  -3   0 -11 278.407 7.29474
   3   0  11 275.223 15.0711
  -4   0 -11 222.647 6.39395
  -5   0 -11 13.1055 2.45201
  -6   0 -11 494.368 11.5007
  -7   0 -11 2.47274 3.38539
  -8   0 -11 15.7279 4.24439
   7  -1 -11 83.2456 6.71945
  -7   1  11 84.5641 6.72007
   6  -1 -11 1.19453 4.95738
  -6   1  11 8.47092 5.21711
   5  -1 -11 12.1115 4.30928
  -5   1  11 13.0487 4.53098
   4  -1 -11 567.230 16.5661
  -4   1  11 583.740 17.1497
   3  -1 -11 315.437 9.84262
  -3   1  11 314.569 10.2161
   2  -1 -11 1154.73 39.4353
  -2   1  11 1163.64 32.1824
   1  -1 -11 513.094 18.4869
  -1   1  11 531.486 15.1796
   0  -1 -11 16.4473 2.57353
   0   1  11 17.5511 2.19589
  -1  -1 -11 158.411 5.44535
   1   1  11 156.619 6.77681
  -2  -1 -11 155.522 5.24316
   2   1  11 138.038 6.50995
  -3  -1 -11 1432.04 47.1273
   3   1  11 1438.83 47.1504
  -4  -1 -11 207.878 5.45652
  -5  -1 -11 40.4820 2.68075
  -6  -1 -11 14.9887 2.70930
  -7  -1 -11 64.2072 3.97136
  -8  -1 -11 122.927 6.11596
  -9  -1 -11 43.1855 4.99965
   7  -2 -11 6.42041 5.00129
  -7   2  11 4.20285 11.6046
   6  -2 -11 98.9360 7.22282
  -6   2  11 106.341 7.16747
   5  -2 -11 111.138 6.31129
  -5   2  11 101.739 7.86478
   4  -2 -11 85.6520 4.61592
  -4   2  11 85.8563 5.47591
   3  -2 -11 129.109 5.78798
  -3   2  11 123.912 6.01130
   2  -2 -11 32.3866 2.93218
  -2   2  11 23.7995 3.12310
   1  -2 -11 686.276 23.4807
  -1   2  11 670.358 19.2440
   0  -2 -11 2379.63 64.6118
   0   2  11 2382.01 64.6440
  -1  -2 -11 1577.55 52.3319
   1   2  11 1613.37 52.4046
  -2  -2 -11 432.611 15.4010
   2   2  11 450.228 21.9810
  -3  -2 -11 182.907 7.80695
   3   2  11 187.472 11.0031
  -4  -2 -11 183.062 6.32834
   4   2  11 177.221 11.1023
  -5  -2 -11 591.615 12.9508
  -6  -2 -11 696.970 15.2010
  -7  -2 -11 105.973 4.80452
  -8  -2 -11 89.8610 5.19547
  -9  -2 -11 16.1170 4.51595
   6  -3 -11 366.374 12.5483
  -6   3  11 347.081 17.7509
   5  -3 -11 107.675 7.35846
  -5   3  11 115.894 9.68246
   4  -3 -11 21.7180 3.80395
  -4   3  11 27.9002 7.08534
   3  -3 -11 89.7319 6.21704
  -3   3  11 95.5167 7.28039
   2  -3 -11 155.970 7.36691
  -2   3  11 158.414 8.57807
   1  -3 -11 90.3371 5.39578
  -1   3  11 77.3838 5.63989
   0  -3 -11 159.982 5.81849
   0   3  11 145.144 6.94059
  -1  -3 -11 191.934 8.12466
   1   3  11 185.928 11.6486
  -2  -3 -11 124.029 6.26143
   2   3  11 134.212 9.09202
  -3  -3 -11 928.570 31.7073
   3   3  11 982.419 45.5332
  -4  -3 -11 55.7391 4.39064
   4   3  11 59.4731 7.16541
  -5  -3 -11 348.748 10.6847
   5   3  11 346.643 18.7102
  -6  -3 -11 6.26952 2.47404
  -7  -3 -11 45.9812 3.65054
  -8  -3 -11 224.585 7.11281
  -9  -3 -11 163.031 7.40351
   6  -4 -11 9.81499 11.2962
  -6   4  11 24.3177 12.4940
   5  -4 -11 228.378 9.67934
  -5   4  11 236.502 13.6016
   4  -4 -11 371.939 15.2080
  -4   4  11 380.636 22.9770
   3  -4 -11 395.056 14.4500
  -3   4  11 390.578 22.6561
   2  -4 -11 193.554 8.65888
  -2   4  11 206.475 9.76788
   1  -4 -11 229.300 9.33366
  -1   4  11 233.625 10.2389
   0  -4 -11 683.641 18.8618
   0   4  11 686.975 24.3195
  -1  -4 -11 223.244 7.36822
   1   4  11 216.104 13.5162
  -2  -4 -11 711.607 19.3634
   2   4  11 700.861 34.9648
  -3  -4 -11 1323.36 44.1923
   3   4  11 1352.66 63.5305
  -4  -4 -11 5.53098 3.50316
   4   4  11 6.99899 5.23990
  -5  -4 -11 56.6902 4.92390
   5   4  11 53.5942 7.07183
  -6  -4 -11 32.7475 3.22250
   6   4  11 25.3951 10.8748
  -7  -4 -11 33.0716 3.07792
  -8  -4 -11 111.351 5.15979
  -9  -4 -11 18.5360 3.74940
   5  -5 -11 38.7282 5.30561
  -5   5  11 35.4376 11.1814
   4  -5 -11 40.8080 5.32400
  -4   5  11 38.3987 7.52970
   3  -5 -11 10.8682 4.27748
  -3   5  11 12.4771 7.16768
   2  -5 -11 535.966 26.4877
  -2   5  11 554.042 29.3469
   1  -5 -11 555.293 19.7422
  -1   5  11 538.613 20.3738
   0  -5 -11 643.477 18.1137
   0   5  11 653.268 23.3758
  -1  -5 -11 556.193 15.5515
   1   5  11 532.975 20.3781
  -2  -5 -11 19.6520 2.98447
   2   5  11 29.3455 6.00695
  -3  -5 -11 133.006 5.58304
   3   5  11 115.302 10.2212
  -4  -5 -11 303.463 9.92253
   4   5  11 324.495 17.8479
  -5  -5 -11 1684.40 42.9390
   5   5  11 1467.79 79.0847
  -6  -5 -11 20.4219 2.96973
   6   5  11 10.4890 6.77742
  -7  -5 -11 42.8519 3.90799
  -8  -5 -11 10.8964 3.11508
  -9  -5 -11 26.0595 5.24866
 -10  -5 -11 93.0673 10.6035
   4  -6 -11 2.93209 4.83932
  -4   6  11 1.26849 8.29649
   3  -6 -11 148.221 9.15878
  -3   6  11 161.558 11.0576
   2  -6 -11 16.0934 5.78314
  -2   6  11 12.0935 8.09847
   1  -6 -11 110.815 9.42146
  -1   6  11 94.5157 9.95755
   0  -6 -11 270.214 9.41714
   0   6  11 279.278 16.0777
  -1  -6 -11 12.9707 3.26099
   1   6  11 6.51275 3.64939
  -2  -6 -11 637.787 23.2969
   2   6  11 660.011 23.2402
  -3  -6 -11 14.7987 3.10982
   3   6  11 23.8100 6.75501
  -4  -6 -11 87.3985 6.37758
   4   6  11 88.6118 10.1840
  -5  -6 -11 94.7291 6.54992
   5   6  11 97.5803 10.7204
  -6  -6 -11 61.8171 5.54818
   6   6  11 53.6993 8.99864
  -7  -6 -11 523.400 15.3168
   7   6  11 519.706 20.5380
  -8  -6 -11 55.1356 5.67234
  -9  -6 -11 55.6234 6.98787
   3  -7 -11 2.92822 6.14168
  -3   7  11 5.06529 9.63435
   2  -7 -11 6.08451 5.21532
  -2   7  11 7.02379 6.76016
   1  -7 -11 265.795 12.5522
  -1   7  11 284.259 13.6893
   0  -7 -11 131.024 7.85193
   0   7  11 155.756 11.6167
  -1  -7 -11 319.171 10.7698
   1   7  11 323.279 18.4672
  -2  -7 -11 832.060 23.1242
   2   7  11 848.884 42.1988
  -3  -7 -11 46.5477 5.13218
   3   7  11 39.1332 4.72582
  -4  -7 -11 157.393 8.35316
   4   7  11 123.050 12.7125
  -5  -7 -11 95.1039 6.72704
   5   7  11 87.2246 10.6780
  -6  -7 -11 21.1349 4.50088
   6   7  11 12.2822 4.56361
  -7  -7 -11 279.411 11.6473
   7   7  11 266.441 12.3612
  -8  -7 -11 23.1959 5.54642
   8   7  11 27.3978 7.22420
  -9  -7 -11 14.1765 6.31338
   9   7  11 27.3839 8.95049
   2  -8 -11 152.535 13.2488
  -2   8  11 163.315 16.9081
   1  -8 -11 112.032 8.56840
  -1   8  11 115.765 10.1815
   0  -8 -11 35.1675 5.11311
   0   8  11 22.2761 6.72814
  -1  -8 -11 7.04940 4.30245
   1   8  11 9.60397 5.28965
  -2  -8 -11 109.425 6.71126
   2   8  11 109.299 10.1440
  -3  -8 -11 95.5882 7.92321
   3   8  11 76.5291 10.8261
  -4  -8 -11 1111.53 36.4573
   4   8  11 1003.56 53.5005
  -5  -8 -11 40.8274 5.86190
   5   8  11 21.2827 5.04255
  -6  -8 -11 14.9640 7.47268
   6   8  11 30.4510 9.89773
  -7  -8 -11 47.2362 10.1448
   7   8  11 27.4948 6.28198
  -8  -8 -11 54.5244 9.05511
   8   8  11 53.6103 6.77047
  -9  -8 -11 224.924 29.8406
   9   8  11 276.454 19.2645
   0  -9 -11 6.50571 8.01668
   0   9  11 5.52756 7.49622
  -1  -9 -11 93.9072 8.11875
   1   9  11 89.2021 14.1842
  -2  -9 -11 6.39189 20.5815
   2   9  11 13.1729 10.6761
  -3  -9 -11 41.9382 9.08933
   3   9  11 38.6240 8.31176
  -4  -9 -11 12.5913 12.3457
   4   9  11 8.19316 12.3635
  -5  -9 -11 0.00000 18.8745
  -6  -9 -11 204.344 18.6147
   6   9  11 224.058 12.3994
  -7  -9 -11 55.2127 11.5743
   7   9  11 60.9924 11.7254
  -8  -9 -11 11.5479 5.39605
   8   9  11 3.63425 8.20489
  -3 -10 -11 17.2291 16.1095
   3  10  11 0.97080 11.4328
  -4 -10 -11 113.981 15.1944
   4  10  11 136.513 14.2312
  -5 -10 -11 13.3871 13.7903
   5  10  11 17.2015 21.2547
  -6 -10 -11 35.5224 27.1125
   6  10  11 41.2790 14.2117
   7  10  11 19.6962 14.4878
   6   7 -12 51.6429 9.70061
  -6  -7  12 63.7254 11.6709
   5   7 -12 7.84941 9.12940
  -5  -7  12 10.7270 9.21088
   4   7 -12 4.29541 7.01072
  -4  -7  12 0.00000 11.3143
   3   7 -12 299.724 15.4410
  -3  -7  12 342.213 26.8990
   2   7 -12 1.47546 7.96680
   1   7 -12 87.7521 10.6721
  -1  -7  12 76.6800 19.1480
   0   7 -12 71.4476 11.8475
   0  -7  12 85.3893 20.5923
   7   6 -12 0.00000 7.92845
  -7  -6  12 0.00000 11.5545
   6   6 -12 340.946 19.2068
  -6  -6  12 323.918 16.4727
   5   6 -12 287.017 12.8632
  -5  -6  12 247.261 14.5492
   4   6 -12 28.9949 7.40929
  -4  -6  12 46.0342 14.3945
   3   6 -12 239.495 12.3927
  -3  -6  12 220.299 11.9699
   2   6 -12 90.9740 10.4728
  -2  -6  12 65.0772 17.5602
   1   6 -12 132.504 22.9580
   0   6 -12 36.8492 10.7745
  -1   6 -12 62.3511 9.10201
  -2   6 -12 0.00000 9.81980
   2  -6  12 2.14698 11.5550
   7   5 -12 10.7916 6.18236
  -7  -5  12 5.74578 7.17981
   6   5 -12 18.9745 15.6711
  -6  -5  12 13.2259 8.52889
   5   5 -12 14.9965 12.7017
  -5  -5  12 0.00000 16.8427
   4   5 -12 338.436 18.3802
  -4  -5  12 359.917 21.7191
   3   5 -12 888.342 25.9641
  -3  -5  12 793.214 42.3945
   2   5 -12 9.45153 6.53603
   1   5 -12 449.224 15.7371
   0   5 -12 54.6560 9.03368
   0  -5  12 50.7827 14.9653
  -1   5 -12 7.37364 10.5207
   1  -5  12 42.3252 15.3734
  -2   5 -12 103.742 9.52682
   2  -5  12 159.990 20.0074
  -3   5 -12 414.214 20.2650
   3  -5  12 492.285 26.6773
  -4   5 -12 12.4235 7.36185
   4  -5  12 18.6208 9.36155
   7   4 -12 14.2818 8.28691
  -7  -4  12 0.00000 9.93091
   6   4 -12 9.15346 10.2495
  -6  -4  12 0.00000 18.9093
   5   4 -12 18.9430 7.63464
  -5  -4  12 11.3182 10.1675
   4   4 -12 356.005 16.9938
   3   4 -12 162.501 18.1128
   2   4 -12 132.653 9.10640
  -2  -4  12 120.388 7.29489
   1   4 -12 349.673 12.2875
  -1  -4  12 353.703 20.7553
   0   4 -12 50.0199 6.79342
   0  -4  12 34.3906 12.9824
  -1   4 -12 614.082 23.4340
   1  -4  12 652.393 33.1574
  -2   4 -12 51.0950 10.8946
   2  -4  12 49.5197 15.3909
  -3   4 -12 3.33626 7.75020
   3  -4  12 5.11381 7.56209
  -4   4 -12 7.54677 8.76211
   4  -4  12 12.1897 8.17568
  -5   4 -12 388.815 17.0203
   8   3 -12 9.41116 8.06498
  -8  -3  12 12.3298 22.8463
   7   3 -12 86.0273 10.1788
  -7  -3  12 101.238 15.3218
   6   3 -12 430.374 32.6908
  -6  -3  12 438.055 30.2825
   5   3 -12 101.852 8.36266
  -5  -3  12 98.9776 10.8890
   4   3 -12 37.2345 6.37734
  -4  -3  12 43.9872 7.73371
   2   3 -12 137.804 13.2574
  -2  -3  12 124.024 13.0171
   1   3 -12 430.526 20.2828
  -1  -3  12 559.523 28.2080
   0  -3  12 228.475 16.5948
  -1   3 -12 12.2118 11.5812
   1  -3  12 13.8423 5.68544
  -2   3 -12 73.5222 13.8153
  -3   3 -12 49.0611 7.93142
  -4   3 -12 46.7360 7.18763
   4  -3  12 60.6536 8.31075
  -5   3 -12 12.8534 7.68258
  -6   3 -12 52.4192 6.43614
   8   2 -12 31.7260 8.52854
   7   2 -12 12.2156 9.63268
  -7  -2  12 9.87001 12.8372
   6   2 -12 34.8146 7.17757
  -6  -2  12 37.9808 11.8768
   5   2 -12 128.773 9.21005
  -5  -2  12 117.036 10.7586
   4   2 -12 1883.71 51.1125
  -4  -2  12 1845.92 86.5531
   3   2 -12 7.94040 6.03254
  -3  -2  12 10.4774 8.00439
   2   2 -12 560.346 20.7471
  -2  -2  12 587.027 28.8232
   1   2 -12 13.1906 9.58948
  -1  -2  12 7.98071 5.11242
   0   2 -12 9.51337 4.67848
  -1   2 -12 879.300 31.2085
   1  -2  12 942.153 42.6660
  -2   2 -12 1022.37 27.5090
  -3   2 -12 82.2061 6.48131
   3  -2  12 98.8642 9.85244
  -4   2 -12 79.4350 5.07529
   4  -2  12 85.1300 8.32985
  -5   2 -12 0.00000 4.96163
  -6   2 -12 2.26615 3.58639
  -7   2 -12 199.927 7.76765
   7   1 -12 70.7130 7.38303
  -7  -1  12 60.0160 13.7492
   6   1 -12 14.8815 8.29850
  -6  -1  12 15.0806 7.23749
   5   1 -12 66.9901 7.01450
  -5  -1  12 82.7095 15.4791
   4   1 -12 587.217 30.2445
  -4  -1  12 592.537 30.7283
   3   1 -12 35.0425 12.0603
  -3  -1  12 20.6251 7.23292
   2   1 -12 1434.66 48.8684
   1   1 -12 48.9978 7.30147
  -1  -1  12 29.8933 6.11360
   0   1 -12 518.140 19.2515
   0  -1  12 494.828 18.0864
  -1   1 -12 268.207 10.8235
   1  -1  12 270.924 15.0472
  -2   1 -12 49.2656 3.33291
   2  -1  12 52.0136 6.23334
  -3   1 -12 106.707 5.61130
   3  -1  12 125.925 9.82789
  -4   1 -12 1077.85 28.9229
   4  -1  12 1119.59 50.9857
  -5   1 -12 17.4349 2.83896
  -6   1 -12 358.161 9.34223
  -7   1 -12 21.4098 4.08383
   7   0 -12 341.301 16.1908
  -7   0  12 333.795 19.1219
   6   0 -12 67.6883 6.61513
  -6   0  12 76.0340 8.70397
   5   0 -12 4.36600 4.64896
  -5   0  12 5.98274 6.30355
   4   0 -12 157.163 8.98952
  -4   0  12 196.797 17.0140
   3   0 -12 30.1268 7.78129
  -3   0  12 19.3219 6.29710
   2   0 -12 2047.33 68.3191
  -2   0  12 2023.24 55.8109
   1   0 -12 333.639 12.5804
  -1   0  12 322.691 10.4057
   0   0 -12 365.929 13.7371
   0   0  12 357.055 13.2996
  -1   0 -12 24.7405 3.42296
   1   0  12 32.7227 3.16130
  -2   0 -12 32.3267 2.62976
   2   0  12 37.1251 3.34053
  -3   0 -12 548.915 13.2269
   3   0  12 551.804 26.9661
  -4   0 -12 195.099 6.03055
  -5   0 -12 7.86106 2.57258
  -6   0 -12 258.723 7.33881
  -7   0 -12 19.9973 3.80373
  -8   0 -12 49.3592 4.82199
   7  -1 -12 9.59530 6.89214
  -7   1  12 0.32584 7.01856
   6  -1 -12 34.9160 14.9555
  -6   1  12 40.7530 9.97455
   5  -1 -12 1069.84 30.3825
  -5   1  12 1088.69 54.5378
   4  -1 -12 13.2995 3.62268
  -4   1  12 24.6234 4.12454
   3  -1 -12 156.518 8.02297
  -3   1  12 180.437 9.38392
   2  -1 -12 70.4897 5.58842
  -2   1  12 65.1073 4.70530
   1  -1 -12 380.641 13.9152
  -1   1  12 370.762 11.3644
   0  -1 -12 2363.85 78.5923
   0   1  12 2340.18 76.7899
  -1  -1 -12 1237.87 34.3166
   1   1  12 1265.37 41.3182
  -2  -1 -12 2.52755 2.11217
   2   1  12 4.43561 2.84867
  -3  -1 -12 474.349 17.2056
   3   1  12 514.228 17.3233
  -4  -1 -12 242.007 6.21912
  -5  -1 -12 47.7147 2.88762
  -6  -1 -12 574.239 12.9898
  -7  -1 -12 87.5421 4.97226
  -8  -1 -12 6.61784 4.29530
   6  -2 -12 56.3059 6.50083
  -6   2  12 44.2021 5.99400
   5  -2 -12 388.870 16.5047
  -5   2  12 366.648 13.3373
   4  -2 -12 4.55733 3.23045
  -4   2  12 3.98336 4.46535
   3  -2 -12 665.641 19.0991
  -3   2  12 669.901 19.5282
   2  -2 -12 38.4505 3.33825
  -2   2  12 46.6476 3.75732
   1  -2 -12 27.0480 3.34425
  -1   2  12 31.4097 3.05265
   0  -2 -12 133.877 6.13702
   0   2  12 129.023 5.18597
  -1  -2 -12 212.497 8.74504
   1   2  12 212.994 8.80189
  -2  -2 -12 862.033 29.4936
   2   2  12 916.345 42.2229
  -3  -2 -12 1516.53 50.7274
   3   2  12 1593.47 72.6873
  -4  -2 -12 157.315 5.90561
   4   2  12 157.822 10.3041
  -5  -2 -12 936.763 19.8729
  -6  -2 -12 18.6872 2.79649
  -7  -2 -12 3.45495 3.28953
  -8  -2 -12 191.306 7.16095
  -9  -2 -12 109.596 6.26815
   6  -3 -12 21.5852 5.00641
  -6   3  12 11.0091 10.6102
   5  -3 -12 143.761 9.77278
  -5   3  12 134.093 12.5974
   4  -3 -12 15.2113 5.94268
  -4   3  12 4.68742 6.73967
   3  -3 -12 1341.83 43.2965
  -3   3  12 1360.43 47.2824
   2  -3 -12 59.8761 3.81885
  -2   3  12 52.8892 4.06285
   1  -3 -12 0.91927 3.11856
  -1   3  12 5.78566 3.34402
   0  -3 -12 18.5011 2.81947
   0   3  12 33.6752 5.90104
  -1  -3 -12 218.205 9.13102
   1   3  12 227.845 13.2831
  -2  -3 -12 593.959 20.7610
   2   3  12 612.240 29.7810
  -3  -3 -12 208.066 8.90265
   3   3  12 206.848 12.6369
  -4  -3 -12 133.862 7.07083
   4   3  12 139.754 10.1052
  -5  -3 -12 111.581 5.17884
   5   3  12 107.304 9.58583
  -6  -3 -12 244.910 6.69536
  -7  -3 -12 185.660 6.16896
  -8  -3 -12 16.0666 3.67673
  -9  -3 -12 1.20954 4.23038
   5  -4 -12 85.9087 7.45711
  -5   4  12 88.6369 9.48182
   4  -4 -12 70.1499 5.78117
  -4   4  12 77.9439 7.65851
   3  -4 -12 90.9703 9.47785
  -3   4  12 109.485 10.9258
   2  -4 -12 66.7195 5.03003
  -2   4  12 68.6685 5.85129
   1  -4 -12 1267.06 41.9256
  -1   4  12 1353.36 45.5446
   0  -4 -12 641.597 18.1374
   0   4  12 662.406 23.2977
  -1  -4 -12 14.6669 2.92810
   1   4  12 17.3362 5.92567
  -2  -4 -12 313.699 9.70216
   2   4  12 320.492 17.6085
  -3  -4 -12 662.061 23.1841
   3   4  12 685.585 33.3675
  -4  -4 -12 76.8517 6.20875
   4   4  12 78.3789 8.85745
  -5  -4 -12 770.548 26.7069
   5   4  12 790.589 38.4600
  -6  -4 -12 384.452 10.4829
   6   4  12 368.055 21.5917
  -7  -4 -12 6.77358 2.93997
  -8  -4 -12 52.3116 3.93583
  -9  -4 -12 7.18721 4.27062
   5  -5 -12 22.5709 7.32897
  -5   5  12 15.5422 11.4439
   4  -5 -12 115.878 7.75046
  -4   5  12 105.463 10.5238
   3  -5 -12 332.614 13.3678
  -3   5  12 315.083 20.5538
   2  -5 -12 50.2944 6.45969
  -2   5  12 44.8044 7.38854
   1  -5 -12 159.650 11.1407
  -1   5  12 160.647 8.77944
   0  -5 -12 36.6957 3.64449
   0   5  12 31.9200 4.20096
  -1  -5 -12 509.482 17.4663
   1   5  12 501.638 18.4157
  -2  -5 -12 1012.40 27.2621
  -3  -5 -12 188.104 7.46727
   3   5  12 203.262 13.3461
  -4  -5 -12 762.650 20.6190
   4   5  12 702.444 40.5492
  -5  -5 -12 3.32410 3.46608
   5   5  12 0.00000 6.13608
  -6  -5 -12 4.26643 4.57194
   6   5  12 5.29863 6.99716
  -7  -5 -12 243.935 8.19600
  -8  -5 -12 300.922 8.47755
  -9  -5 -12 34.9637 4.02668
   4  -6 -12 113.193 11.0786
  -4   6  12 114.246 13.9425
   3  -6 -12 35.4160 5.68544
  -3   6  12 38.9901 7.59643
   2  -6 -12 19.4943 6.30662
  -2   6  12 19.6860 7.91450
   1  -6 -12 169.798 12.0216
  -1   6  12 169.886 12.5391
   0  -6 -12 75.5850 5.18215
   0   6  12 75.0279 8.72824
  -1  -6 -12 177.752 7.32640
   1   6  12 168.748 8.69102
  -2  -6 -12 311.407 10.1748
   2   6  12 324.032 18.7875
  -3  -6 -12 33.1026 3.65764
   3   6  12 32.7622 7.19849
  -4  -6 -12 97.0678 5.44731
   4   6  12 101.144 11.0195
  -5  -6 -12 452.402 13.2624
   5   6  12 416.814 24.4538
  -6  -6 -12 84.8407 6.46589
   6   6  12 78.8328 10.3344
  -7  -6 -12 20.3861 4.43404
  -8  -6 -12 4.62537 2.81217
  -9  -6 -12 11.6588 5.35434
   3  -7 -12 44.4647 7.97385
  -3   7  12 42.0022 11.4556
   2  -7 -12 102.323 8.63395
  -2   7  12 130.857 10.6970
   1  -7 -12 535.574 19.5986
  -1   7  12 543.352 21.6684
   0  -7 -12 4.57197 3.99424
   0   7  12 0.00000 5.61160
  -1  -7 -12 5.33558 3.97076
   1   7  12 5.64399 5.33817
  -2  -7 -12 189.765 7.92980
   2   7  12 186.480 11.8415
  -3  -7 -12 11.7828 3.64593
   3   7  12 6.74198 7.86975
  -4  -7 -12 676.581 35.3047
   4   7  12 680.443 35.2484
  -5  -7 -12 312.985 12.7083
   5   7  12 302.355 23.3759
  -6  -7 -12 8.88280 4.59762
  -7  -7 -12 103.260 7.37647
   7   7  12 91.0788 11.8632
  -8  -7 -12 5.10362 4.26616
  -9  -7 -12 57.6094 8.00971
   1  -8 -12 10.2249 5.91939
  -1   8  12 4.44822 7.08992
   0  -8 -12 19.4248 4.97094
   0   8  12 16.4698 6.34523
  -1  -8 -12 547.484 16.7205
   1   8  12 546.194 22.8942
  -2  -8 -12 46.5524 4.92395
   2   8  12 54.3521 6.97355
  -3  -8 -12 189.439 8.45678
   3   8  12 176.109 8.37874
  -4  -8 -12 17.4598 5.58424
  -5  -8 -12 60.3616 6.25040
   5   8  12 47.3923 11.1920
  -6  -8 -12 151.366 9.17078
   6   8  12 99.1421 13.2283
  -7  -8 -12 234.609 11.3591
   7   8  12 206.478 24.5652
  -8  -8 -12 0.00000 4.67677
   8   8  12 2.76331 6.13599
   9   8  12 16.0028 9.08690
   0  -9 -12 10.0120 8.65651
   0   9  12 14.1046 9.13429
  -1  -9 -12 82.1284 6.64276
   1   9  12 78.1682 8.41951
  -2  -9 -12 2.46013 5.10110
   2   9  12 10.0683 5.76722
  -3  -9 -12 142.499 10.7171
   3   9  12 117.267 10.2250
  -4  -9 -12 133.212 11.8321
   4   9  12 124.000 11.5634
  -5  -9 -12 3.03016 6.81732
   5   9  12 0.00000 5.56158
  -6  -9 -12 24.9705 9.28284
   6   9  12 36.6338 7.50461
  -7  -9 -12 26.8392 12.3929
   7   9  12 15.6149 6.24296
  -8  -9 -12 19.8533 6.31692
   8   9  12 26.2656 7.78680
  -2 -10 -12 43.1350 7.04094
   2  10  12 48.3634 9.64008
  -3 -10 -12 342.697 18.7874
  -4 -10 -12 149.533 13.0748
   4  10  12 120.775 12.5842
  -5 -10 -12 22.2858 15.8161
   5  10  12 0.00000 15.6281
   6  10  12 2.23216 11.8829
  -7 -10 -12 8.27338 15.3595
   4   7 -13 1.49335 7.30232
  -4  -7  13 1.43794 8.32864
   3   7 -13 0.89428 7.22901
  -3  -7  13 4.01653 11.0256
   2   7 -13 3.57233 7.93217
  -2  -7  13 1.38563 20.4796
   1   7 -13 71.1848 7.61895
  -1  -7  13 84.8036 21.8649
   6   6 -13 17.4897 7.11018
  -6  -6  13 7.84331 20.9159
   5   6 -13 9.10611 6.30936
  -5  -6  13 0.00000 9.70474
   4   6 -13 67.2691 6.32660
  -4  -6  13 82.4381 9.07011
   3   6 -13 370.405 14.9634
  -3  -6  13 444.031 29.1922
   2   6 -13 57.4881 6.75073
  -2  -6  13 53.1718 10.1319
   1   6 -13 50.8405 6.96100
  -1  -6  13 59.6664 17.7353
   0   6 -13 21.4303 8.22919
   0  -6  13 0.00000 17.1490
  -1   6 -13 14.1036 8.47170
   1  -6  13 16.9999 19.8564
   2  -6  13 145.157 13.7602
   7   5 -13 52.6810 8.85085
  -7  -5  13 63.8376 12.6467
   6   5 -13 94.6744 7.38214
  -6  -5  13 91.3025 10.8901
   5   5 -13 14.4658 9.32712
  -5  -5  13 25.5015 9.36931
   4   5 -13 324.049 12.5626
  -4  -5  13 373.260 22.3691
   3   5 -13 91.2330 10.3407
  -3  -5  13 79.4083 9.02026
   2   5 -13 0.00000 8.95390
   1   5 -13 286.059 12.1142
   0   5 -13 418.918 15.9310
  -1   5 -13 57.9126 10.4752
  -2   5 -13 91.2255 10.0860
  -3   5 -13 22.5862 9.90980
   3  -5  13 7.31777 20.3047
   7   4 -13 219.023 12.9374
  -7  -4  13 183.029 13.9255
   6   4 -13 18.5050 8.37043
  -6  -4  13 2.14095 8.45818
   5   4 -13 42.5839 9.19019
  -5  -4  13 41.3715 12.5123
   4   4 -13 11.1362 11.8510
   3   4 -13 275.237 23.6604
   2   4 -13 403.130 17.2513
  -2  -4  13 278.181 13.7703
   1   4 -13 623.453 19.0457
   0   4 -13 13.1644 7.62830
   0  -4  13 3.09437 13.7355
  -1   4 -13 10.9591 8.22729
   1  -4  13 22.6642 14.0180
  -2   4 -13 127.642 12.6855
   2  -4  13 149.084 18.5846
  -3   4 -13 0.78065 8.20946
   3  -4  13 4.06624 8.24434
  -4   4 -13 142.931 11.5092
   4  -4  13 188.458 15.5869
   7   3 -13 176.811 14.0601
  -7  -3  13 146.261 13.1454
   6   3 -13 0.28265 6.98968
  -6  -3  13 9.77545 19.7902
   5   3 -13 147.585 9.94136
  -5  -3  13 131.336 12.5142
   4   3 -13 263.584 10.6040
  -4  -3  13 274.526 14.1401
   2   3 -13 271.418 13.0416
  -2  -3  13 263.299 15.0931
   1   3 -13 109.838 12.0781
  -1  -3  13 81.5537 11.3856
   0   3 -13 4.72985 12.6466
  -1   3 -13 244.860 12.7933
   1  -3  13 276.308 18.4143
  -2   3 -13 258.616 13.4718
   2  -3  13 290.490 19.2683
  -3   3 -13 2.92617 6.21315
   3  -3  13 0.00000 16.7930
  -4   3 -13 10.1208 19.2663
   4  -3  13 0.00000 7.98530
  -5   3 -13 11.4110 9.62787
   7   2 -13 329.105 16.6977
  -7  -2  13 325.229 19.6707
   6   2 -13 35.3812 9.81541
  -6  -2  13 34.3933 12.9280
   5   2 -13 737.741 22.3777
  -5  -2  13 689.407 27.5766
   4   2 -13 66.8916 6.89066
  -4  -2  13 66.0997 9.16572
   3   2 -13 16.7011 7.71213
  -3  -2  13 0.00000 8.26130
   2   2 -13 319.778 11.8336
  -2  -2  13 276.401 14.1902
   1   2 -13 2266.11 73.7690
  -1  -2  13 2098.34 71.4946
   0   2 -13 182.761 10.7693
   0  -2  13 180.359 14.8146
  -1   2 -13 162.317 8.65356
  -2   2 -13 97.0132 7.13179
   2  -2  13 119.278 13.8754
  -3   2 -13 51.3884 8.76719
   3  -2  13 73.0914 14.9464
  -4   2 -13 500.877 19.2258
   4  -2  13 558.238 27.1396
  -5   2 -13 15.6866 8.14117
  -6   2 -13 48.8750 6.59721
   7   1 -13 90.8825 13.2371
  -7  -1  13 68.2738 15.0985
   6   1 -13 126.408 11.5180
  -6  -1  13 106.958 12.3664
   5   1 -13 63.5173 9.59543
  -5  -1  13 78.6255 16.6025
   4   1 -13 180.018 8.79833
  -4  -1  13 165.644 14.7156
   3   1 -13 395.589 17.8295
  -3  -1  13 409.710 14.5076
   2   1 -13 708.035 38.5149
   1   1 -13 80.6292 10.6683
  -1  -1  13 79.5861 8.77152
   0  -1  13 49.2911 6.86665
  -1   1 -13 988.582 32.0129
   1  -1  13 773.076 45.0442
  -2   1 -13 36.2232 4.85967
  -3   1 -13 355.268 15.1156
  -4   1 -13 368.318 11.3201
   4  -1  13 334.479 23.6895
  -5   1 -13 5.02428 3.71845
  -6   1 -13 176.289 6.55261
  -7   1 -13 72.8552 4.78893
   7   0 -13 48.9271 8.38480
  -7   0  13 39.6036 10.5671
   6   0 -13 14.6590 10.1502
  -6   0  13 6.87989 10.3446
   5   0 -13 456.734 13.2086
  -5   0  13 459.194 18.8653
   4   0 -13 647.703 32.4361
  -4   0  13 647.484 24.5273
   3   0 -13 142.478 15.4175
  -3   0  13 153.218 8.63262
   2   0 -13 101.283 12.2341
  -2   0  13 86.0764 8.28498
   1   0 -13 51.6592 7.55924
  -1   0  13 40.4536 9.91901
   0   0 -13 196.209 10.1517
   0   0  13 175.978 12.7039
  -1   0 -13 877.352 30.5723
   1   0  13 881.944 29.6778
  -2   0 -13 6.37612 2.95368
   2   0  13 7.19584 2.92138
  -3   0 -13 331.430 9.28234
   3   0  13 331.260 18.1193
  -4   0 -13 61.6993 3.66650
  -5   0 -13 10.9262 2.77822
  -6   0 -13 512.882 12.4196
  -7   0 -13 6.85541 4.24669
  -8   0 -13 2.89176 6.02147
   7  -1 -13 10.0199 8.39069
  -7   1  13 0.00000 27.0684
   6  -1 -13 122.553 8.26240
  -6   1  13 120.148 12.2363
   5  -1 -13 66.4911 6.64695
  -5   1  13 64.1627 8.20837
   4  -1 -13 44.3586 7.28724
  -4   1  13 33.8889 9.15583
   3  -1 -13 498.449 19.4380
  -3   1  13 501.271 28.2097
   2  -1 -13 2257.16 110.037
  -2   1  13 2187.35 75.7367
   1  -1 -13 100.431 6.02502
  -1   1  13 94.0130 5.01346
   0  -1 -13 460.871 16.7070
   0   1  13 442.932 16.5041
  -1  -1 -13 103.949 6.41928
   1   1  13 113.697 6.62517
  -2  -1 -13 42.2418 3.14086
   2   1  13 42.0059 3.88180
  -3  -1 -13 1408.37 47.1442
   3   1  13 1454.09 47.2255
  -4  -1 -13 119.050 4.77708
  -5  -1 -13 8.50159 2.81389
  -6  -1 -13 13.6545 3.12788
  -7  -1 -13 25.8757 4.12459
  -8  -1 -13 283.677 9.05244
   6  -2 -13 53.7803 10.2923
  -6   2  13 58.8580 12.4486
   5  -2 -13 21.1439 9.23687
  -5   2  13 13.4829 8.00451
   4  -2 -13 20.8540 4.27673
  -4   2  13 11.0193 5.10976
   3  -2 -13 668.957 19.3426
  -3   2  13 654.331 20.8175
   2  -2 -13 15.1042 4.50196
  -2   2  13 19.5639 5.10203
   1  -2 -13 40.3405 3.99232
  -1   2  13 43.9668 4.12674
   0  -2 -13 577.770 20.0775
   0   2  13 562.618 16.4324
  -1  -2 -13 32.6321 3.81182
   1   2  13 38.4932 4.86784
  -2  -2 -13 490.710 17.4454
   2   2  13 498.171 17.5228
  -3  -2 -13 360.915 13.5140
   3   2  13 374.141 19.0975
  -4  -2 -13 150.367 5.86833
   4   2  13 133.429 10.1434
  -5  -2 -13 238.888 7.03867
  -6  -2 -13 254.115 7.12467
  -7  -2 -13 2.88533 3.57783
  -8  -2 -13 238.244 8.05825
   6  -3 -13 406.525 14.9663
  -6   3  13 386.768 27.1765
   5  -3 -13 203.590 12.1141
  -5   3  13 194.256 14.5924
   4  -3 -13 17.9084 10.3541
  -4   3  13 24.9307 7.35195
   3  -3 -13 2.74694 4.34910
  -3   3  13 7.21143 4.06624
   2  -3 -13 218.999 8.32672
  -2   3  13 199.783 8.54115
   1  -3 -13 490.841 14.3186
  -1   3  13 494.377 17.9448
   0  -3 -13 704.973 32.8610
   0   3  13 675.352 24.2057
  -1  -3 -13 95.9889 6.07763
   1   3  13 84.0715 8.73967
  -2  -3 -13 282.984 11.2638
   2   3  13 298.798 16.2089
  -3  -3 -13 214.628 9.46363
   3   3  13 246.506 13.7416
  -4  -3 -13 50.4244 5.52673
   4   3  13 58.7008 6.84722
  -5  -3 -13 856.071 29.2188
   5   3  13 856.607 41.8281
  -6  -3 -13 6.73430 2.77138
  -7  -3 -13 5.84408 3.24541
  -8  -3 -13 117.127 6.03209
  -9  -3 -13 49.8146 4.99875
   5  -4 -13 84.9180 8.95259
  -5   4  13 100.164 11.0238
   4  -4 -13 292.059 20.3935
  -4   4  13 328.061 17.1224
   3  -4 -13 804.399 27.7052
  -3   4  13 813.632 31.0565
   2  -4 -13 48.4496 5.54675
  -2   4  13 44.8411 5.47590
   1  -4 -13 949.358 44.4716
  -1   4  13 943.264 33.4637
   0  -4 -13 51.4141 4.11436
   0   4  13 47.4180 4.81275
  -1  -4 -13 212.226 7.62984
   1   4  13 219.429 14.0312
  -2  -4 -13 793.588 28.0990
   2   4  13 837.381 39.9056
  -3  -4 -13 332.232 13.3161
   3   4  13 368.393 19.1164
  -4  -4 -13 29.5067 4.37390
   4   4  13 41.4957 7.03084
  -5  -4 -13 39.9227 4.80293
   5   4  13 41.0203 7.34350
  -6  -4 -13 2.79792 4.57983
   6   4  13 9.03228 7.13081
  -7  -4 -13 376.311 9.48468
  -8  -4 -13 94.7411 5.26545
  -9  -4 -13 2.05890 4.27700
   4  -5 -13 152.258 10.3548
  -4   5  13 141.609 11.5286
   3  -5 -13 86.1672 6.62400
  -3   5  13 78.9396 7.93353
   2  -5 -13 14.4821 6.02445
  -2   5  13 16.0833 5.69386
   1  -5 -13 444.513 24.6762
  -1   5  13 471.849 18.0859
   0  -5 -13 410.734 15.8411
   0   5  13 424.708 16.2067
  -1  -5 -13 519.061 15.0544
   1   5  13 502.617 27.2671
  -2  -5 -13 65.6696 4.93909
   2   5  13 63.4847 8.37966
  -3  -5 -13 37.0872 3.68650
   3   5  13 37.3898 7.05924
  -4  -5 -13 118.269 7.11510
   4   5  13 131.520 11.3925
  -5  -5 -13 910.900 31.1513
   5   5  13 898.365 44.8145
  -6  -5 -13 5.89524 4.94854
   6   5  13 0.00000 7.55966
  -7  -5 -13 322.811 11.6301
  -8  -5 -13 3.17132 3.59851
  -9  -5 -13 6.77583 4.11066
   3  -6 -13 205.465 11.3548
  -3   6  13 191.883 13.4917
   2  -6 -13 87.3962 7.41264
  -2   6  13 90.1360 8.03568
   1  -6 -13 167.399 12.0654
  -1   6  13 153.360 12.3022
   0  -6 -13 364.966 11.9122
   0   6  13 373.230 20.4297
  -1  -6 -13 223.599 8.46259
   1   6  13 218.039 10.1034
  -2  -6 -13 406.061 12.4933
   2   6  13 405.104 22.9516
  -3  -6 -13 197.461 7.75990
   3   6  13 199.645 14.7154
  -4  -6 -13 414.402 12.6617
   4   6  13 411.000 23.4069
  -5  -6 -13 37.7493 3.99946
   5   6  13 43.0056 8.85982
  -6  -6 -13 3.98977 3.73672
   6   6  13 7.53782 8.50009
  -7  -6 -13 421.232 13.2170
  -8  -6 -13 49.6198 3.36035
  -9  -6 -13 183.147 9.19285
   2  -7 -13 437.301 17.2747
  -2   7  13 422.071 19.4001
   1  -7 -13 55.6399 6.30898
  -1   7  13 52.5603 7.09896
   0  -7 -13 11.8778 4.57915
   0   7  13 8.55899 5.95256
  -1  -7 -13 126.644 7.31161
   1   7  13 125.369 10.6597
  -2  -7 -13 462.970 14.1905
  -3  -7 -13 45.1608 4.45009
  -4  -7 -13 1.23575 3.80895
  -5  -7 -13 5.59452 4.13217
  -6  -7 -13 57.8133 4.79469
   6   7  13 53.2887 15.5820
  -7  -7 -13 238.499 11.1765
   7   7  13 218.206 18.7354
  -8  -7 -13 11.3637 4.30823
  -9  -7 -13 14.4767 6.03792
   1  -8 -13 81.3956 9.97385
  -1   8  13 88.5281 11.3452
   0  -8 -13 178.585 10.9869
   0   8  13 179.818 11.7255
  -1  -8 -13 21.1929 4.99456
   1   8  13 7.87555 5.28875
  -2  -8 -13 51.7122 5.28610
   2   8  13 54.2141 7.04154
  -3  -8 -13 50.3880 5.20441
   3   8  13 51.8713 13.0166
  -4  -8 -13 925.909 25.3876
   4   8  13 870.808 46.4527
  -5  -8 -13 12.3667 5.59457
   5   8  13 0.00000 10.4263
  -6  -8 -13 169.937 12.6248
   6   8  13 160.552 17.0444
  -7  -8 -13 7.47344 5.92350
   7   8  13 6.50460 12.4132
  -8  -8 -13 14.0037 5.75648
   8   8  13 10.3931 12.2392
  -1  -9 -13 42.1353 6.26594
   1   9  13 40.0310 7.82142
  -2  -9 -13 70.5243 6.46619
   2   9  13 53.8571 6.81406
  -3  -9 -13 72.1659 6.39399
   3   9  13 81.3384 6.24258
  -4  -9 -13 29.7678 5.46734
   4   9  13 35.9093 11.7610
  -5  -9 -13 0.00000 7.98121
   5   9  13 0.00000 11.2096
  -6  -9 -13 291.427 14.0097
   6   9  13 263.112 22.1774
  -7  -9 -13 20.3062 7.30186
  -8  -9 -13 71.5424 8.29192
  -3 -10 -13 0.00000 7.76964
   3  10  13 15.3336 6.06941
  -4 -10 -13 18.0204 8.05973
   4  10  13 11.9555 14.6046
  -5 -10 -13 0.00000 9.72751
   5  10  13 3.40373 7.00729
  -6 -10 -13 264.805 19.0474
   5   6 -14 66.8875 8.45454
  -5  -6  14 77.3330 10.6967
   4   6 -14 6.21027 5.84749
  -4  -6  14 0.81233 6.37092
   3   6 -14 118.963 7.83323
  -3  -6  14 162.841 16.3502
   2   6 -14 3.30400 6.66682
  -2  -6  14 2.49650 10.1784
   1   6 -14 65.6070 7.74691
  -1  -6  14 73.4771 20.5524
   0   6 -14 40.2631 6.80767
   0  -6  14 42.4848 21.1757
  -1   6 -14 7.55672 16.6667
   1  -6  14 0.00000 22.8631
   6   5 -14 207.178 12.6765
  -6  -5  14 235.520 17.6515
   5   5 -14 49.3656 6.86680
  -5  -5  14 45.3047 7.09264
   4   5 -14 198.609 10.4097
  -4  -5  14 200.995 10.6813
   3   5 -14 144.757 8.75509
  -3  -5  14 151.460 14.7549
   2   5 -14 14.3314 6.59987
  -2  -5  14 3.20128 18.5055
   1   5 -14 747.908 22.5932
   0   5 -14 0.00000 5.77065
   0  -5  14 38.3963 16.1255
  -1   5 -14 5.34659 7.31326
   1  -5  14 0.00000 17.6622
  -2   5 -14 46.2545 9.95043
  -3   5 -14 64.9590 23.2786
   6   4 -14 22.7583 7.88802
  -6  -4  14 19.1696 9.47950
   5   4 -14 67.0305 8.15645
  -5  -4  14 53.8669 9.43583
   4   4 -14 188.993 13.0756
  -4  -4  14 183.802 15.7821
   3   4 -14 2.89954 5.85612
   2   4 -14 42.9504 11.5222
  -2  -4  14 34.8834 4.96017
   1   4 -14 49.1615 6.28617
   0   4 -14 52.5554 8.39830
  -1   4 -14 937.553 27.5728
  -2   4 -14 52.0476 8.54515
  -3   4 -14 7.63068 9.73685
   3  -4  14 23.3443 19.3840
  -4   4 -14 3.53601 9.49941
   4  -4  14 3.16558 20.7491
   7   3 -14 567.112 18.8081
  -7  -3  14 528.507 23.0749
   6   3 -14 441.122 15.6556
  -6  -3  14 434.152 20.3972
   5   3 -14 76.2362 10.4413
  -5  -3  14 71.2857 8.58718
   4   3 -14 252.265 11.3197
  -4  -3  14 265.039 15.2332
   3   3 -14 9.23791 5.43878
  -3  -3  14 6.21640 6.19388
   2   3 -14 217.176 12.8475
  -2  -3  14 177.433 13.0443
   1   3 -14 378.239 16.7293
   0   3 -14 151.667 11.9465
  -1   3 -14 130.746 9.17054
   1  -3  14 119.150 15.4036
  -2   3 -14 51.1782 10.6421
   2  -3  14 16.1122 14.9803
  -3   3 -14 292.204 14.4608
   3  -3  14 389.437 25.9240
  -4   3 -14 130.036 10.2282
   4  -3  14 80.0994 20.3468
  -5   3 -14 13.8385 9.70347
   7   2 -14 66.0495 13.7092
  -7  -2  14 88.4589 17.9025
   6   2 -14 11.1443 8.00824
  -6  -2  14 41.0836 14.5150
   5   2 -14 288.591 13.2192
  -5  -2  14 247.328 15.6234
   4   2 -14 448.976 18.4706
  -4  -2  14 447.329 19.0621
   3   2 -14 158.111 9.22126
  -3  -2  14 181.305 9.51369
   2   2 -14 1310.21 43.4263
  -2  -2  14 1344.99 63.0548
   1   2 -14 19.1335 6.45560
  -1  -2  14 14.8800 6.12584
   0   2 -14 22.9039 8.83390
   0  -2  14 36.5829 12.0156
  -1   2 -14 352.963 14.1584
   1  -2  14 392.528 22.8224
  -2   2 -14 533.942 14.2196
   2  -2  14 582.075 29.4765
  -3   2 -14 330.063 12.3938
   3  -2  14 387.861 23.7500
  -4   2 -14 42.2658 5.56065
   4  -2  14 54.2545 9.10598
  -5   2 -14 33.8865 8.25980
  -6   2 -14 2.87523 7.38904
   7   1 -14 147.626 12.9871
  -7  -1  14 130.208 17.5536
   6   1 -14 20.5205 12.0365
  -6  -1  14 9.04636 13.0402
   5   1 -14 56.5997 7.07497
  -5  -1  14 60.9354 8.93869
   4   1 -14 182.811 9.85918
  -4  -1  14 169.898 10.1667
   3   1 -14 49.1089 11.5254
  -3  -1  14 60.4587 7.23820
   1   1 -14 31.8970 10.0647
  -1  -1  14 19.3860 5.68551
   0   1 -14 991.156 34.4030
   0  -1  14 833.739 32.4355
  -1   1 -14 314.513 20.0428
  -2   1 -14 43.2162 6.10985
   2  -1  14 26.6429 12.3181
  -3   1 -14 62.2565 7.37006
   3  -1  14 79.9388 15.1239
  -4   1 -14 806.275 22.7801
   4  -1  14 843.867 39.3491
  -5   1 -14 41.9320 6.57149
  -6   1 -14 204.505 9.60302
  -7   1 -14 46.2542 5.26956
   6   0 -14 175.915 11.3225
  -6   0  14 168.721 12.8180
   5   0 -14 6.03381 7.28779
  -5   0  14 8.08442 11.4706
   4   0 -14 18.8373 8.17016
  -4   0  14 6.18954 10.3109
   3   0 -14 105.180 8.75635
  -3   0  14 102.669 8.64884
   2   0 -14 1413.01 48.5002
  -2   0  14 1398.22 47.4353
   1   0 -14 88.9641 11.7008
  -1   0  14 67.3726 7.80114
   0   0 -14 165.868 9.30565
   0   0  14 176.607 8.62797
  -1   0 -14 24.3917 10.4175
   1   0  14 5.98836 6.30595
  -2   0 -14 189.858 9.59460
   2   0  14 203.106 8.84084
  -3   0 -14 475.008 17.2476
  -4   0 -14 52.5939 4.31807
  -5   0 -14 30.3212 3.56483
  -6   0 -14 135.617 6.19752
  -7   0 -14 8.58360 4.17048
   6  -1 -14 5.87279 7.66444
  -6   1  14 0.00000 12.0339
   5  -1 -14 333.347 14.5020
  -5   1  14 326.842 17.5610
   4  -1 -14 193.325 9.70814
   3  -1 -14 354.151 12.7425
  -3   1  14 355.910 13.2970
   2  -1 -14 75.8067 7.48947
  -2   1  14 81.2401 6.99453
   1  -1 -14 152.467 14.6312
  -1   1  14 136.582 10.6272
   0  -1 -14 1252.31 62.6213
   0   1  14 1226.51 41.8999
  -1  -1 -14 628.286 31.9871
   1   1  14 597.452 21.9342
  -2  -1 -14 247.418 8.57828
   2   1  14 249.606 10.1465
  -3  -1 -14 268.295 11.4049
   3   1  14 283.236 16.3483
  -4  -1 -14 19.8299 3.61554
  -5  -1 -14 12.2876 3.00777
  -6  -1 -14 264.361 7.81943
  -7  -1 -14 0.56056 4.10050
  -8  -1 -14 5.61063 4.69893
   6  -2 -14 83.4367 9.69387
  -6   2  14 55.9809 25.8868
   5  -2 -14 187.703 12.0474
  -5   2  14 177.011 16.6146
   4  -2 -14 0.00000 5.98561
  -4   2  14 9.44736 7.60249
   3  -2 -14 389.946 16.2950
  -3   2  14 432.200 15.0226
   2  -2 -14 17.8803 8.50247
  -2   2  14 39.9696 6.83062
   1  -2 -14 366.733 14.6940
  -1   2  14 388.822 12.9805
   0  -2 -14 1180.91 59.9468
   0   2  14 1168.25 39.2078
  -1  -2 -14 52.7295 5.82838
   1   2  14 47.6175 5.47654
  -2  -2 -14 282.420 11.9964
   2   2  14 315.108 11.8258
  -3  -2 -14 676.384 23.9952
   3   2  14 717.057 34.2547
  -4  -2 -14 34.0079 4.56409
  -5  -2 -14 988.364 23.8921
  -6  -2 -14 47.6208 3.58018
  -7  -2 -14 33.8366 3.95139
  -8  -2 -14 149.037 6.99705
   5  -3 -14 7.94383 8.27270
  -5   3  14 14.6465 9.64394
   4  -3 -14 27.1775 7.57612
  -4   3  14 37.1797 8.10059
  -3   3  14 904.933 32.3014
   2  -3 -14 29.6795 6.53832
  -2   3  14 33.5828 5.67367
   1  -3 -14 3.70392 3.56751
  -1   3  14 8.67432 4.86326
   0  -3 -14 28.9771 6.16281
   0   3  14 41.2160 3.88799
  -1  -3 -14 12.4957 5.01892
   1   3  14 0.75433 11.1517
  -2  -3 -14 994.553 34.2134
   2   3  14 1063.32 49.1572
  -3  -3 -14 36.7496 4.36515
   3   3  14 54.8359 6.82705
  -4  -3 -14 1.82090 3.93886
   4   3  14 0.00000 5.88168
  -5  -3 -14 32.8597 4.94051
   5   3  14 27.5651 7.04636
  -6  -3 -14 28.4210 3.16638
  -7  -3 -14 333.830 9.09382
  -8  -3 -14 182.645 7.34378
   5  -4 -14 1.80998 11.6177
  -5   4  14 18.2235 11.4654
   4  -4 -14 145.027 10.3775
  -4   4  14 137.382 12.8106
   3  -4 -14 36.5786 8.74087
  -3   4  14 26.4585 7.96921
  -2   4  14 154.506 11.9594
   1  -4 -14 1037.32 47.6495
  -1   4  14 1041.62 37.5552
   0  -4 -14 717.561 24.5633
   0   4  14 749.977 26.2413
  -1  -4 -14 17.6587 3.66616
   1   4  14 17.6326 11.7306
  -2  -4 -14 518.837 18.8335
   2   4  14 531.445 27.1974
  -3  -4 -14 53.5487 5.03388
   3   4  14 63.9141 7.57756
  -4  -4 -14 264.240 11.4251
   4   4  14 277.094 16.4772
  -5  -4 -14 552.454 20.0211
   5   4  14 554.970 33.0219
  -6  -4 -14 123.592 7.01199
   6   4  14 120.873 12.4762
  -7  -4 -14 70.1291 4.17150
  -8  -4 -14 4.70140 4.02873
  -9  -4 -14 6.32995 4.80394
   4  -5 -14 106.572 15.3558
  -4   5  14 128.137 13.5678
   3  -5 -14 45.3432 6.21055
  -3   5  14 48.3723 8.96221
   2  -5 -14 117.630 10.0875
  -2   5  14 106.339 8.76224
   1  -5 -14 384.859 19.8866
  -1   5  14 351.840 20.7407
   0  -5 -14 100.096 6.31239
   0   5  14 100.682 7.03022
  -1  -5 -14 241.560 8.72748
   1   5  14 236.682 16.3160
  -2  -5 -14 617.121 17.6204
   2   5  14 618.912 31.9557
  -3  -5 -14 23.3330 3.66441
   3   5  14 24.6383 7.27405
  -4  -5 -14 1201.22 41.1048
   4   5  14 1262.50 59.3226
  -5  -5 -14 24.1635 5.05878
   5   5  14 17.4547 7.88165
  -6  -5 -14 7.70235 5.32012
   6   5  14 3.16848 8.27966
  -7  -5 -14 146.588 8.11297
  -8  -5 -14 262.330 8.17311
  -9  -5 -14 54.0626 4.92321
   3  -6 -14 65.5875 8.91109
  -3   6  14 48.6073 10.5873
   2  -6 -14 33.5174 5.89088
  -2   6  14 39.0338 7.19024
   1  -6 -14 9.87000 6.49865
  -1   6  14 7.01261 5.36836
   0  -6 -14 45.5560 4.76578
   0   6  14 42.5274 6.28357
  -1  -6 -14 243.497 9.30485
  -2  -6 -14 45.2503 4.37820
   2   6  14 46.6875 8.42776
  -3  -6 -14 41.4457 4.17269
   3   6  14 67.4247 9.60333
  -4  -6 -14 60.2427 4.51621
   4   6  14 71.1829 10.0159
  -5  -6 -14 219.334 9.39835
   5   6  14 207.797 16.1777
  -6  -6 -14 273.708 9.88455
  -7  -6 -14 179.698 8.27442
   7   6  14 123.846 19.4735
  -8  -6 -14 1.87592 3.59524
  -9  -6 -14 1.78638 3.58403
   2  -7 -14 203.543 14.9519
  -2   7  14 187.552 16.8013
   1  -7 -14 334.481 14.8511
  -1   7  14 343.801 16.0561
   0  -7 -14 115.650 8.06579
   0   7  14 117.931 8.48949
  -1  -7 -14 241.459 9.58140
   1   7  14 226.421 11.3550
  -2  -7 -14 38.1531 4.57131
   2   7  14 36.9158 9.78858
  -3  -7 -14 56.1195 4.87438
  -4  -7 -14 435.533 13.6794
  -5  -7 -14 179.372 8.15894
  -6  -7 -14 63.5255 5.42441
   6   7  14 66.7873 11.5917
  -7  -7 -14 18.4495 4.74451
   7   7  14 6.44607 11.0604
  -8  -7 -14 13.2940 4.65217
   1  -8 -14 11.4417 8.88302
  -1   8  14 0.58101 9.13934
   0  -8 -14 3.93538 6.35169
   0   8  14 17.9422 6.87758
  -1  -8 -14 250.751 10.8557
   1   8  14 269.198 13.0871
  -2  -8 -14 5.93452 5.04242
   2   8  14 4.62429 5.04758
  -3  -8 -14 377.941 12.7913
   3   8  14 354.615 23.8848
  -4  -8 -14 12.5154 4.81556
   4   8  14 7.77734 10.3845
  -5  -8 -14 28.2647 5.03991
   5   8  14 28.4944 11.1431
  -6  -8 -14 66.1183 5.69472
   6   8  14 64.3448 12.8993
  -7  -8 -14 276.623 11.0443
   7   8  14 241.622 22.1941
  -8  -8 -14 30.0041 5.76357
   8   8  14 21.3116 13.3364
  -1  -9 -14 174.452 10.6919
   1   9  14 184.787 15.2994
  -2  -9 -14 4.38646 5.97808
   2   9  14 7.36529 6.02440
  -3  -9 -14 60.8077 6.37060
   3   9  14 51.2859 13.0376
  -4  -9 -14 64.5621 6.29798
   4   9  14 75.6386 12.9634
  -5  -9 -14 65.9238 6.53004
   5   9  14 51.6050 13.4293
  -6  -9 -14 161.655 11.1678
   6   9  14 170.523 19.0054
  -7  -9 -14 8.35075 7.00572
   4   6 -15 0.00000 8.19377
  -4  -6  15 0.00000 9.43190
   3   6 -15 118.295 8.33331
   2   6 -15 34.9605 7.80078
  -2  -6  15 32.5348 11.9698
   1   6 -15 57.9707 8.18453
  -1  -6  15 67.2928 11.7414
   0   6 -15 35.2431 9.51785
   0  -6  15 76.7100 24.6044
   5   5 -15 21.3754 6.86478
   4   5 -15 341.256 14.1450
  -4  -5  15 351.771 14.9182
   3   5 -15 21.5066 5.85471
  -3  -5  15 14.7117 9.87481
   2   5 -15 16.3745 6.25160
  -2  -5  15 24.1048 10.0655
   1   5 -15 72.7034 7.40367
  -1  -5  15 73.0922 10.8931
   0   5 -15 9.32332 5.71603
   0  -5  15 22.6779 18.8896
  -1   5 -15 76.7930 7.89577
   1  -5  15 104.950 21.6955
  -2   5 -15 146.137 12.1984
   2  -5  15 175.962 17.8635
   6   4 -15 142.070 9.36221
  -6  -4  15 122.488 16.2614
   5   4 -15 0.14169 5.61822
  -5  -4  15 8.48118 10.1447
   4   4 -15 6.59197 8.64323
  -4  -4  15 4.24901 5.56765
   3   4 -15 12.9295 4.81699
  -3  -4  15 0.00000 6.96586
   2   4 -15 446.785 15.0651
  -2  -4  15 522.359 31.9886
   1   4 -15 457.647 15.3795
  -1  -4  15 505.727 30.8667
   0   4 -15 3.06044 5.71702
  -1   4 -15 6.51620 6.77987
  -2   4 -15 19.8862 8.03993
  -3   4 -15 0.00000 9.34890
   6   3 -15 8.40703 6.34627
  -6  -3  15 13.7353 9.70124
   5   3 -15 65.2759 8.71798
  -5  -3  15 61.6959 9.36746
   4   3 -15 169.347 9.82675
  -4  -3  15 168.214 9.34211
   3   3 -15 3.52936 6.91439
  -3  -3  15 4.58707 6.53073
   2   3 -15 367.037 17.0839
  -2  -3  15 281.332 17.6064
   1   3 -15 19.1209 10.9069
   0   3 -15 59.4151 6.52547
  -1   3 -15 346.537 14.7512
  -2   3 -15 113.115 8.27064
  -3   3 -15 84.2215 9.59854
  -4   3 -15 29.8099 9.72715
   6   2 -15 115.805 8.16668
  -6  -2  15 98.6591 11.1793
   5   2 -15 640.279 26.9185
  -5  -2  15 570.483 18.8157
   4   2 -15 37.9062 9.17368
  -4  -2  15 29.0986 8.05618
   3   2 -15 16.8461 8.74638
  -3  -2  15 10.6459 6.55065
   2   2 -15 120.440 9.25031
  -2  -2  15 102.529 12.2311
   1   2 -15 471.180 24.7018
  -1  -2  15 384.109 21.4827
   0   2 -15 300.283 21.0243
  -1   2 -15 365.171 25.3285
   1  -2  15 407.196 24.4946
  -2   2 -15 4.81605 6.00245
   2  -2  15 0.00000 14.1371
  -3   2 -15 7.84445 6.19332
   3  -2  15 21.7116 17.2058
  -4   2 -15 200.343 10.7631
   4  -2  15 252.257 17.6870
  -5   2 -15 2.90725 8.86064
   6   1 -15 15.1767 8.00619
  -6  -1  15 5.87381 9.99327
   5   1 -15 21.9804 6.10268
  -5  -1  15 16.8066 7.87430
   4   1 -15 97.1830 9.49455
  -4  -1  15 103.085 9.80322
   3   1 -15 871.545 32.3636
  -3  -1  15 914.948 32.4339
   1   1 -15 18.9120 10.6741
  -1  -1  15 14.1857 8.78050
   0   1 -15 122.624 9.17973
   0  -1  15 104.439 9.45801
  -1   1 -15 504.561 27.7891
  -2   1 -15 8.96706 6.40870
  -3   1 -15 657.974 24.5165
   3  -1  15 722.716 36.5499
  -4   1 -15 241.203 9.89121
  -5   1 -15 57.1195 10.7064
  -6   1 -15 5.55761 6.63409
   6   0 -15 2.52889 9.36398
  -6   0  15 6.66420 9.90702
   5   0 -15 65.1092 7.48485
  -5   0  15 79.8967 11.7390
   4   0 -15 109.960 12.0139
  -4   0  15 81.5146 8.07477
   3   0 -15 294.693 18.1770
  -3   0  15 260.810 11.1820
   2   0 -15 17.5094 9.17352
  -2   0  15 19.7629 9.65073
   1   0 -15 198.130 10.9734
  -1   0  15 196.731 10.8929
   0   0 -15 469.832 17.9143
   0   0  15 440.474 23.8307
  -1   0 -15 544.401 20.7580
   1   0  15 536.977 19.9814
  -2   0 -15 318.738 14.3291
   2   0  15 307.512 13.2662
  -3   0 -15 17.0968 4.66038
  -4   0 -15 8.97488 5.81175
  -5   0 -15 58.0418 4.29923
  -6   0 -15 321.777 9.95859
  -7   0 -15 1.28550 4.68674
   6  -1 -15 639.660 19.2119
  -6   1  15 576.645 21.0381
   5  -1 -15 146.889 11.0845
  -5   1  15 138.413 10.9169
   4  -1 -15 23.8826 11.3009
  -4   1  15 67.4253 15.8125
   3  -1 -15 68.5102 11.4950
  -3   1  15 60.3244 7.89607
   2  -1 -15 813.105 29.9614
  -2   1  15 792.908 30.0069
   1  -1 -15 322.925 20.8714
   0  -1 -15 632.439 23.1161
   0   1  15 645.212 22.8878
  -1  -1 -15 136.057 8.89698
   1   1  15 151.402 11.6116
  -2  -1 -15 25.3287 4.40391
   2   1  15 18.2557 9.96076
  -3  -1 -15 614.712 18.1659
   3   1  15 589.311 29.9263
  -4  -1 -15 3.65988 4.23566
  -5  -1 -15 163.174 5.86392
  -6  -1 -15 158.281 6.91947
  -7  -1 -15 2.71062 4.49294
   5  -2 -15 0.00000 13.1725
  -5   2  15 0.03363 12.0112
   4  -2 -15 436.935 14.7551
  -4   2  15 477.349 32.6767
   3  -2 -15 449.121 24.9264
  -3   2  15 456.889 19.0253
   2  -2 -15 5.98885 7.81778
  -2   2  15 9.92356 6.86598
   0  -2 -15 952.505 33.2890
   0   2  15 958.982 47.1494
  -1  -2 -15 39.3916 6.32423
   1   2  15 38.0930 10.2953
  -2  -2 -15 920.835 43.4888
   2   2  15 953.156 32.9941
  -3  -2 -15 893.132 31.0137
   3   2  15 936.128 44.2238
  -4  -2 -15 124.865 8.71766
  -5  -2 -15 52.3338 3.83014
  -6  -2 -15 49.9654 3.95398
  -7  -2 -15 16.6567 4.01492
  -8  -2 -15 159.556 7.53098
   5  -3 -15 128.940 10.7357
  -5   3  15 142.190 24.6431
   4  -3 -15 43.3825 8.73366
  -4   3  15 17.2828 22.5061
   3  -3 -15 71.6326 7.85179
  -3   3  15 71.8490 13.9077
   2  -3 -15 58.6236 12.0372
  -2   3  15 39.5094 9.35865
   1  -3 -15 361.459 21.4520
  -1   3  15 353.749 15.6696
   0  -3 -15 544.795 27.1909
   0   3  15 475.109 26.7203
  -1  -3 -15 67.2761 8.48651
   1   3  15 56.8515 12.1163
  -2  -3 -15 12.5849 4.95157
   2   3  15 4.76910 11.2257
  -3  -3 -15 27.9034 5.44876
   3   3  15 34.1780 6.74923
  -4  -3 -15 182.028 9.85741
   4   3  15 162.650 12.3895
  -5  -3 -15 1069.01 35.7258
   5   3  15 1022.48 51.0062
  -6  -3 -15 7.47153 3.75427
  -7  -3 -15 4.99193 3.74381
  -8  -3 -15 10.1452 4.51421
   4  -4 -15 222.109 13.9427
  -4   4  15 217.650 25.1281
   3  -4 -15 431.105 17.9119
  -3   4  15 461.472 20.4339
   2  -4 -15 56.8429 7.34885
  -2   4  15 71.8429 13.3553
   1  -4 -15 840.929 40.6188
  -1   4  15 803.652 30.3104
   0  -4 -15 15.5804 6.11506
   0   4  15 5.84016 3.65550
  -1  -4 -15 49.5836 4.96901
   1   4  15 53.8019 14.6839
  -2  -4 -15 540.734 27.2007
  -3  -4 -15 161.664 8.61757
   3   4  15 154.561 12.6729
  -4  -4 -15 48.8611 5.30794
   4   4  15 35.1078 9.49971
  -5  -4 -15 192.526 10.9748
   5   4  15 195.810 14.4615
  -6  -4 -15 3.33025 4.62073
   6   4  15 4.80286 8.35489
  -7  -4 -15 229.649 10.2288
  -8  -4 -15 17.4515 4.67306
   3  -5 -15 22.5135 8.90122
  -3   5  15 10.9372 8.45814
   2  -5 -15 8.96116 7.24670
  -2   5  15 18.6518 6.37581
   1  -5 -15 301.750 20.1240
  -1   5  15 279.528 20.9374
   0  -5 -15 78.2215 8.84835
   0   5  15 96.3846 8.45020
  -1  -5 -15 807.831 23.0888
   1   5  15 845.377 41.4728
  -2  -5 -15 464.290 14.3740
   2   5  15 456.567 25.0695
  -3  -5 -15 17.8846 3.79965
   3   5  15 21.9478 8.06651
  -4  -5 -15 67.7795 6.01029
   4   5  15 69.7181 9.54538
  -5  -5 -15 308.328 13.1984
   5   5  15 304.821 19.3991
  -6  -5 -15 11.0210 5.54597
   6   5  15 6.25559 9.17635
  -7  -5 -15 278.572 11.3683
  -8  -5 -15 7.88270 4.89177
   3  -6 -15 50.1160 9.27959
  -3   6  15 53.7323 11.5989
   2  -6 -15 174.322 12.4693
  -2   6  15 182.432 12.2252
   1  -6 -15 119.736 9.60187
  -1   6  15 141.571 10.5528
   0  -6 -15 4.08261 4.97633
   0   6  15 1.24462 5.70249
  -1  -6 -15 91.8478 6.03243
  -2  -6 -15 15.8414 4.62217
  -3  -6 -15 136.678 7.27322
   3   6  15 148.576 13.9428
  -4  -6 -15 392.201 12.5224
   4   6  15 392.012 23.2704
  -5  -6 -15 6.41035 4.22228
   5   6  15 11.8279 10.2370
  -6  -6 -15 4.77992 4.47214
  -7  -6 -15 37.4907 5.30828
   7   6  15 33.7690 11.7487
  -8  -6 -15 10.2022 4.16859
   1  -7 -15 20.7406 6.48161
  -1   7  15 9.47263 6.84879
   0  -7 -15 0.04187 5.62600
   0   7  15 1.98573 5.46802
  -1  -7 -15 167.425 8.78371
   1   7  15 173.517 9.77592
  -2  -7 -15 311.314 11.8486
   2   7  15 318.599 21.2924
  -3  -7 -15 51.8817 5.11548
   3   7  15 76.0963 10.9415
  -4  -7 -15 53.3252 5.06128
   4   7  15 56.4544 11.1842
  -5  -7 -15 12.8170 4.60445
   5   7  15 28.1267 10.2818
  -6  -7 -15 51.0538 5.30607
   6   7  15 62.1890 12.2591
  -7  -7 -15 48.1864 6.75053
   7   7  15 41.7449 12.5036
  -8  -7 -15 5.69808 5.48213
   8   7  15 8.26431 13.4999
   0  -8 -15 461.760 25.7818
   0   8  15 450.865 25.9900
  -1  -8 -15 236.565 10.8309
   1   8  15 208.097 12.1982
  -2  -8 -15 5.03174 5.18893
   2   8  15 23.1795 11.2364
  -3  -8 -15 4.77666 5.09214
   3   8  15 7.09542 11.1403
  -4  -8 -15 269.192 10.8356
   4   8  15 264.201 20.8910
  -5  -8 -15 17.9690 5.20431
   5   8  15 16.3814 12.2511
  -6  -8 -15 237.701 10.4598
   6   8  15 234.091 20.8766
  -7  -8 -15 34.3285 5.79153
   7   8  15 29.4408 13.4423
  -2  -9 -15 45.2564 6.63026
   2   9  15 47.0804 5.84202
  -3  -9 -15 91.0191 7.39499
   3   9  15 78.7592 19.1578
  -4  -9 -15 32.8725 6.44619
   4   9  15 44.6045 13.3872
  -5  -9 -15 5.47501 6.05161
   5   9  15 12.2971 13.5539
  -6  -9 -15 84.4748 7.02252
   4   5 -16 7.04999 6.58463
  -4  -5  16 24.5889 6.02661
   3   5 -16 63.9270 7.18313
  -3  -5  16 82.7084 17.9523
   2   5 -16 51.8978 6.70696
  -2  -5  16 43.0468 11.1228
   1   5 -16 734.207 23.1715
  -1  -5  16 819.682 39.4914
   0   5 -16 20.7078 6.57670
   0  -5  16 0.73333 21.6078
  -1   5 -16 26.9925 9.04099
   1  -5  16 31.4069 24.4420
   5   4 -16 32.3507 9.07854
   4   4 -16 418.835 15.1730
  -4  -4  16 445.014 14.1921
   3   4 -16 12.9793 5.45593
  -3  -4  16 9.61772 4.30943
   2   4 -16 9.91362 5.21824
  -2  -4  16 13.8507 9.19049
   1   4 -16 11.9178 5.98008
  -1  -4  16 15.7009 10.0144
   0   4 -16 14.8299 5.39752
   0  -4  16 31.7075 18.9229
  -1   4 -16 483.741 16.2146
   1  -4  16 602.943 35.1873
  -2   4 -16 64.5718 7.70135
   2  -4  16 128.389 23.7117
  -3   4 -16 54.2284 12.1429
   5   3 -16 178.467 9.98271
  -5  -3  16 185.846 11.1095
   4   3 -16 434.906 14.8773
  -4  -3  16 418.050 18.4459
   3   3 -16 5.97203 6.52622
  -3  -3  16 6.23808 5.54130
   2   3 -16 159.913 12.1879
  -2  -3  16 92.9983 10.7521
   1   3 -16 76.0431 6.31285
  -1  -3  16 93.1097 10.5922
   0   3 -16 27.3348 5.50816
  -1   3 -16 145.423 9.07455
  -2   3 -16 3.74675 7.83430
  -3   3 -16 227.317 11.9535
   3  -3  16 281.857 19.3223
  -4   3 -16 103.782 11.4757
   6   2 -16 101.964 6.92778
  -6  -2  16 112.482 8.57192
   5   2 -16 6.53046 6.88469
  -5  -2  16 0.07541 7.34609
   4   2 -16 239.617 11.6748
  -4  -2  16 226.510 10.7422
   3   2 -16 26.3038 5.13587
  -3  -2  16 24.6835 5.90523
   2   2 -16 1260.03 34.3747
  -2  -2  16 1118.00 58.7911
   1   2 -16 7.44456 6.55857
  -1  -2  16 0.00000 7.84296
   0   2 -16 39.1168 16.0398
  -1   2 -16 8.05781 5.38660
  -2   2 -16 187.671 7.83897
  -3   2 -16 326.741 11.0204
  -4   2 -16 94.1727 8.93421
  -5   2 -16 29.7338 10.2239
   6   1 -16 94.6924 6.80251
  -6  -1  16 96.5580 8.21404
   5   1 -16 341.709 11.7159
  -5  -1  16 321.389 17.0956
   4   1 -16 10.4931 13.0845
  -4  -1  16 19.2230 6.21406
   3   1 -16 9.83953 8.86902
  -3  -1  16 17.8015 11.7015
  -2  -1  16 12.9163 6.75286
   1   1 -16 14.2818 9.36946
  -1  -1  16 11.5245 10.3096
   0   1 -16 1058.70 36.3785
   0  -1  16 918.077 47.7001
  -1   1 -16 129.077 11.4173
  -2   1 -16 41.0221 7.43393
  -3   1 -16 41.7015 7.82388
  -4   1 -16 290.548 11.4334
  -5   1 -16 54.6867 9.49031
  -6   1 -16 145.395 10.9979
   5   0 -16 331.119 11.9377
  -5   0  16 358.538 14.3324
   4   0 -16 0.00000 19.5874
  -4   0  16 9.23171 7.99317
   3   0 -16 12.7703 10.0438
  -3   0  16 21.6674 11.3326
   2   0 -16 205.538 13.3002
  -2   0  16 210.317 13.6598
   1   0 -16 9.36947 8.37833
  -1   0  16 9.31530 11.3017
   0   0 -16 460.184 17.6304
   0   0  16 431.623 23.5095
  -1   0 -16 69.7850 9.17920
   1   0  16 52.2392 9.83088
  -2   0 -16 313.956 14.6548
   2   0  16 325.223 13.6006
  -3   0 -16 188.885 9.18421
  -4   0 -16 42.7091 10.8203
  -5   0 -16 123.264 6.28296
  -6   0 -16 0.47665 7.48038
   5  -1 -16 504.465 16.7544
  -5   1  16 478.097 24.3799
   4  -1 -16 95.6466 7.98886
  -4   1  16 91.7477 12.1114
   3  -1 -16 879.006 42.4479
  -3   1  16 840.293 31.3027
   2  -1 -16 88.1729 9.86566
  -2   1  16 90.8461 8.36618
   0  -1 -16 194.086 9.62404
   0   1  16 169.310 12.5933
  -1  -1 -16 228.112 11.4485
   1   1  16 207.031 14.9003
  -2  -1 -16 464.337 25.9083
  -3  -1 -16 382.355 12.4998
   3   1  16 350.681 20.3220
  -4  -1 -16 53.4656 6.19363
  -5  -1 -16 0.72318 3.58611
  -6  -1 -16 90.9433 6.99979
  -7  -1 -16 32.0663 6.50952
   5  -2 -16 278.896 18.4358
  -5   2  16 277.096 26.9616
   4  -2 -16 20.7407 10.6098
  -4   2  16 36.4191 14.3024
   3  -2 -16 18.0572 10.3074
   2  -2 -16 76.5587 8.72115
  -2   2  16 81.0258 8.39186
   1  -2 -16 607.984 34.1975
  -1   2  16 621.905 33.7306
   0  -2 -16 604.826 22.5455
   0   2  16 639.726 32.5980
  -1  -2 -16 34.5687 6.04363
   1   2  16 40.3130 9.67387
  -2  -2 -16 24.9936 13.1534
   2   2  16 10.3990 11.3490
  -3  -2 -16 271.076 12.9575
   3   2  16 268.053 17.9862
  -4  -2 -16 89.1926 6.43454
  -5  -2 -16 488.927 13.5776
  -6  -2 -16 117.019 7.01547
  -7  -2 -16 21.3494 5.19324
   4  -3 -16 4.75886 9.13391
  -4   3  16 22.8708 25.9717
   3  -3 -16 545.061 22.3692
  -3   3  16 586.657 38.2796
   2  -3 -16 0.00000 8.90699
  -2   3  16 0.00000 10.7108
   1  -3 -16 116.058 14.1891
  -1   3  16 105.593 9.80002
   0  -3 -16 150.482 14.7306
   0   3  16 120.888 10.8546
  -1  -3 -16 46.4298 7.00518
  -2  -3 -16 574.896 21.8607
   2   3  16 593.611 31.0544
  -3  -3 -16 43.1184 6.09075
   3   3  16 50.2731 14.2781
  -4  -3 -16 23.1292 6.20302
   4   3  16 20.4992 13.2790
  -5  -3 -16 11.8807 6.36207
  -6  -3 -16 6.96229 4.23824
  -7  -3 -16 179.425 7.38865
  -8  -3 -16 168.311 7.59216
   4  -4 -16 154.074 20.2521
  -4   4  16 150.440 23.3002
   3  -4 -16 113.346 9.74999
  -3   4  16 154.460 16.1865
   2  -4 -16 54.3588 7.56827
  -2   4  16 61.5255 11.6251
   1  -4 -16 404.207 24.3263
  -1   4  16 414.925 24.0810
   0  -4 -16 90.8602 14.2825
   0   4  16 89.8899 7.11774
  -1  -4 -16 161.722 8.47749
   1   4  16 188.691 18.8019
  -2  -4 -16 591.991 29.7879
   2   4  16 676.239 35.8470
  -3  -4 -16 3.85376 6.30588
   3   4  16 3.57792 7.06393
  -4  -4 -16 45.6018 7.77403
  -5  -4 -16 58.3345 6.15077
   5   4  16 67.7038 16.8763
  -6  -4 -16 3.78776 5.76765
   6   4  16 2.59797 8.70984
  -7  -4 -16 41.2229 4.96134
  -8  -4 -16 14.8676 5.41126
   3  -5 -16 6.61085 14.6418
  -3   5  16 3.73848 20.5290
   2  -5 -16 67.8637 8.44914
  -2   5  16 84.1512 11.1161
   1  -5 -16 483.045 20.5853
  -1   5  16 518.740 22.7616
   0  -5 -16 41.7434 5.62680
   0   5  16 46.3131 5.89823
  -1  -5 -16 28.7904 4.89272
   1   5  16 37.0536 9.12678
  -2  -5 -16 111.015 7.38893
   2   5  16 120.477 17.5300
  -3  -5 -16 17.1708 4.06048
   3   5  16 18.2600 15.9648
  -4  -5 -16 606.827 22.2935
   4   5  16 628.972 32.4431
  -5  -5 -16 28.0994 5.67896
   5   5  16 29.3854 9.78996
  -6  -5 -16 8.88068 5.96910
   6   5  16 8.82848 9.77450
  -7  -5 -16 10.7590 5.80138
  -8  -5 -16 29.9825 5.48692
   2  -6 -16 9.83374 16.0301
  -2   6  16 11.9857 7.97497
   1  -6 -16 36.5017 8.42845
  -1   6  16 42.3365 7.21918
   0  -6 -16 9.71160 5.76073
   0   6  16 14.6569 5.84833
  -1  -6 -16 527.844 16.8056
   1   6  16 547.355 30.4342
  -2  -6 -16 17.8676 5.17077
  -3  -6 -16 0.92875 4.31329
  -4  -6 -16 14.1419 4.38604
  -5  -6 -16 13.8709 4.62988
  -6  -6 -16 393.052 13.1325
   6   6  16 390.445 31.1170
  -7  -6 -16 145.343 8.65031
   7   6  16 121.672 14.5772
  -8  -6 -16 3.89279 5.34138
   1  -7 -16 82.6712 19.3206
  -1   7  16 101.354 12.8944
   0  -7 -16 29.4358 6.68313
   0   7  16 28.9897 6.88943
  -1  -7 -16 332.411 12.4252
   1   7  16 322.776 23.4928
  -2  -7 -16 4.09156 5.26555
   2   7  16 3.46107 11.3803
  -3  -7 -16 43.8652 5.26304
   3   7  16 49.3854 11.8906
  -4  -7 -16 18.0916 4.98258
   4   7  16 19.3936 10.6606
  -5  -7 -16 12.1599 4.90174
   5   7  16 11.9927 10.7449
  -6  -7 -16 93.1389 6.79497
   6   7  16 109.306 14.4096
  -7  -7 -16 6.61895 5.60918
   7   7  16 9.43702 12.8091
  -8  -7 -16 30.9487 7.32366
   8   7  16 13.3824 14.0561
  -1  -8 -16 190.603 10.7927
   1   8  16 218.519 12.9608
  -2  -8 -16 18.3279 6.38922
   2   8  16 30.3525 13.4645
  -3  -8 -16 360.807 13.9970
   3   8  16 358.364 24.8898
  -4  -8 -16 52.4297 6.15047
   4   8  16 44.9536 13.0936
  -5  -8 -16 7.37205 5.60504
   5   8  16 24.4543 12.7884
  -6  -8 -16 30.2365 6.01474
   6   8  16 32.6115 13.3668
  -7  -8 -16 107.572 8.38694
   7   8  16 96.0113 16.5912
  -3  -9 -16 4.55593 6.88315
  -4  -9 -16 7.81380 6.51206
  -5  -9 -16 250.253 11.8252
   2   5 -17 53.0934 7.89652
   1   5 -17 20.6093 6.95451
   4   4 -17 14.7754 6.45718
  -4  -4  17 22.3666 6.42783
   3   4 -17 7.94587 6.15074
  -3  -4  17 3.76701 4.70471
   2   4 -17 75.0727 6.90257
  -2  -4  17 76.6270 11.8459
   1   4 -17 211.686 10.9632
  -1  -4  17 228.742 18.9267
   0   4 -17 10.8028 6.07067
   0  -4  17 36.5121 10.9793
  -1   4 -17 20.5208 6.39749
   1  -4  17 45.3556 23.0463
  -2   4 -17 21.0814 8.62771
   2  -4  17 16.9061 12.2895
   5   3 -17 10.8510 6.23327
  -5  -3  17 1.22336 8.46941
   4   3 -17 64.9550 6.02841
  -4  -3  17 61.7095 8.00491
   3   3 -17 2.62621 7.21043
  -3  -3  17 0.00000 5.83275
   2   3 -17 156.701 11.4849
  -2  -3  17 156.403 9.04006
   1   3 -17 47.0249 6.28162
  -1  -3  17 44.8446 10.2073
   0   3 -17 0.56248 5.03898
   0  -3  17 0.00000 8.95862
  -1   3 -17 104.940 7.21233
   1  -3  17 112.144 19.9789
  -2   3 -17 17.9795 5.73715
   2  -3  17 0.00000 22.1115
  -3   3 -17 24.8310 7.68418
   3  -3  17 28.6013 12.0577
   5   2 -17 699.586 21.1115
  -5  -2  17 638.077 27.7957
   4   2 -17 94.1266 7.37480
  -4  -2  17 86.8418 6.93481
   3   2 -17 55.2113 5.51345
  -3  -2  17 64.4618 6.91344
   2   2 -17 24.8011 4.46624
  -2  -2  17 14.7518 5.40588
   1   2 -17 3.12534 5.72372
  -1  -2  17 0.00000 12.8836
   0   2 -17 147.410 11.4963
   0  -2  17 156.522 14.7239
  -1   2 -17 267.669 10.6453
   1  -2  17 354.113 25.3553
  -2   2 -17 0.00000 6.86270
   2  -2  17 0.00000 18.0760
  -3   2 -17 37.4262 5.03162
   3  -2  17 65.3469 21.2416
  -4   2 -17 32.4162 5.94697
   5   1 -17 61.1765 6.89022
  -5  -1  17 59.3220 7.39136
   4   1 -17 22.2993 8.67215
  -4  -1  17 19.3305 6.81350
   3   1 -17 373.561 14.1849
  -3  -1  17 353.067 13.3082
   2   1 -17 215.248 8.85711
  -2  -1  17 202.121 10.9656
   1   1 -17 0.00000 11.0522
  -1  -1  17 0.00000 11.1389
   0   1 -17 315.097 15.1322
   0  -1  17 223.956 15.4023
  -1   1 -17 2.75449 6.44913
  -2   1 -17 32.1374 5.91968
  -3   1 -17 329.547 12.6552
  -4   1 -17 9.99692 6.09673
  -5   1 -17 21.7222 10.2586
   5   0 -17 87.3224 6.38065
  -5   0  17 75.2941 8.78761
   4   0 -17 65.9638 7.11185
  -4   0  17 59.1887 9.33401
   3   0 -17 463.738 20.4669
  -3   0  17 447.005 16.9988
   2   0 -17 106.229 18.0814
  -2   0  17 100.178 8.03800
   1   0 -17 241.507 12.7447
  -1   0  17 290.650 18.4069
   0   0 -17 208.543 11.9809
   0   0  17 183.179 14.6795
  -1   0 -17 67.7905 10.4046
   1   0  17 56.7722 11.0107
  -2   0 -17 339.087 15.5246
   2   0  17 299.059 17.9833
  -3   0 -17 38.9624 7.97364
  -4   0 -17 4.22362 6.15758
  -5   0 -17 107.692 12.1589
  -6   0 -17 93.0606 9.20279
   5  -1 -17 41.9001 6.96436
  -5   1  17 30.3271 7.24954
   4  -1 -17 15.9703 7.89097
  -4   1  17 34.9996 9.34551
   3  -1 -17 36.2738 9.64994
  -3   1  17 42.4520 11.5242
   2  -1 -17 153.731 12.3914
  -2   1  17 155.696 10.2930
  -1   1  17 305.118 22.0912
   0  -1 -17 409.512 16.5912
   0   1  17 400.864 23.3305
  -1  -1 -17 241.231 12.1543
   1   1  17 213.476 15.9856
  -2  -1 -17 11.4896 10.5666
  -3  -1 -17 108.774 7.33586
   3   1  17 96.5247 11.3357
  -4  -1 -17 128.492 7.84966
  -5  -1 -17 171.761 10.5725
  -6  -1 -17 3.04692 6.60166
   4  -2 -17 190.944 19.0656
  -4   2  17 186.461 15.1565
   3  -2 -17 210.821 11.9487
  -3   2  17 220.166 20.0894
   2  -2 -17 49.6433 8.33967
  -2   2  17 49.7187 10.1606
   1  -2 -17 107.496 14.9221
  -1   2  17 108.033 18.6852
   0  -2 -17 151.344 8.78311
  -1  -2 -17 68.7449 7.10052
   1   2  17 49.2908 10.9808
  -2  -2 -17 627.716 23.4900
  -3  -2 -17 396.771 16.6518
   3   2  17 371.209 22.7130
  -4  -2 -17 142.843 10.4573
  -5  -2 -17 16.8057 6.05022
  -6  -2 -17 2.57252 5.12599
  -7  -2 -17 54.5062 8.39863
   4  -3 -17 175.646 11.7735
  -4   3  17 166.297 18.4194
   3  -3 -17 82.0848 13.5208
  -3   3  17 97.8444 14.6431
   2  -3 -17 212.721 12.8416
  -2   3  17 207.256 15.9263
   1  -3 -17 83.0842 13.2747
  -1   3  17 76.1480 9.63507
   0  -3 -17 63.2988 13.6348
  -1  -3 -17 288.406 18.3857
  -2  -3 -17 9.29872 9.09577
   2   3  17 9.56836 12.4473
  -3  -3 -17 0.00000 6.03254
   3   3  17 32.1693 14.3824
  -4  -3 -17 252.380 13.2637
   4   3  17 217.324 18.0721
  -5  -3 -17 437.687 19.1475
  -6  -3 -17 81.0025 8.28764
  -7  -3 -17 58.9799 6.67884
   3  -4 -17 89.8951 10.3109
  -3   4  17 131.523 19.6457
   2  -4 -17 39.4055 11.1905
  -2   4  17 41.2211 11.4696
   1  -4 -17 226.013 18.0376
  -1   4  17 201.373 16.7350
  -1  -4 -17 26.0667 10.1733
   1   4  17 10.1184 15.6268
  -2  -4 -17 171.424 11.5047
   2   4  17 165.156 16.3847
  -3  -4 -17 26.8821 6.97575
   3   4  17 48.1159 16.6167
  -4  -4 -17 98.5648 11.5568
   4   4  17 103.229 17.5112
  -5  -4 -17 67.2707 8.00892
   5   4  17 97.9699 17.2462
  -6  -4 -17 5.95874 5.25453
   6   4  17 0.00000 9.37334
  -7  -4 -17 87.3891 9.71990
   2  -5 -17 13.7823 8.20227
  -2   5  17 13.2747 10.5676
   1  -5 -17 74.0517 12.4303
  -1   5  17 71.8989 11.4134
   0  -5 -17 35.0980 20.3247
   0   5  17 22.2214 19.8060
  -1  -5 -17 678.817 20.5958
  -2  -5 -17 342.668 13.4700
   2   5  17 340.296 24.3419
  -3  -5 -17 181.655 9.85054
   3   5  17 201.493 20.2103
  -4  -5 -17 23.9596 6.90646
   4   5  17 14.7675 9.57437
  -5  -5 -17 13.8296 7.12712
   5   5  17 0.00000 18.6421
  -6  -5 -17 70.1627 7.64792
   6   5  17 65.7663 14.1809
  -7  -5 -17 391.345 14.5275
   1  -6 -17 0.00000 9.76924
  -1   6  17 6.99995 12.5679
   0  -6 -17 25.7596 9.77094
   0   6  17 28.7875 5.93753
  -1  -6 -17 9.92967 7.06390
   1   6  17 4.92855 10.5961
  -2  -6 -17 5.40221 5.41737
  -3  -6 -17 235.940 10.4243
  -4  -6 -17 339.899 12.4746
  -5  -6 -17 48.1506 5.97528
  -6  -6 -17 29.8421 5.56203
   6   6  17 47.4192 12.8549
  -7  -6 -17 2.32577 5.75718
   7   6  17 0.00000 12.3334
   0  -7 -17 0.00000 20.4010
   0   7  17 0.00000 7.29325
  -1  -7 -17 86.3060 6.72751
   1   7  17 124.679 26.9215
  -2  -7 -17 41.9752 6.40722
   2   7  17 112.568 24.5988
  -3  -7 -17 106.435 7.90718
   3   7  17 140.147 24.5754
  -4  -7 -17 66.9688 6.41250
   4   7  17 84.7885 13.7383
  -5  -7 -17 37.9774 5.79601
   5   7  17 64.8006 12.7669
  -6  -7 -17 155.010 9.34112
   6   7  17 114.685 16.0323
  -7  -7 -17 26.7403 6.27638
   7   7  17 34.7367 14.5014
  -1  -8 -17 58.5240 11.1349
  -2  -8 -17 28.3524 7.35913
   2   8  17 35.0471 18.2361
  -3  -8 -17 6.43387 6.66960
   3   8  17 0.00000 13.1252
  -4  -8 -17 68.7380 6.82641
   4   8  17 87.8671 13.9585
  -5  -8 -17 53.2941 6.57417
   5   8  17 67.6776 14.4384
  -6  -8 -17 237.495 12.0013
   6   8  17 222.268 22.3828
   2   4 -18 63.2066 7.60274
   1   4 -18 3.20916 6.26382
   0   4 -18 8.16095 7.89268
   0  -4  18 0.47884 18.5750
   4   3 -18 201.355 10.9441
  -4  -3  18 243.421 17.7518
   3   3 -18 8.27192 7.88801
  -3  -3  18 15.0584 8.34210
   2   3 -18 33.8957 7.97154
  -2  -3  18 34.8851 10.7197
   1   3 -18 36.5495 6.22870
  -1  -3  18 38.7191 11.2979
   0   3 -18 83.1160 6.91701
   0  -3  18 89.1488 13.0783
  -1   3 -18 60.2786 6.81689
   1  -3  18 65.2360 13.0206
  -2   3 -18 1.08461 6.13031
   2  -3  18 0.00000 25.1409
   4   2 -18 3.83393 6.06903
  -4  -2  18 0.35745 7.77018
   3   2 -18 90.3838 6.52179
  -3  -2  18 95.6487 8.95120
   2   2 -18 788.974 28.8809
  -2  -2  18 758.425 27.4302
   1   2 -18 22.4084 6.70374
  -1  -2  18 8.30117 10.2583
   0   2 -18 5.40377 6.22680
   0  -2  18 6.78097 9.98122
  -1   2 -18 11.1769 5.20436
   1  -2  18 28.1161 20.6285
  -2   2 -18 30.7765 5.90555
   2  -2  18 7.51610 22.0834
  -3   2 -18 74.3498 7.00489
   3  -2  18 132.397 25.6805
   4   1 -18 64.1125 6.92160
  -4  -1  18 64.2605 7.25423
   3   1 -18 93.9206 7.49429
  -3  -1  18 83.1063 7.96864
   2   1 -18 17.0319 4.74053
  -2  -1  18 21.3194 6.09329
   1   1 -18 33.2519 7.70173
  -1  -1  18 31.9298 7.67726
   0   1 -18 986.068 48.9356
   0  -1  18 698.248 25.0808
  -1   1 -18 34.0498 6.37939
   1  -1  18 41.7977 19.1372
  -2   1 -18 107.385 6.07370
  -3   1 -18 277.318 12.4290
  -4   1 -18 13.3018 4.84870
   4   0 -18 4.14100 5.88294
  -4   0  18 14.2693 7.47781
   3   0 -18 60.6531 8.90864
  -3   0  18 64.3809 7.30461
   2   0 -18 12.1189 5.98624
  -2   0  18 12.5118 6.67701
   1   0 -18 27.5297 7.07983
  -1   0  18 22.2648 7.66931
   0   0 -18 171.151 12.7192
   0   0  18 140.515 13.8869
  -1   0 -18 0.00000 11.3704
   1   0  18 0.00000 10.8631
  -2   0 -18 174.111 11.1729
   2   0  18 172.041 10.7894
  -3   0 -18 11.6498 6.37201
  -4   0 -18 28.5740 7.18560
  -5   0 -18 256.227 12.6198
   4  -1 -18 117.846 8.03972
  -4   1  18 129.212 9.71866
   3  -1 -18 720.117 23.3588
  -3   1  18 663.055 25.6226
   2  -1 -18 11.3455 17.9830
  -2   1  18 11.4137 6.28030
   1  -1 -18 0.00000 10.0226
  -1   1  18 9.84025 8.57671
   0  -1 -18 35.0710 9.55351
   0   1  18 34.9773 13.1394
  -1  -1 -18 73.5857 9.82348
   1   1  18 70.7953 12.9546
  -2  -1 -18 381.281 21.3038
  -3  -1 -18 328.423 15.3392
   3   1  18 283.332 19.1166
  -4  -1 -18 105.066 8.19038
  -5  -1 -18 7.03688 4.53688
  -6  -1 -18 36.4412 7.30891
   4  -2 -18 170.940 10.0040
  -4   2  18 174.020 11.5869
   3  -2 -18 9.69370 11.2193
  -3   2  18 5.11717 10.2332
   2  -2 -18 16.8779 9.62419
  -2   2  18 36.7385 14.1448
   1  -2 -18 561.444 22.8536
  -1   2  18 529.185 29.4299
   0  -2 -18 33.3963 8.61671
   0   2  18 40.4234 15.0924
  -1  -2 -18 198.597 10.5544
   1   2  18 142.279 15.5360
  -2  -2 -18 209.120 18.7225
  -3  -2 -18 58.1723 9.96518
   3   2  18 46.2249 12.5520
  -4  -2 -18 252.548 13.0027
  -5  -2 -18 386.970 10.9306
  -6  -2 -18 0.95351 5.44092
   3  -3 -18 126.798 15.7247
  -3   3  18 127.931 12.6042
   2  -3 -18 65.0867 10.3997
  -2   3  18 71.5479 11.8042
   1  -3 -18 61.5929 15.4747
  -1   3  18 56.9061 12.2702
  -1  -3 -18 56.2530 11.6320
   1   3  18 27.5919 11.5083
  -2  -3 -18 65.9669 13.6569
  -4  -3 -18 123.480 11.0044
   4   3  18 125.089 15.1135
  -5  -3 -18 40.3790 11.7226
  -6  -3 -18 1.53974 7.93750
  -7  -3 -18 86.6899 7.62441
   3  -4 -18 49.5661 21.3043
  -3   4  18 56.2535 12.8907
   2  -4 -18 107.709 13.4528
  -2   4  18 118.479 13.4161
   1  -4 -18 38.6711 11.1877
  -1   4  18 37.5787 9.70244
  -1  -4 -18 342.064 16.1993
   1   4  18 349.663 24.4167
  -2  -4 -18 389.158 20.3233
   2   4  18 548.847 30.1199
   3   4  18 22.6820 17.1560
  -4  -4 -18 27.3302 10.8704
   4   4  18 15.3941 16.8680
  -5  -4 -18 43.2877 11.9729
   5   4  18 40.3187 17.3597
  -6  -4 -18 98.7978 11.4505
   6   4  18 102.768 12.4016
  -7  -4 -18 73.4005 10.1419
   2  -5 -18 209.463 20.8776
  -2   5  18 192.445 14.4283
   1  -5 -18 90.0887 12.4949
  -1   5  18 138.404 12.1933
   0  -5 -18 187.745 22.9329
   0   5  18 132.686 9.71798
  -1  -5 -18 34.1773 12.0918
  -2  -5 -18 4.44504 8.76498
  -3  -5 -18 97.9846 10.9222
  -4  -5 -18 485.485 19.8826
   4   5  18 507.398 32.8606
  -5  -5 -18 0.00000 7.61764
  -6  -5 -18 57.0989 8.71518
  -7  -5 -18 5.31289 8.89430
   1  -6 -18 65.6643 17.2695
  -1   6  18 52.6912 14.5152
   0   6  18 18.8543 7.96311
  -1  -6 -18 232.962 13.9091
   1   6  18 286.018 30.1053
  -2  -6 -18 1.96584 10.4220
   2   6  18 10.8152 20.6263
  -3  -6 -18 43.3640 7.40462
   3   6  18 49.4224 20.4268
  -4  -6 -18 11.3436 5.95522
   4   6  18 0.00000 10.6160
  -5  -6 -18 3.72072 6.02490
   5   6  18 0.00000 22.3404
  -6  -6 -18 238.950 10.9552
   6   6  18 292.660 29.2842
  -7  -6 -18 44.3855 7.66831
   7   6  18 48.7809 14.1986
  -1  -7 -18 303.809 14.5953
  -2  -7 -18 12.3970 8.59638
   2   7  18 0.00000 25.5996
  -3  -7 -18 43.5700 6.86216
   3   7  18 27.0178 23.6372
  -4  -7 -18 19.1535 6.44339
   4   7  18 37.8018 25.3429
  -5  -7 -18 23.7639 6.67857
   5   7  18 42.1364 27.8489
  -6  -7 -18 80.1405 6.84582
   6   7  18 134.960 28.7966
  -3  -8 -18 330.234 14.2860
  -4  -8 -18 7.10378 6.67853
  -5  -8 -18 13.1201 9.81367
   5   8  18 24.9705 16.3168
   2   3 -19 59.7560 8.90237
   1   3 -19 7.47182 6.15651
   0   3 -19 3.56220 6.17462
  -1   3 -19 149.880 11.1809
   3   2 -19 150.852 8.84639
  -3  -2  19 148.357 22.2041
   2   2 -19 22.0771 7.77062
  -2  -2  19 19.1919 6.68264
   1   2 -19 10.3509 7.37273
  -1  -2  19 0.00000 10.4943
   0   2 -19 189.968 10.3087
   0  -2  19 222.033 19.0874
  -1   2 -19 147.164 8.91737
   1  -2  19 173.172 18.1870
  -2   2 -19 42.8260 6.74575
   2  -2  19 50.8631 25.1144
   3   1 -19 164.944 9.84316
  -3  -1  19 160.203 11.5013
   2   1 -19 140.758 8.64675
  -2  -1  19 148.600 10.8211
   1   1 -19 210.526 12.7972
  -1  -1  19 229.382 11.6291
   0   1 -19 157.141 11.2730
   0  -1  19 168.374 16.9161
  -1   1 -19 4.46802 5.30204
   1  -1  19 6.92766 10.6155
  -2   1 -19 2.35786 5.01563
   2  -1  19 28.5742 22.3486
  -3   1 -19 157.287 7.50402
  -4   1 -19 9.24858 5.26616
   4  -1  19 0.00000 13.3348
   3   0 -19 205.565 10.5723
  -3   0  19 198.656 10.5009
   2   0 -19 7.28790 6.67689
  -2   0  19 7.72429 6.98771
   1   0 -19 20.5849 6.23496
  -1   0  19 18.0880 8.18326
   0   0 -19 193.018 12.3948
   0   0  19 162.429 11.2567
  -1   0 -19 14.4135 7.76270
   1   0  19 18.2944 5.59268
  -2   0 -19 228.147 12.0074
   2   0  19 168.627 12.7144
  -3   0 -19 105.449 8.45569
  -4   0 -19 13.1901 6.11596
   3  -1 -19 53.2810 9.22826
  -3   1  19 79.5372 8.54973
   2  -1 -19 42.9617 10.0495
  -2   1  19 43.3777 7.84053
   1  -1 -19 332.146 14.8960
  -1   1  19 332.495 15.2070
   0  -1 -19 150.269 13.0047
   0   1  19 132.661 13.0311
  -1  -1 -19 11.9214 11.1279
   1   1  19 7.85473 13.6346
  -2  -1 -19 9.66221 6.31463
   2   1  19 6.40983 12.6755
  -3  -1 -19 3.23908 10.7154
   3   1  19 0.12902 11.9597
  -4  -1 -19 44.7141 7.19748
  -5  -1 -19 123.549 6.53879
   3  -2 -19 63.1675 10.1942
  -3   2  19 68.9599 8.81756
   2  -2 -19 106.710 15.2675
  -2   2  19 111.647 10.4023
   1  -2 -19 441.047 19.4904
  -1   2  19 445.642 18.4746
   0  -2 -19 72.9656 10.4234
   0   2  19 21.1145 16.6590
  -1  -2 -19 51.4976 9.16694
  -2  -2 -19 192.049 20.1373
   2   2  19 164.420 17.8773
  -3  -2 -19 51.5186 15.1441
   3   2  19 48.7833 13.5157
  -4  -2 -19 55.5411 10.7689
  -5  -2 -19 5.90408 6.16159
  -6  -2 -19 4.30988 8.27123
   2  -3 -19 52.5132 18.7532
  -2   3  19 65.7036 13.3658
   1  -3 -19 18.0685 13.3777
  -1   3  19 56.9663 12.4067
   0   3  19 3.84554 19.9779
  -1  -3 -19 586.026 31.7045
   1   3  19 578.885 32.6101
  -2  -3 -19 21.0580 14.0695
   2   3  19 12.3951 15.7163
  -4  -3 -19 42.5180 16.6984
  -5  -3 -19 97.1246 19.0143
  -6  -3 -19 91.3429 9.72329
   2  -4 -19 361.059 25.4183
  -2   4  19 294.559 17.0035
   1  -4 -19 273.957 22.3083
  -1   4  19 288.504 16.0125
   0  -4 -19 39.2882 20.3598
  -1  -4 -19 5.99042 10.1106
  -2  -4 -19 13.9621 9.91195
   2   4  19 1.02309 14.4231
  -3  -4 -19 248.944 22.2353
  -4  -4 -19 80.6084 12.3090
   4   4  19 76.3538 17.6249
  -5  -4 -19 1.59906 11.7370
   5   4  19 13.5697 17.1723
  -6  -4 -19 3.46861 10.9527
   6   4  19 3.44095 10.8688
   1  -5 -19 48.6732 16.3206
  -1   5  19 60.3344 10.2401
   0   5  19 69.1847 24.5301
  -1  -5 -19 277.046 16.2835
   1   5  19 286.333 26.2368
  -2  -5 -19 116.080 8.94081
  -3  -5 -19 102.790 11.3797
  -5  -5 -19 5.51669 12.8587
  -6  -5 -19 98.2684 16.6284
  -1  -6 -19 31.6099 23.4428
   1   6  19 0.00000 27.7364
  -2  -6 -19 31.0375 11.0725
   2   6  19 35.3630 21.6990
  -3  -6 -19 142.675 12.6538
   3   6  19 125.636 21.4657
  -4  -6 -19 206.199 18.4096
  -5  -6 -19 85.5535 8.86686
   5   6  19 98.5094 24.1542
  -6  -6 -19 88.2194 10.0536
   6   6  19 107.171 26.5324
  -2  -7 -19 46.0716 9.35635
  -3  -7 -19 46.2656 8.84066
   3   7  19 19.4793 23.4069
  -4  -7 -19 45.3638 9.57360
   4   7  19 68.7610 27.5041
  -5  -7 -19 2.48972 9.44069
   5   7  19 21.1202 28.6448
   1   2 -20 42.8155 12.7273
   0   2 -20 129.715 11.7097
  -1   2 -20 4.56767 7.94179
   2   1 -20 31.9122 5.99809
  -2  -1  20 46.0843 10.2475
   1   1 -20 6.77520 7.24502
  -1  -1  20 5.20201 7.73395
   0   1 -20 354.076 16.8397
   0  -1  20 380.772 25.5430
  -1   1 -20 6.78077 5.18427
   1  -1  20 4.61332 11.5545
  -2   1 -20 214.937 8.99761
   2  -1  20 256.456 21.9884
   2   0 -20 75.8387 8.78438
  -2   0  20 94.1506 10.1943
   1   0 -20 83.5015 8.96870
  -1   0  20 94.4099 8.27618
   0   0 -20 223.155 12.5014
   0   0  20 172.028 12.0133
  -1   0 -20 17.0859 6.65712
   1   0  20 22.4969 6.09341
  -2   0 -20 123.447 9.61575
   2   0  20 117.607 14.6020
  -3   0 -20 31.5706 5.30598
   2  -1 -20 47.0022 8.06289
  -2   1  20 40.0258 9.57707
   1  -1 -20 95.0142 8.24636
  -1   1  20 99.4421 8.97652
   0  -1 -20 26.5231 6.33693
   0   1  20 23.8822 11.7787
  -1  -1 -20 3.51612 5.63697
   1   1  20 6.27778 8.97864
  -2  -1 -20 339.243 15.1165
   2   1  20 350.433 15.1705
  -3  -1 -20 7.74166 8.60670
   3   1  20 3.47819 12.2722
  -4  -1 -20 9.85598 5.28788
   2  -2 -20 11.5020 8.86694
  -2   2  20 0.26189 9.02297
   1  -2 -20 375.350 16.4158
  -1   2  20 366.604 17.6486
   0  -2 -20 28.7296 8.18035
   0   2  20 23.1821 9.47935
  -1  -2 -20 302.654 24.5984
   1   2  20 271.710 21.3317
  -2  -2 -20 107.183 20.9413
   3   2  20 72.4052 15.4337
  -4  -2 -20 117.383 13.3172
  -5  -2 -20 35.2338 7.19952
   2  -3 -20 135.297 13.8733
  -2   3  20 138.019 10.7976
   1  -3 -20 261.265 26.9894
  -1   3  20 240.319 21.5039
  -1  -3 -20 170.907 20.5048
   1   3  20 174.133 20.3874
  -2  -3 -20 53.5219 18.9611
   2   3  20 62.8203 18.4799
  -3  -3 -20 216.820 22.5672
   3   3  20 191.484 19.9536
  -4  -3 -20 572.701 34.3625
  -5  -3 -20 0.00000 21.9707
   1  -4 -20 0.00000 21.3309
  -1   4  20 11.6876 29.5227
   0   4  20 0.00000 12.1182
  -1  -4 -20 290.914 16.2646
  -2  -4 -20 0.00000 16.1652
  -3  -4 -20 63.3065 18.6253
  -4  -4 -20 72.3467 19.3548
   4   4  20 49.9800 18.4369
  -5  -4 -20 2.99211 12.7508
   5   4  20 26.7127 18.2210
   0   5  20 171.259 18.8327
   1   5  20 24.2567 24.4569
  -2  -5 -20 60.0741 9.99661
   2   5  20 37.4706 15.8700
  -3  -5 -20 146.901 12.4340
  -5  -5 -20 21.4131 17.7292
   1   6  20 72.6001 16.1546
  -2  -6 -20 171.891 15.3403
   2   6  20 194.776 24.6061
  -3  -6 -20 251.349 17.5816
   3   6  20 156.752 24.4199
  -4  -6 -20 0.00000 24.0936
  -5  -6 -20 20.6435 15.4859
   5   6  20 21.9151 24.0248
   1   0 -21 0.00000 10.7153
   0   0 -21 37.3946 8.09346
   0   0  21 30.0304 8.78048
  -1   0 -21 94.2735 8.60540
  -2   0 -21 348.302 13.1266
   1  -1 -21 34.3475 7.58233
  -1   1  21 42.9052 11.5422
   0  -1 -21 27.1625 6.85243
   0   1  21 42.5438 9.84897
  -1  -1 -21 38.8717 6.77938
   1   1  21 47.5244 9.00965
  -2  -1 -21 5.52444 6.23820
   2   1  21 7.32928 8.31891
  -3  -1 -21 0.00000 10.4490
   3   1  21 0.00000 8.54112
   1  -2 -21 319.615 15.3524
   0  -2 -21 4.41148 6.11126
   0   2  21 0.00000 10.4836
  -1  -2 -21 0.00000 9.86093
   1   2  21 9.06741 11.3527
  -2  -2 -21 250.764 19.9537
   2   2  21 230.065 23.3372
  -3  -2 -21 8.21763 10.4659
   3   2  21 0.00000 15.8750
   0  -3 -21 43.0611 10.4679
   0   3  21 17.5693 14.9742
  -1  -3 -21 477.910 32.2335
  -2  -3 -21 0.00000 21.3491
   2   3  21 13.4779 20.4998
  -3  -3 -21 82.8708 11.7571
   3   3  21 81.7126 18.8831
  -4  -3 -21 34.8861 19.8570
   4   3  21 16.5100 17.5123
   0  -4 -21 6.33515 10.1603
   0   4  21 4.84257 14.1817
  -1  -4 -21 84.8442 21.3325
   1   4  21 84.0201 24.1119
  -3  -4 -21 68.3867 23.0523
  -4  -4 -21 276.379 26.1190
   2   5  21 27.0838 21.6802
  -3  -5 -21 443.912 27.4880
   3   5  21 402.240 27.1452
   0   0   0    0.00    0.00   0

;
_shelx_hkl_checksum              29163
loop_
_space_group_symop_operation_xyz
'x, y, z'
'-x, -y, -z'
loop_
_atom_site_type_symbol
_atom_site_label
_atom_site_fract_x
_atom_site_fract_y
_atom_site_fract_z
_atom_site_U_iso_or_equiv
_atom_site_adp_type
_atom_site_calc_flag
_atom_site_refinement_flags_adp
_atom_site_refinement_flags_occupancy
_atom_site_refinement_flags_posn
_atom_site_occupancy
_atom_site_disorder_assembly
_atom_site_disorder_group
Se Se1 0.58664(5) 0.85188(8) 0.30201(3) 0.01735(10) Uani d . P D 0.8674(15) A 1
Se Se1A 0.7294(5) 0.6247(7) 0.2383(3) 0.0157(7) Uani d . P D 0.1326(15) A 2
Cu Cu1 0.21970(5) 0.74592(5) 0.24177(2) 0.01489(8) Uani d . . . 1.0 . .
Cl Cl1 -0.02787(11) 1.06476(11) 0.19842(5) 0.02268(14) Uani d . . . 1.0 . .
Cl Cl2 0.26879(12) 0.41590(11) 0.27431(5) 0.02135(14) Uani d . . . 1.0 . .
N N1 0.2360(4) 0.7582(4) 0.37971(17) 0.0158(4) Uani d . . . 1.0 . .
N N13 0.4035(4) 0.7307(4) 0.11979(17) 0.0158(4) Uani d . . . 1.0 . .
C C2 0.0993(4) 0.7246(4) 0.4513(2) 0.0189(5) Uani d . . . 1.0 . .
H H2 -0.0093 0.6927 0.436 0.023 Uiso calc U . R 1.0 . .
C C3 0.1124(5) 0.7351(4) 0.5461(2) 0.0206(5) Uani d . . . 1.0 . .
H H3 0.0109 0.7162 0.5947 0.025 Uiso calc U . R 1.0 . .
C C4 0.2758(5) 0.7737(4) 0.5690(2) 0.0213(5) Uani d . . . 1.0 . .
H H4 0.2862 0.7847 0.6333 0.026 Uiso calc U . R 1.0 . .
C C5 0.4246(5) 0.7961(4) 0.4962(2) 0.0205(5) Uani d . . . 1.0 . .
H H5 0.5431 0.8137 0.511 0.025 Uiso calc U . R 1.0 . .
C C6 0.3973(4) 0.7924(4) 0.4013(2) 0.0173(5) Uani d . . D 1.0 . .
C C7 0.6847(9) 0.6153(12) 0.2316(5) 0.0157(7) Uani d . P D 0.8674(15) A 1
H H7A 0.8426 0.5455 0.229 0.019 Uiso calc U P R 0.8674(15) A 1
H H7B 0.6308 0.5142 0.2681 0.019 Uiso calc U P R 0.8674(15) A 1
C C7A 0.542(5) 0.868(5) 0.306(2) 0.01735(10) Uani d . P D 0.1326(15) A 2
H H7AA 0.6314 0.9209 0.3296 0.021 Uiso calc U P R 0.1326(15) A 2
H H7AB 0.4433 0.9817 0.2601 0.021 Uiso calc U P R 0.1326(15) A 2
C C8 0.6112(4) 0.6780(4) 0.1293(2) 0.0179(5) Uani d . . D 1.0 . .
C C9 0.7512(5) 0.6783(5) 0.0492(2) 0.0232(6) Uani d . . . 1.0 . .
H H9 0.896 0.6454 0.0572 0.028 Uiso calc U . R 1.0 . .
C C10 0.6778(5) 0.7271(5) -0.0426(2) 0.0237(6) Uani d . . . 1.0 . .
H H10 0.7718 0.7268 -0.0982 0.028 Uiso calc U . R 1.0 . .
C C11 0.4649(5) 0.7764(4) -0.0522(2) 0.0215(5) Uani d . . . 1.0 . .
H H11 0.4112 0.8079 -0.1142 0.026 Uiso calc U . R 1.0 . .
C C12 0.3314(5) 0.7787(4) 0.0313(2) 0.0189(5) Uani d . . . 1.0 . .
H H12 0.1848 0.8155 0.0251 0.023 Uiso calc U . R 1.0 . .
loop_
_atom_site_aniso_label
_atom_site_aniso_U_11
_atom_site_aniso_U_22
_atom_site_aniso_U_33
_atom_site_aniso_U_12
_atom_site_aniso_U_13
_atom_site_aniso_U_23
Se1 0.0197(2) 0.02024(17) 0.01444(15) -0.01150(16) 0.00256(14) -0.00320(11)
Se1A 0.0094(17) 0.0229(8) 0.0151(9) -0.0079(10) -0.0072(10) 0.0027(6)
Cu1 0.01463(14) 0.01539(15) 0.01266(15) -0.00506(11) 0.00160(11) -0.00286(11)
Cl1 0.0180(3) 0.0196(3) 0.0213(3) -0.0016(2) 0.0023(2) -0.0016(2)
Cl2 0.0261(3) 0.0180(3) 0.0215(3) -0.0116(2) 0.0056(2) -0.0061(2)
N1 0.0165(9) 0.0149(9) 0.0142(10) -0.0051(8) 0.0005(8) -0.0034(8)
N13 0.0164(9) 0.0143(9) 0.0149(10) -0.0059(8) 0.0018(8) -0.0020(8)
C2 0.0188(11) 0.0179(12) 0.0179(12) -0.0076(10) 0.0030(9) -0.0020(10)
C3 0.0232(12) 0.0166(11) 0.0166(12) -0.0062(10) 0.0028(10) 0.0000(10)
C4 0.0299(14) 0.0162(12) 0.0152(12) -0.0074(11) -0.0012(10) -0.0027(10)
C5 0.0227(13) 0.0185(12) 0.0212(14) -0.0080(10) -0.0018(10) -0.0062(10)
C6 0.0174(11) 0.0165(11) 0.0171(12) -0.0064(9) 0.0012(9) -0.0044(9)
C7 0.0094(17) 0.0229(8) 0.0151(9) -0.0079(10) -0.0072(10) 0.0027(6)
C7A 0.0197(2) 0.02024(17) 0.01444(15) -0.01150(16) 0.00256(14) -0.00320(11)
C8 0.0161(11) 0.0166(11) 0.0203(13) -0.0062(9) 0.0033(9) -0.0062(10)
C9 0.0196(12) 0.0246(14) 0.0259(15) -0.0098(11) 0.0074(10) -0.0097(12)
C10 0.0277(14) 0.0216(13) 0.0212(14) -0.0117(11) 0.0113(11) -0.0080(11)
C11 0.0282(14) 0.0165(12) 0.0162(13) -0.0070(10) 0.0012(10) -0.0027(10)
C12 0.0200(12) 0.0172(12) 0.0157(12) -0.0053(10) 0.0012(9) -0.0023(9)
loop_
_atom_type_symbol
_atom_type_description
_atom_type_scat_dispersion_real
_atom_type_scat_dispersion_imag
_atom_type_scat_source
C C 0.0015 0.0009 'International Tables Vol C Tables 4.2.6.8 and 6.1.1.4'
Cl Cl 0.0998 0.0984 'International Tables Vol C Tables 4.2.6.8 and 6.1.1.4'
H H 0.0000 0.0000 'International Tables Vol C Tables 4.2.6.8 and 6.1.1.4'
N N 0.0030 0.0019 'International Tables Vol C Tables 4.2.6.8 and 6.1.1.4'
Se Se 0.2367 1.4831 'International Tables Vol C Tables 4.2.6.8 and 6.1.1.4'
Cu Cu 0.3240 0.8257 'International Tables Vol C Tables 4.2.6.8 and 6.1.1.4'
loop_
_geom_angle_atom_site_label_1
_geom_angle_atom_site_label_2
_geom_angle_atom_site_label_3
_geom_angle
C6 Se1 C7 101.9(2)
C8 Se1A C7A 104.9(9)
N13 Cu1 N1 137.76(10)
N13 Cu1 Cl1 96.96(7)
N1 Cu1 Cl1 98.89(7)
N13 Cu1 Cl2 97.68(7)
N1 Cu1 Cl2 93.48(7)
Cl1 Cu1 Cl2 141.84(3)
C6 N1 C2 119.4(2)
C6 N1 Cu1 117.55(19)
C2 N1 Cu1 123.0(2)
C12 N13 C8 119.4(2)
C12 N13 Cu1 124.32(19)
C8 N13 Cu1 116.15(19)
N1 C2 C3 122.1(3)
N1 C2 H2 118.9
C3 C2 H2 118.9
C2 C3 C4 118.9(3)
C2 C3 H3 120.5
C4 C3 H3 120.5
C3 C4 C5 119.0(3)
C3 C4 H4 120.5
C5 C4 H4 120.5
C4 C5 C6 119.1(3)
C4 C5 H5 120.4
C6 C5 H5 120.4
N1 C6 C5 121.2(3)
N1 C6 C7A 116.7(10)
C5 C6 C7A 121.4(10)
N1 C6 Se1 120.8(2)
C5 C6 Se1 117.9(2)
C8 C7 Se1 113.5(4)
C8 C7 H7A 108.9
Se1 C7 H7A 108.9
C8 C7 H7B 108.9
Se1 C7 H7B 108.9
H7A C7 H7B 107.7
C6 C7A Se1A 110.(2)
C6 C7A H7AA 109.8
Se1A C7A H7AA 109.8
C6 C7A H7AB 109.8
Se1A C7A H7AB 109.8
H7AA C7A H7AB 108.2
N13 C8 C9 121.4(3)
N13 C8 C7 116.8(3)
C9 C8 C7 121.8(3)
N13 C8 Se1A 125.6(2)
C9 C8 Se1A 112.8(3)
C10 C9 C8 119.4(3)
C10 C9 H9 120.3
C8 C9 H9 120.3
C9 C10 C11 119.0(3)
C9 C10 H10 120.5
C11 C10 H10 120.5
C10 C11 C12 118.6(3)
C10 C11 H11 120.7
C12 C11 H11 120.7
N13 C12 C11 122.1(3)
N13 C12 H12 119.0
C11 C12 H12 119.0
loop_
_geom_bond_atom_site_label_1
_geom_bond_atom_site_label_2
_geom_bond_distance
Se1 C6 1.905(3)
Se1 C7 1.987(8)
Se1A C8 1.748(5)
Se1A C7A 2.030(17)
Cu1 N13 1.992(2)
Cu1 N1 2.001(2)
Cu1 Cl1 2.2229(8)
Cu1 Cl2 2.2323(8)
N1 C6 1.345(4)
N1 C2 1.350(4)
N13 C12 1.340(4)
N13 C8 1.347(4)
C2 C3 1.381(4)
C2 H2 0.95
C3 C4 1.386(5)
C3 H3 0.95
C4 C5 1.393(4)
C4 H4 0.95
C5 C6 1.395(4)
C5 H5 0.95
C6 C7A 1.71(4)
C7 C8 1.518(7)
C7 H7A 0.99
C7 H7B 0.99
C7A H7AA 0.99
C7A H7AB 0.99
C8 C9 1.388(4)
C9 C10 1.387(5)
C9 H9 0.95
C10 C11 1.388(5)
C10 H10 0.95
C11 C12 1.395(4)
C11 H11 0.95
C12 H12 0.95
loop_
_geom_hbond_atom_site_label_D
_geom_hbond_atom_site_label_H
_geom_hbond_atom_site_label_A
_geom_hbond_site_symmetry_A
_geom_hbond_distance_DH
_geom_hbond_distance_HA
_geom_hbond_distance_DA
_geom_hbond_angle_DHA
C3 H3 Cl2 2_566 0.95 2.84 3.772(3) 168.4
C7 H7A Cl2 1_655 0.99 2.83 3.775(5) 160.8
C7 H7B Cl2 . 0.99 2.90 3.712(5) 139.4
C7A H7AB Cl2 1_565 0.99 2.89 3.55(3) 124.3
C11 H11 Cl1 2_575 0.95 2.78 3.560(3) 139.9
loop_
_geom_torsion_atom_site_label_1
_geom_torsion_atom_site_label_2
_geom_torsion_atom_site_label_3
_geom_torsion_atom_site_label_4
_geom_torsion
N13 Cu1 N1 C6 11.2(3)
Cl1 Cu1 N1 C6 -99.58(19)
Cl2 Cu1 N1 C6 116.64(19)
N13 Cu1 N1 C2 -165.71(19)
Cl1 Cu1 N1 C2 83.5(2)
Cl2 Cu1 N1 C2 -60.3(2)
N1 Cu1 N13 C12 -161.4(2)
Cl1 Cu1 N13 C12 -49.9(2)
Cl2 Cu1 N13 C12 94.7(2)
N1 Cu1 N13 C8 15.2(3)
Cl1 Cu1 N13 C8 126.65(19)
Cl2 Cu1 N13 C8 -88.7(2)
C6 N1 C2 C3 3.6(4)
Cu1 N1 C2 C3 -179.6(2)
N1 C2 C3 C4 -2.5(4)
C2 C3 C4 C5 -1.4(4)
C3 C4 C5 C6 4.1(4)
C2 N1 C6 C5 -0.7(4)
Cu1 N1 C6 C5 -177.8(2)
C2 N1 C6 C7A -171.3(11)
Cu1 N1 C6 C7A 11.6(11)
C2 N1 C6 Se1 -177.4(2)
Cu1 N1 C6 Se1 5.6(3)
C4 C5 C6 N1 -3.1(4)
C4 C5 C6 C7A 167.1(12)
C4 C5 C6 Se1 173.6(2)
C7 Se1 C6 N1 -53.7(3)
C7 Se1 C6 C5 129.6(3)
C6 Se1 C7 C8 113.9(3)
N1 C6 C7A Se1A -72.8(16)
C5 C6 C7A Se1A 116.6(10)
C8 Se1A C7A C6 107.7(14)
C12 N13 C8 C9 1.9(4)
Cu1 N13 C8 C9 -174.8(2)
C12 N13 C8 C7 -177.1(4)
Cu1 N13 C8 C7 6.1(4)
C12 N13 C8 Se1A 176.3(3)
Cu1 N13 C8 Se1A -0.5(4)
Se1 C7 C8 N13 -73.6(4)
Se1 C7 C8 C9 107.3(4)
C7A Se1A C8 N13 -50.8(13)
C7A Se1A C8 C9 124.0(13)
N13 C8 C9 C10 -2.2(4)
C7 C8 C9 C10 176.8(4)
Se1A C8 C9 C10 -177.2(3)
C8 C9 C10 C11 0.6(5)
C9 C10 C11 C12 1.2(4)
C8 N13 C12 C11 -0.1(4)
Cu1 N13 C12 C11 176.4(2)
C10 C11 C12 N13 -1.5(4)
