#------------------------------------------------------------------------------
#$Date: 2019-11-17 13:32:49 +0200 (Sun, 17 Nov 2019) $
#$Revision: 230185 $
#$URL: file:///home/coder/svn-repositories/cod/cif/7/05/70/7057006.cif $
#------------------------------------------------------------------------------
#
# This file is available in the Crystallography Open Database (COD),
# http://www.crystallography.net/
#
# All data on this site have been placed in the public domain by the
# contributors.
#
data_7057006
loop_
_publ_author_name
'Moreno-Alc\'antar, Guillermo'
'Romo-Islas, Guillermo'
'Flores-\'Alamo, Marcos'
'Torrens, Hugo'
_publ_section_title
;
 Aurophilicity vs. thiophilicity: directing the crystalline supramolecular
 arrangement in luminescent gold compounds
;
_journal_issue                   10
_journal_name_full               'New Journal of Chemistry'
_journal_page_first              7845
_journal_paper_doi               10.1039/C7NJ04354F
_journal_volume                  42
_journal_year                    2018
_chemical_formula_moiety         'C38 H26 Au2 F8 P2 S2'
_chemical_formula_sum            'C38 H26 Au2 F8 P2 S2'
_chemical_formula_weight         1154.58
_space_group_IT_number           2
_space_group_name_Hall           '-P 1'
_space_group_name_H-M_alt        'P -1'
_symmetry_cell_setting           triclinic
_symmetry_Int_Tables_number      2
_symmetry_space_group_name_Hall  '-P 1'
_symmetry_space_group_name_H-M   'P -1'
_atom_sites_solution_hydrogens   geom
_audit_conform_dict_location     ftp://ftp.iucr.org/pub/cif_core.dic
_audit_conform_dict_name         cif_core.dic
_audit_conform_dict_version      2.4.3
_audit_creation_date             2017-08-31T17:42:43-00:00
_audit_creation_method           'WinGX routine CIF_UPDATE'
_audit_update_record
;
2017-11-07 deposited with the CCDC.
2018-02-12 downloaded from the CCDC.
;
_cell_angle_alpha                75.894(5)
_cell_angle_beta                 67.698(5)
_cell_angle_gamma                75.461(5)
_cell_formula_units_Z            1
_cell_length_a                   8.9700(5)
_cell_length_b                   10.9988(7)
_cell_length_c                   11.4532(7)
_cell_measurement_reflns_used    4557
_cell_measurement_temperature    130(2)
_cell_measurement_theta_max      29.5083
_cell_measurement_theta_min      3.42
_cell_volume                     997.96(11)
_computing_cell_refinement
;
        CrysAlisPro, Agilent Technologies,
        Version 1.171.36.32 (release 02-08-2013 CrysAlis171 .NET)
        (compiled Aug  2 2013,16:46:58)
;
_computing_data_collection
;
        CrysAlisPro, Agilent Technologies,
        Version 1.171.36.32 (release 02-08-2013 CrysAlis171 .NET)
        (compiled Aug  2 2013,16:46:58)
;
_computing_data_reduction
;
        CrysAlisPro, Agilent Technologies,
        Version 1.171.36.32 (release 02-08-2013 CrysAlis171 .NET)
        (compiled Aug  2 2013,16:46:58)
;
_computing_molecular_graphics
;
          'Ortep-3 for Windows (Farrugia, 1997)'
      L. J. Farrugia, J. Appl. Crystallogr., 1997, 30, 565.
;
_computing_publication_material
;    
        'WinGX publication routines (Farrugia, 1999)'                 
    L. J. Farrugia, J. Appl. Crystallogr., 1999, 32, 837-838.
;
_computing_structure_refinement
;
      'SHELXS-2014 (Sheldrick, 2015)'
      Sheldrick, G. M. (2015). Acta Cryst. C71, 3--8.
;
_computing_structure_solution
;
      'SHELXS-2014 (Sheldrick, 2015)'
      Sheldrick, G. M. (2015). Acta Cryst. A71, 3--8.
;
_diffrn_ambient_temperature      130(2)
_diffrn_detector_area_resol_mean 10.4685
_diffrn_measured_fraction_theta_full 0.998
_diffrn_measured_fraction_theta_max 0.867
_diffrn_measurement_device_type  'Xcalibur, Atlas, Gemini'
_diffrn_measurement_method       '\w scans'
_diffrn_orient_matrix_UB_11      0.0025356
_diffrn_orient_matrix_UB_12      -0.0646878
_diffrn_orient_matrix_UB_13      -0.0011472
_diffrn_orient_matrix_UB_21      0.0843177
_diffrn_orient_matrix_UB_22      -0.0137249
_diffrn_orient_matrix_UB_23      -0.0071801
_diffrn_orient_matrix_UB_31      -0.0205987
_diffrn_orient_matrix_UB_32      -0.0138236
_diffrn_orient_matrix_UB_33      0.0674862
_diffrn_radiation_monochromator  graphite
_diffrn_radiation_type           MoK\a
_diffrn_radiation_wavelength     0.71073
_diffrn_reflns_av_R_equivalents  0.0738
_diffrn_reflns_av_unetI/netI     0.0987
_diffrn_reflns_Laue_measured_fraction_full 0.998
_diffrn_reflns_Laue_measured_fraction_max 0.867
_diffrn_reflns_limit_h_max       12
_diffrn_reflns_limit_h_min       -12
_diffrn_reflns_limit_k_max       15
_diffrn_reflns_limit_k_min       -15
_diffrn_reflns_limit_l_max       15
_diffrn_reflns_limit_l_min       -15
_diffrn_reflns_number            13255
_diffrn_reflns_point_group_measured_fraction_full 0.998
_diffrn_reflns_point_group_measured_fraction_max 0.867
_diffrn_reflns_theta_full        25.242
_diffrn_reflns_theta_max         29.508
_diffrn_reflns_theta_min         3.42
_exptl_absorpt_coefficient_mu    7.59
_exptl_absorpt_correction_T_max  0.789
_exptl_absorpt_correction_T_min  0.083
_exptl_absorpt_correction_type   analytical
_exptl_absorpt_process_details
;
        CrysAlisPro, Agilent Technologies,
        Version 1.171.36.32 (release 02-08-2013 CrysAlis171 .NET)
        (compiled Aug  2 2013,16:46:58)
Analytical numeric absorption correction using a multifaceted crystal
                        model based on expressions derived by R.C. Clark & J.S.
        (Clark, R. C. & Reid, J. S. (1995). Acta Cryst. A51, 887-897)
;
_exptl_crystal_colour            colourless
_exptl_crystal_density_diffrn    1.921
_exptl_crystal_description       plate
_exptl_crystal_F_000             546
_exptl_crystal_size_max          0.57
_exptl_crystal_size_mid          0.2
_exptl_crystal_size_min          0.03
_refine_diff_density_max         2.527
_refine_diff_density_min         -1.377
_refine_diff_density_rms         0.202
_refine_ls_extinction_method     none
_refine_ls_goodness_of_fit_ref   1.04
_refine_ls_hydrogen_treatment    constr
_refine_ls_matrix_type           full
_refine_ls_number_parameters     223
_refine_ls_number_reflns         4826
_refine_ls_number_restraints     15
_refine_ls_restrained_S_all      1.038
_refine_ls_R_factor_all          0.0525
_refine_ls_R_factor_gt           0.0402
_refine_ls_shift/su_max          0.001
_refine_ls_shift/su_mean         0
_refine_ls_structure_factor_coef Fsqd
_refine_ls_weighting_details
'w=1/[\s^2^(Fo^2^)+(0.0272P)^2^] where P=(Fo^2^+2Fc^2^)/3'
_refine_ls_weighting_scheme      calc
_refine_ls_wR_factor_gt          0.0821
_refine_ls_wR_factor_ref         0.0892
_reflns_Friedel_coverage         0
_reflns_number_gt                4049
_reflns_number_total             4826
_reflns_threshold_expression     'I > 2\s(I)'
_cod_data_source_file            c7nj04354f2.cif
_cod_data_source_block           2-gmeauf4-sq
_cod_depositor_comments
'Adding full bibliography for 7057004--7057010.cif.'
_cod_database_code               7057006
_shelx_estimated_absorpt_t_min   0.098
_shelx_estimated_absorpt_t_max   0.804
_shelx_fab_file
;
    0    0    2     19.73      0.00
    0    0    3     -7.57      0.00
    0    0    4    -15.06      0.00
    0    0    5    -11.03      0.00
    0    0    6     -2.93      0.00
    0    0    7      3.75      0.00
    0    0    8      5.11      0.00
    0    0    9      2.06      0.00
    0    0   10     -1.89      0.00
    0    0   11     -3.96      0.00
    0    0   12     -2.93      0.00
    0    0   13     -0.22      0.00
    0    0   14      1.19      0.00
    0   -1   13      1.16      0.00
    0   -1   12      4.30      0.00
    0   -1   11      6.25      0.00
    0   -1   10      4.65      0.00
    0   -1    9     -0.64      0.00
    0   -1    8     -7.45      0.00
    0   -1    7    -11.47      0.00
    0   -1    6     -9.25      0.00
    0   -1    5     -2.00      0.00
    0   -1    4      5.98      0.00
    0   -1    3      7.95      0.00
    0   -1    2     -6.21      0.00
    0    1    2    -19.62      0.00
    0    1    3      7.97      0.00
    0    1    4     20.08      0.00
    0    1    5     19.91      0.00
    0    1    6     12.19      0.00
    0    1    7      2.14      0.00
    0    1    8     -4.26      0.00
    0    1    9     -5.31      0.00
    0    1   10     -3.19      0.00
    0    1   11     -0.56      0.00
    0    1   12      0.45      0.00
    0    1   13     -0.46      0.00
    0    1   14     -1.29      0.00
    0   -2   13     -1.30      0.00
    0   -2   12     -3.63      0.00
    0   -2   11     -5.76      0.00
    0   -2   10     -5.10      0.00
    0   -2    9      0.05      0.00
    0   -2    8      8.64      0.00
    0   -2    7     16.23      0.00
    0   -2    6     17.44      0.00
    0   -2    5     11.13      0.00
    0   -2    4      0.37      0.00
    0   -2    3     -9.85      0.00
    0   -2    2    -10.85      0.00
    0   -2    1      3.23      0.00
    0    2    0     21.68      0.00
    0    2    1     25.57      0.00
    0    2    2     12.25      0.00
    0    2    3     -4.74      0.00
    0    2    4    -15.61      0.00
    0    2    5    -18.52      0.00
    0    2    6    -13.40      0.00
    0    2    7     -3.51      0.00
    0    2    8      4.81      0.00
    0    2    9      8.24      0.00
    0    2   10      7.55      0.00
    0    2   11      4.56      0.00
    0    2   12      1.57      0.00
    0    2   13      0.32      0.00
    0    2   14      0.39      0.00
    0   -3   12      1.15      0.00
    0   -3   11      3.16      0.00
    0   -3   10      4.27      0.00
    0   -3    9      1.42      0.00
    0   -3    8     -6.00      0.00
    0   -3    7    -14.42      0.00
    0   -3    6    -17.98      0.00
    0   -3    5    -13.51      0.00
    0   -3    4     -2.49      0.00
    0   -3    3     11.08      0.00
    0   -3    2     20.13      0.00
    0   -3    1     16.93      0.00
    0    3    0      3.40      0.00
    0    3    1     -8.11      0.00
    0    3    2     -9.64      0.00
    0    3    3     -3.82      0.00
    0    3    4      3.88      0.00
    0    3    5      8.87      0.00
    0    3    6      7.44      0.00
    0    3    7      0.73      0.00
    0    3    8     -5.88      0.00
    0    3    9     -9.03      0.00
    0    3   10     -8.57      0.00
    0    3   11     -5.49      0.00
    0    3   12     -1.83      0.00
    0    3   13      0.30      0.00
    0    3   14      0.69      0.00
    0   -4   12      1.20      0.00
    0   -4   11     -0.12      0.00
    0   -4   10     -2.56      0.00
    0   -4    9     -2.84      0.00
    0   -4    8      1.02      0.00
    0   -4    7      7.52      0.00
    0   -4    6     12.31      0.00
    0   -4    5     11.27      0.00
    0   -4    4      3.34      0.00
    0   -4    3     -9.08      0.00
    0   -4    2    -19.83      0.00
    0   -4    1    -21.05      0.00
    0    4    0    -10.92      0.00
    0    4    1      2.93      0.00
    0    4    2     11.73      0.00
    0    4    3     12.65      0.00
    0    4    4      7.64      0.00
    0    4    5      1.61      0.00
    0    4    6     -0.30      0.00
    0    4    7      2.23      0.00
    0    4    8      5.52      0.00
    0    4    9      7.01      0.00
    0    4   10      6.13      0.00
    0    4   11      3.30      0.00
    0    4   12      0.41      0.00
    0    4   13     -0.79      0.00
    0   -5   11     -1.19      0.00
    0   -5   10      1.31      0.00
    0   -5    9      3.67      0.00
    0   -5    8      3.47      0.00
    0   -5    7      0.21      0.00
    0   -5    6     -4.34      0.00
    0   -5    5     -6.91      0.00
    0   -5    4     -4.53      0.00
    0   -5    3      3.21      0.00
    0   -5    2     12.29      0.00
    0   -5    1     15.55      0.00
    0    5    0      9.41      0.00
    0    5    1     -2.13      0.00
    0    5    2    -12.14      0.00
    0    5    3    -16.19      0.00
    0    5    4    -13.53      0.00
    0    5    5     -7.51      0.00
    0    5    6     -3.10      0.00
    0    5    7     -1.93      0.00
    0    5    8     -2.20      0.00
    0    5    9     -2.37      0.00
    0    5   10     -1.62      0.00
    0    5   11      0.20      0.00
    0    5   12      1.53      0.00
    0    5   13      1.11      0.00
    0   -6   11      0.80      0.00
    0   -6   10     -1.23      0.00
    0   -6    9     -4.28      0.00
    0   -6    8     -6.18      0.00
    0   -6    7     -5.37      0.00
    0   -6    6     -1.87      0.00
    0   -6    5      2.57      0.00
    0   -6    4      5.14      0.00
    0   -6    3      3.46      0.00
    0   -6    2     -1.72      0.00
    0   -6    1     -5.64      0.00
    0    6    0     -4.01      0.00
    0    6    1      2.38      0.00
    0    6    2      9.54      0.00
    0    6    3     13.68      0.00
    0    6    4     12.61      0.00
    0    6    5      7.51      0.00
    0    6    6      2.36      0.00
    0    6    7     -0.50      0.00
    0    6    8     -1.55      0.00
    0    6    9     -1.72      0.00
    0    6   10     -1.85      0.00
    0    6   11     -2.40      0.00
    0    6   12     -2.38      0.00
    0   -7   10      0.79      0.00
    0   -7    9      3.37      0.00
    0   -7    8      5.74      0.00
    0   -7    7      6.01      0.00
    0   -7    6      3.53      0.00
    0   -7    5     -0.77      0.00
    0   -7    4     -5.20      0.00
    0   -7    3     -7.40      0.00
    0   -7    2     -5.79      0.00
    0   -7    1     -2.33      0.00
    0    7    0     -0.85      0.00
    0    7    1     -2.51      0.00
    0    7    2     -5.54      0.00
    0    7    3     -7.64      0.00
    0    7    4     -6.86      0.00
    0    7    5     -3.18      0.00
    0    7    6      0.79      0.00
    0    7    7      2.73      0.00
    0    7    8      2.76      0.00
    0    7    9      1.99      0.00
    0    7   10      1.49      0.00
    0    7   11      1.58      0.00
    0    7   12      1.39      0.00
    0   -8   10      0.26      0.00
    0   -8    9     -0.76      0.00
    0   -8    8     -2.44      0.00
    0   -8    7     -3.24      0.00
    0   -8    6     -1.95      0.00
    0   -8    5      1.11      0.00
    0   -8    4      4.91      0.00
    0   -8    3      7.77      0.00
    0   -8    2      7.50      0.00
    0   -8    1      4.35      0.00
    0    8    0      1.47      0.00
    0    8    1      0.76      0.00
    0    8    2      1.33      0.00
    0    8    3      1.80      0.00
    0    8    4      1.17      0.00
    0    8    5     -1.01      0.00
    0    8    6     -3.44      0.00
    0    8    7     -4.09      0.00
    0    8    8     -2.48      0.00
    0    8    9     -0.02      0.00
    0    8   10      1.35      0.00
    0    8   11      1.06      0.00
    0   -9    9     -0.86      0.00
    0   -9    8     -0.29      0.00
    0   -9    7      0.89      0.00
    0   -9    6      1.01      0.00
    0   -9    5     -0.55      0.00
    0   -9    4     -3.09      0.00
    0   -9    3     -5.28      0.00
    0   -9    2     -5.20      0.00
    0   -9    1     -2.49      0.00
    0    9    0      0.49      0.00
    0    9    1      1.72      0.00
    0    9    2      1.63      0.00
    0    9    3      1.13      0.00
    0    9    4      0.73      0.00
    0    9    5      1.24      0.00
    0    9    6      2.72      0.00
    0    9    7      3.45      0.00
    0    9    8      1.86      0.00
    0    9    9     -1.25      0.00
    0    9   10     -3.26      0.00
    0    9   11     -2.83      0.00
    0  -10    8      0.59      0.00
    0  -10    7     -0.44      0.00
    0  -10    6     -1.27      0.00
    0  -10    5     -0.73      0.00
    0  -10    4      0.68      0.00
    0  -10    3      1.85      0.00
    0  -10    2      1.76      0.00
    0  -10    1      0.08      0.00
    0   10    0     -1.94      0.00
    0   10    1     -2.85      0.00
    0   10    2     -2.57      0.00
    0   10    3     -1.45      0.00
    0   10    4      0.15      0.00
    0   10    5      1.04      0.00
    0   10    6      0.40      0.00
    0   10    7     -0.64      0.00
    0   10    8     -0.19      0.00
    0   10    9      1.76      0.00
    0   10   10      3.11      0.00
    0  -11    7      0.31      0.00
    0  -11    6      0.86      0.00
    0  -11    5      0.56      0.00
    0  -11    4     -0.04      0.00
    0  -11    3     -0.07      0.00
    0  -11    2      0.44      0.00
    0  -11    1      1.22      0.00
    0   11    0      2.00      0.00
    0   11    1      2.34      0.00
    0   11    2      1.85      0.00
    0   11    3      0.33      0.00
    0   11    4     -1.63      0.00
    0   11    5     -2.71      0.00
    0   11    6     -2.33      0.00
    0   11    7     -1.45      0.00
    0   11    8     -1.28      0.00
    0   11    9     -1.70      0.00
    0   11   10     -1.67      0.00
    0  -12    4      0.23      0.00
    0  -12    3     -0.16      0.00
    0  -12    2     -0.80      0.00
    0  -12    1     -0.96      0.00
    0   12    0     -0.77      0.00
    0   12    1     -0.60      0.00
    0   12    2     -0.06      0.00
    0   12    3      1.41      0.00
    0   12    4      3.05      0.00
    0   12    5      3.32      0.00
    0   12    6      2.17      0.00
    0   12    7      1.04      0.00
    0   12    8      0.70      0.00
    0   12    9      0.55      0.00
    0  -13    2      0.57      0.00
    0  -13    1      0.13      0.00
    0   13    0     -0.70      0.00
    0   13    1     -1.22      0.00
    0   13    2     -1.48      0.00
    0   13    3     -2.23      0.00
    0   13    4     -3.17      0.00
    0   13    5     -2.89      0.00
    0   13    6     -1.33      0.00
    0   13    7      0.07      0.00
    0   13    8      0.54      0.00
    0   14    0      0.98      0.00
    0   14    1      1.66      0.00
    0   14    2      1.70      0.00
    0   14    3      1.54      0.00
   -1   14    3      1.18      0.00
   -1   14    2      1.08      0.00
   -1   14    1      1.30      0.00
   -1   13    7     -0.02      0.00
   -1   13    6     -0.19      0.00
   -1   13    4     -1.77      0.00
   -1   13    3     -1.06      0.00
   -1   13    2     -0.23      0.00
   -1   13    1     -0.55      0.00
   -1   13    0     -1.12      0.00
    1  -13    1     -0.74      0.00
   -1   12    8      0.91      0.00
   -1   12    7      0.37      0.00
   -1   12    6      0.38      0.00
   -1   12    5      1.21      0.00
   -1   12    4      1.51      0.00
   -1   12    3      0.29      0.00
   -1   12    2     -1.14      0.00
   -1   12    1     -1.05      0.00
   -1   12    0      0.00      0.00
    1  -12    1      0.43      0.00
    1  -12    2      0.11      0.00
    1  -12    3     -0.05      0.00
    1  -12    4      0.17      0.00
   -1   11    9     -1.02      0.00
   -1   11    8     -0.73      0.00
   -1   11    7     -0.27      0.00
   -1   11    6     -0.38      0.00
   -1   11    5     -0.86      0.00
   -1   11    4     -0.70      0.00
   -1   11    3      0.52      0.00
   -1   11    2      1.78      0.00
   -1   11    1      1.80      0.00
   -1   11    0      0.68      0.00
    1  -11    1     -0.42      0.00
    1  -11    2     -0.69      0.00
    1  -11    3     -0.33      0.00
    1  -11    4      0.02      0.00
    1  -11    5      0.25      0.00
   -1   10    9      0.23      0.00
   -1   10    8     -0.89      0.00
   -1   10    7     -1.28      0.00
   -1   10    6     -0.64      0.00
   -1   10    5      0.10      0.00
   -1   10    4      0.05      0.00
   -1   10    3     -0.74      0.00
   -1   10    2     -1.48      0.00
   -1   10    1     -1.46      0.00
   -1   10    0     -0.34      0.00
    1  -10    1      1.53      0.00
    1  -10    2      2.85      0.00
    1  -10    3      2.51      0.00
    1  -10    4      1.16      0.00
    1  -10    5      0.01      0.00
    1  -10    6     -0.77      0.00
    1  -10    7     -0.97      0.00
    1  -10    8     -0.31      0.00
   -1    9   10     -1.12      0.00
   -1    9    9      0.11      0.00
   -1    9    8      1.94      0.00
   -1    9    7      2.78      0.00
   -1    9    6      2.06      0.00
   -1    9    5      0.55      0.00
   -1    9    4     -0.58      0.00
   -1    9    3     -0.73      0.00
   -1    9    2     -0.24      0.00
   -1    9    1      0.11      0.00
   -1    9    0     -0.60      0.00
    1   -9    1     -2.87      0.00
    1   -9    2     -5.29      0.00
    1   -9    3     -5.48      0.00
    1   -9    4     -3.39      0.00
    1   -9    5     -0.89      0.00
    1   -9    6      1.13      0.00
    1   -9    7      2.24      0.00
    1   -9    8      1.60      0.00
    1   -9    9      0.02      0.00
    1   -9   10     -0.59      0.00
   -1    8   11      0.07      0.00
   -1    8   10      0.43      0.00
   -1    8    9     -0.23      0.00
   -1    8    8     -1.55      0.00
   -1    8    7     -2.29      0.00
   -1    8    6     -1.48      0.00
   -1    8    5      0.94      0.00
   -1    8    4      3.64      0.00
   -1    8    3      4.63      0.00
   -1    8    2      3.51      0.00
   -1    8    1      1.77      0.00
   -1    8    0      1.22      0.00
    1   -8    1      2.86      0.00
    1   -8    2      5.58      0.00
    1   -8    3      6.44      0.00
    1   -8    4      4.35      0.00
    1   -8    5      0.97      0.00
    1   -8    6     -2.36      0.00
    1   -8    7     -4.83      0.00
    1   -8    8     -4.78      0.00
    1   -8    9     -2.24      0.00
    1   -8   10      0.04      0.00
   -1    7   11      1.47      0.00
   -1    7   10      0.87      0.00
   -1    7    9      0.72      0.00
   -1    7    8      0.84      0.00
   -1    7    7      0.42      0.00
   -1    7    6     -1.27      0.00
   -1    7    5     -4.66      0.00
   -1    7    4     -8.37      0.00
   -1    7    3     -9.26      0.00
   -1    7    2     -6.23      0.00
   -1    7    1     -1.72      0.00
   -1    7    0      1.17      0.00
    1   -7    1      0.79      0.00
    1   -7    2     -2.18      0.00
    1   -7    3     -4.64      0.00
    1   -7    4     -4.13      0.00
    1   -7    5     -1.27      0.00
    1   -7    6      2.41      0.00
    1   -7    7      5.72      0.00
    1   -7    8      6.61      0.00
    1   -7    9      4.19      0.00
    1   -7   10      0.86      0.00
    1   -7   11     -0.69      0.00
   -1    6   12     -1.82      0.00
   -1    6   11     -1.32      0.00
   -1    6   10     -0.18      0.00
   -1    6    9      0.38      0.00
   -1    6    8      0.57      0.00
   -1    6    7      1.37      0.00
   -1    6    6      3.35      0.00
   -1    6    5      7.05      0.00
   -1    6    4     11.24      0.00
   -1    6    3     12.07      0.00
   -1    6    2      7.33      0.00
   -1    6    1     -0.46      0.00
   -1    6    0     -6.92      0.00
    1   -6    1     -8.72      0.00
    1   -6    2     -5.08      0.00
    1   -6    3      0.82      0.00
    1   -6    4      4.43      0.00
    1   -6    5      4.14      0.00
    1   -6    6      1.13      0.00
    1   -6    7     -2.74      0.00
    1   -6    8     -4.91      0.00
    1   -6    9     -3.73      0.00
    1   -6   10     -0.68      0.00
    1   -6   11      1.34      0.00
   -1    5   12      0.69      0.00
   -1    5   11     -0.96      0.00
   -1    5   10     -3.04      0.00
   -1    5    9     -3.73      0.00
   -1    5    8     -3.00      0.00
   -1    5    7     -2.03      0.00
   -1    5    6     -2.08      0.00
   -1    5    5     -4.65      0.00
   -1    5    4     -9.29      0.00
   -1    5    3    -11.71      0.00
   -1    5    2     -7.94      0.00
   -1    5    1      1.20      0.00
   -1    5    0     11.22      0.00
    1   -5    1     16.51      0.00
    1   -5    2     13.38      0.00
    1   -5    3      3.99      0.00
    1   -5    4     -5.07      0.00
    1   -5    5     -9.18      0.00
    1   -5    6     -7.83      0.00
    1   -5    7     -2.99      0.00
    1   -5    8      1.62      0.00
    1   -5    9      2.75      0.00
    1   -5   10      0.73      0.00
    1   -5   11     -1.54      0.00
    1   -5   12     -1.98      0.00
   -1    4   12      0.65      0.00
   -1    4   11      3.36      0.00
   -1    4   10      5.96      0.00
   -1    4    9      6.43      0.00
   -1    4    8      4.26      0.00
   -1    4    7      0.38      0.00
   -1    4    6     -3.07      0.00
   -1    4    5     -2.80      0.00
   -1    4    4      2.10      0.00
   -1    4    3      7.38      0.00
   -1    4    2      7.63      0.00
   -1    4    1      1.10      0.00
   -1    4    0     -9.77      0.00
    1   -4    1    -18.50      0.00
    1   -4    2    -17.93      0.00
    1   -4    3     -7.74      0.00
    1   -4    4      4.98      0.00
    1   -4    5     13.50      0.00
    1   -4    6     14.97      0.00
    1   -4    7      9.69      0.00
    1   -4    8      1.87      0.00
    1   -4    9     -2.86      0.00
    1   -4   10     -2.77      0.00
    1   -4   11     -0.52      0.00
    1   -4   12      0.88      0.00
   -1    3   14      0.55      0.00
   -1    3   13      0.54      0.00
   -1    3   12     -1.02      0.00
   -1    3   11     -3.92      0.00
   -1    3   10     -6.39      0.00
   -1    3    9     -6.48      0.00
   -1    3    8     -3.27      0.00
   -1    3    7      2.95      0.00
   -1    3    6      9.71      0.00
   -1    3    5     12.13      0.00
   -1    3    4      7.54      0.00
   -1    3    3     -0.95      0.00
   -1    3    2     -7.89      0.00
   -1    3    1     -8.76      0.00
   -1    3    0     -1.12      0.00
    1   -3    1     10.54      0.00
    1   -3    2     15.48      0.00
    1   -3    3      8.82      0.00
    1   -3    4     -3.51      0.00
    1   -3    5    -13.91      0.00
    1   -3    6    -18.28      0.00
    1   -3    7    -14.60      0.00
    1   -3    8     -5.30      0.00
    1   -3    9      2.78      0.00
    1   -3   10      5.43      0.00
    1   -3   11      4.08      0.00
    1   -3   12      1.88      0.00
    1   -3   13      0.57      0.00
   -1    2   14      0.20      0.00
   -1    2   13     -0.36      0.00
   -1    2   12     -0.04      0.00
   -1    2   11      1.82      0.00
   -1    2   10      4.06      0.00
   -1    2    9      4.61      0.00
   -1    2    8      1.92      0.00
   -1    2    7     -4.63      0.00
   -1    2    6    -13.07      0.00
   -1    2    5    -17.90      0.00
   -1    2    4    -14.37      0.00
   -1    2    3     -2.63      0.00
   -1    2    2     13.63      0.00
   -1    2    1     26.80      0.00
   -1    2    0     26.14      0.00
    1   -2    1     10.42      0.00
    1   -2    2     -5.57      0.00
    1   -2    3     -8.47      0.00
    1   -2    4     -0.92      0.00
    1   -2    5      8.25      0.00
    1   -2    6     14.26      0.00
    1   -2    7     13.88      0.00
    1   -2    8      6.60      0.00
    1   -2    9     -2.11      0.00
    1   -2   10     -6.64      0.00
    1   -2   11     -6.56      0.00
    1   -2   12     -4.16      0.00
    1   -2   13     -1.52      0.00
    1   -2   14     -0.01      0.00
   -1    1   13      0.20      0.00
   -1    1   12      1.95      0.00
   -1    1   11      1.98      0.00
   -1    1   10     -0.10      0.00
   -1    1    9     -2.29      0.00
   -1    1    8     -2.20      0.00
   -1    1    7      1.78      0.00
   -1    1    6      9.20      0.00
   -1    1    5     15.64      0.00
   -1    1    4     14.81      0.00
   -1    1    3      2.64      0.00
   -1    1    2    -20.95      0.00
   -1    1    1    -46.90      0.00
   -1    1    0    -55.70      0.00
    1   -1    1    -36.99      0.00
    1   -1    2     -7.15      0.00
    1   -1    3      9.84      0.00
    1   -1    4      9.92      0.00
    1   -1    5      3.06      0.00
    1   -1    6     -4.11      0.00
    1   -1    7     -7.92      0.00
    1   -1    8     -5.44      0.00
    1   -1    9      0.86      0.00
    1   -1   10      5.48      0.00
    1   -1   11      6.28      0.00
    1   -1   12      4.26      0.00
    1   -1   13      1.37      0.00
    1   -1   14     -0.29      0.00
   -1    0   14      1.01      0.00
   -1    0   13     -0.36      0.00
   -1    0   12     -3.34      0.00
   -1    0   11     -4.82      0.00
   -1    0   10     -2.79      0.00
   -1    0    9      1.38      0.00
   -1    0    8      4.90      0.00
   -1    0    7      5.34      0.00
   -1    0    6      1.19      0.00
   -1    0    5     -5.78      0.00
   -1    0    4     -9.79      0.00
   -1    0    3     -3.84      0.00
   -1    0    2     16.79      0.00
   -1    0    1     46.44      0.00
    1    0    2     13.83      0.00
    1    0    3    -13.17      0.00
    1    0    4    -20.29      0.00
    1    0    5    -15.50      0.00
    1    0    6     -6.78      0.00
    1    0    7      1.56      0.00
    1    0    8      4.86      0.00
    1    0    9      2.48      0.00
    1    0   10     -1.25      0.00
    1    0   11     -2.94      0.00
    1    0   12     -2.14      0.00
    1    0   13     -0.16      0.00
    1    0   14      0.81      0.00
   -1   -1   13      0.84      0.00
   -1   -1   12      3.52      0.00
   -1   -1   11      5.20      0.00
   -1   -1   10      3.26      0.00
   -1   -1    9     -2.12      0.00
   -1   -1    8     -8.50      0.00
   -1   -1    7    -12.86      0.00
   -1   -1    6    -12.14      0.00
   -1   -1    5     -5.46      0.00
   -1   -1    4      3.47      0.00
   -1   -1    3      7.73      0.00
   -1   -1    2      0.08      0.00
   -1   -1    1    -20.52      0.00
    1    1    2    -12.24      0.00
    1    1    3     12.81      0.00
    1    1    4     23.25      0.00
    1    1    5     21.30      0.00
    1    1    6     12.75      0.00
    1    1    7      1.72      0.00
    1    1    8     -6.02      0.00
    1    1    9     -7.34      0.00
    1    1   10     -4.78      0.00
    1    1   11     -1.96      0.00
    1    1   12     -0.66      0.00
    1    1   13     -0.92      0.00
    1    1   14     -1.20      0.00
   -1   -2   12     -2.44      0.00
   -1   -2   11     -3.92      0.00
   -1   -2   10     -3.00      0.00
   -1   -2    9      1.77      0.00
   -1   -2    8      9.03      0.00
   -1   -2    7     15.48      0.00
   -1   -2    6     17.08      0.00
   -1   -2    5     11.40      0.00
   -1   -2    4      0.28      0.00
   -1   -2    3    -11.05      0.00
   -1   -2    2    -15.76      0.00
   -1   -2    1     -8.19      0.00
    1    2    0      7.70      0.00
    1    2    1     16.86      0.00
    1    2    2     10.32      0.00
    1    2    3     -3.86      0.00
    1    2    4    -13.81      0.00
    1    2    5    -15.87      0.00
    1    2    6    -10.78      0.00
    1    2    7     -1.13      0.00
    1    2    8      7.36      0.00
    1    2    9     10.46      0.00
    1    2   10      8.90      0.00
    1    2   11      5.34      0.00
    1    2   12      2.10      0.00
    1    2   13      0.62      0.00
    1    2   14      0.42      0.00
   -1   -3   12      0.55      0.00
   -1   -3   11      1.96      0.00
   -1   -3   10      3.02      0.00
   -1   -3    9      0.94      0.00
   -1   -3    8     -4.81      0.00
   -1   -3    7    -11.44      0.00
   -1   -3    6    -14.76      0.00
   -1   -3    5    -11.43      0.00
   -1   -3    4     -1.53      0.00
   -1   -3    3     11.28      0.00
   -1   -3    2     21.17      0.00
   -1   -3    1     21.25      0.00
    1    3    0      9.31      0.00
    1    3    1     -6.06      0.00
    1    3    2    -13.05      0.00
    1    3    3     -9.42      0.00
    1    3    4     -1.57      0.00
    1    3    5      3.92      0.00
    1    3    6      3.59      0.00
    1    3    7     -1.81      0.00
    1    3    8     -7.58      0.00
    1    3    9     -9.97      0.00
    1    3   10     -8.73      0.00
    1    3   11     -5.20      0.00
    1    3   12     -1.43      0.00
    1    3   13      0.59      0.00
    1    3   14      0.88      0.00
   -1   -4   11     -0.13      0.00
   -1   -4   10     -2.51      0.00
   -1   -4    9     -3.64      0.00
   -1   -4    8     -1.25      0.00
   -1   -4    7      3.75      0.00
   -1   -4    6      8.40      0.00
   -1   -4    5      9.06      0.00
   -1   -4    4      3.38      0.00
   -1   -4    3     -7.28      0.00
   -1   -4    2    -17.63      0.00
   -1   -4    1    -20.42      0.00
    1    4    0    -11.55      0.00
    1    4    1      4.22      0.00
    1    4    2     16.24      0.00
    1    4    3     18.31      0.00
    1    4    4     12.62      0.00
    1    4    5      5.46      0.00
    1    4    6      2.00      0.00
    1    4    7      2.95      0.00
    1    4    8      5.12      0.00
    1    4    9      5.91      0.00
    1    4   10      4.82      0.00
    1    4   11      2.17      0.00
    1    4   12     -0.46      0.00
    1    4   13     -1.32      0.00
   -1   -5   11     -0.61      0.00
   -1   -5   10      1.51      0.00
   -1   -5    9      4.54      0.00
   -1   -5    8      5.66      0.00
   -1   -5    7      3.53      0.00
   -1   -5    6     -1.21      0.00
   -1   -5    5     -5.84      0.00
   -1   -5    4     -6.24      0.00
   -1   -5    3     -0.48      0.00
   -1   -5    2      8.12      0.00
   -1   -5    1     12.52      0.00
    1    5    0      7.65      0.00
    1    5    1     -4.25      0.00
    1    5    2    -15.29      0.00
    1    5    3    -19.24      0.00
    1    5    4    -15.58      0.00
    1    5    5     -8.35      0.00
    1    5    6     -2.57      0.00
    1    5    7     -0.26      0.00
    1    5    8      0.04      0.00
    1    5    9     -0.04      0.00
    1    5   10      0.19      0.00
    1    5   11      1.15      0.00
    1    5   12      1.93      0.00
    1    5   13      1.22      0.00
   -1   -6   10     -0.55      0.00
   -1   -6    9     -3.72      0.00
   -1   -6    8     -6.68      0.00
   -1   -6    7     -7.01      0.00
   -1   -6    6     -3.57      0.00
   -1   -6    5      2.58      0.00
   -1   -6    4      7.70      0.00
   -1   -6    3      7.89      0.00
   -1   -6    2      3.05      0.00
   -1   -6    1     -2.07      0.00
    1    6    0     -2.11      0.00
    1    6    1      3.47      0.00
    1    6    2     10.27      0.00
    1    6    3     13.62      0.00
    1    6    4     11.69      0.00
    1    6    5      5.91      0.00
    1    6    6      0.04      0.00
    1    6    7     -3.19      0.00
    1    6    8     -4.02      0.00
    1    6    9     -3.57      0.00
    1    6   10     -2.63      0.00
    1    6   11     -1.99      0.00
    1    6   12     -1.46      0.00
    1    6   13     -0.33      0.00
   -1   -7   10     -0.44      0.00
   -1   -7    9      1.52      0.00
   -1   -7    8      4.18      0.00
   -1   -7    7      5.37      0.00
   -1   -7    6      3.57      0.00
   -1   -7    5     -1.31      0.00
   -1   -7    4     -7.27      0.00
   -1   -7    3    -10.86      0.00
   -1   -7    2     -9.66      0.00
   -1   -7    1     -5.06      0.00
    1    7    0     -1.46      0.00
    1    7    1     -1.48      0.00
    1    7    2     -3.69      0.00
    1    7    3     -5.22      0.00
    1    7    4     -4.24      0.00
    1    7    5     -0.76      0.00
    1    7    6      3.04      0.00
    1    7    7      4.75      0.00
    1    7    8      4.20      0.00
    1    7    9      2.60      0.00
    1    7   10      0.96      0.00
    1    7   11     -0.06      0.00
    1    7   12     -0.56      0.00
   -1   -8    9      0.72      0.00
   -1   -8    8     -0.53      0.00
   -1   -8    7     -1.69      0.00
   -1   -8    6     -1.35      0.00
   -1   -8    5      1.28      0.00
   -1   -8    4      5.56      0.00
   -1   -8    3      9.22      0.00
   -1   -8    2      9.48      0.00
   -1   -8    1      5.76      0.00
    1    8    0      1.07      0.00
    1    8    1     -1.27      0.00
    1    8    2     -1.24      0.00
    1    8    3     -0.74      0.00
    1    8    4     -1.08      0.00
    1    8    5     -2.63      0.00
    1    8    6     -4.41      0.00
    1    8    7     -4.60      0.00
    1    8    8     -2.58      0.00
    1    8    9      0.37      0.00
    1    8   10      2.47      0.00
    1    8   11      2.79      0.00
    1    8   12      2.05      0.00
   -1   -9    9     -1.30      0.00
   -1   -9    8     -1.24      0.00
   -1   -9    7     -0.17      0.00
   -1   -9    6      0.78      0.00
   -1   -9    5      0.00      0.00
   -1   -9    4     -2.54      0.00
   -1   -9    3     -5.09      0.00
   -1   -9    2     -5.43      0.00
   -1   -9    1     -2.68      0.00
    1    9    0      1.17      0.00
    1    9    1      3.21      0.00
    1    9    2      3.00      0.00
    1    9    3      2.03      0.00
    1    9    4      1.30      0.00
    1    9    5      1.34      0.00
    1    9    6      2.18      0.00
    1    9    7      2.53      0.00
    1    9    8      0.91      0.00
    1    9    9     -2.26      0.00
    1    9   10     -4.59      0.00
    1    9   11     -4.24      0.00
   -1  -10    8      1.08      0.00
   -1  -10    7      0.47      0.00
   -1  -10    6     -0.89      0.00
   -1  -10    5     -1.20      0.00
   -1  -10    4      0.00      0.00
   -1  -10    3      1.25      0.00
   -1  -10    2      1.17      0.00
   -1  -10    1     -0.47      0.00
    1   10    0     -2.53      0.00
    1   10    1     -3.34      0.00
    1   10    2     -2.50      0.00
    1   10    3     -0.87      0.00
    1   10    4      0.86      0.00
    1   10    5      2.03      0.00
    1   10    6      1.82      0.00
    1   10    7      0.81      0.00
    1   10    8      0.83      0.00
    1   10    9      2.57      0.00
    1   10   10      4.26      0.00
    1   10   11      3.77      0.00
   -1  -11    7     -0.78      0.00
   -1  -11    6     -0.04      0.00
   -1  -11    5      0.54      0.00
   -1  -11    4      0.42      0.00
   -1  -11    3      0.49      0.00
   -1  -11    2      1.19      0.00
   -1  -11    1      1.96      0.00
    1   11    0      2.27      0.00
    1   11    1      1.83      0.00
    1   11    2      0.62      0.00
    1   11    3     -1.04      0.00
    1   11    4     -2.78      0.00
    1   11    5     -3.93      0.00
    1   11    6     -3.72      0.00
    1   11    7     -2.40      0.00
    1   11    8     -1.33      0.00
    1   11    9     -1.42      0.00
    1   11   10     -1.98      0.00
   -1  -12    6      0.48      0.00
   -1  -12    5     -0.10      0.00
   -1  -12    4     -0.50      0.00
   -1  -12    3     -0.96      0.00
   -1  -12    2     -1.54      0.00
   -1  -12    1     -1.61      0.00
    1   12    0     -0.93      0.00
    1   12    1      0.17      0.00
    1   12    2      1.45      0.00
    1   12    3      2.83      0.00
    1   12    4      3.99      0.00
    1   12    5      4.20      0.00
    1   12    6      3.06      0.00
    1   12    7      1.22      0.00
    1   12    8     -0.15      0.00
    1   12    9     -0.55      0.00
    1   12   10     -0.33      0.00
   -1  -13    4      1.28      0.00
   -1  -13    3      1.25      0.00
   -1  -13    2      0.95      0.00
   -1  -13    1      0.45      0.00
    1   13    0     -0.26      0.00
    1   13    1     -1.05      0.00
    1   13    2     -1.82      0.00
    1   13    3     -2.61      0.00
    1   13    4     -3.28      0.00
    1   13    5     -3.20      0.00
    1   13    6     -1.84      0.00
    1   13    7      0.12      0.00
    1   13    8      1.40      0.00
    1   13    9      1.54      0.00
   -1  -14    1      0.22      0.00
    1   14    0      0.34      0.00
    1   14    1      0.49      0.00
    1   14    2      0.68      0.00
    1   14    3      0.73      0.00
    1   14    4      0.91      0.00
    1   14    5      1.22      0.00
    1   15    3      0.21      0.00
   -2   13    3     -0.34      0.00
   -2   13    2      0.40      0.00
   -2   13    1      0.39      0.00
   -2   13    0     -0.37      0.00
   -2   12    7     -0.29      0.00
   -2   12    6     -0.01      0.00
   -2   12    5      0.79      0.00
   -2   12    4      1.32      0.00
   -2   12    3      0.72      0.00
   -2   12    2     -0.65      0.00
   -2   12    1     -1.16      0.00
   -2   12    0     -0.34      0.00
    2  -12    1      0.38      0.00
    2  -12    2      0.11      0.00
    2  -12    3     -0.35      0.00
   -2   11    8      0.24      0.00
   -2   11    7      0.37      0.00
   -2   11    6     -0.16      0.00
   -2   11    5     -0.95      0.00
   -2   11    4     -1.38      0.00
   -2   11    3     -0.99      0.00
   -2   11    2      0.10      0.00
   -2   11    1      0.81      0.00
   -2   11    0      0.32      0.00
    2  -11    1     -0.62      0.00
    2  -11    2     -0.82      0.00
    2  -11    3     -0.22      0.00
    2  -11    4      0.36      0.00
    2  -11    5      0.35      0.00
   -2   10    8     -1.25      0.00
   -2   10    7     -0.91      0.00
   -2   10    6     -0.01      0.00
   -2   10    5      0.62      0.00
   -2   10    4      0.80      0.00
   -2   10    3      0.72      0.00
   -2   10    2      0.34      0.00
   -2   10    1     -0.03      0.00
   -2   10    0      0.41      0.00
    2  -10    1      1.77      0.00
    2  -10    2      2.91      0.00
    2  -10    3      2.56      0.00
    2  -10    4      1.03      0.00
    2  -10    5     -0.15      0.00
    2  -10    6     -0.49      0.00
   -2    9    9      1.01      0.00
   -2    9    8      1.64      0.00
   -2    9    7      1.21      0.00
   -2    9    6      0.09      0.00
   -2    9    5     -0.90      0.00
   -2    9    4     -1.57      0.00
   -2    9    3     -1.88      0.00
   -2    9    2     -1.50      0.00
   -2    9    1     -0.73      0.00
   -2    9    0     -0.76      0.00
    2   -9    1     -2.33      0.00
    2   -9    2     -4.46      0.00
    2   -9    3     -4.89      0.00
    2   -9    4     -2.84      0.00
    2   -9    5     -0.08      0.00
    2   -9    6      1.71      0.00
    2   -9    7      2.42      0.00
    2   -9    8      1.80      0.00
   -2    8   10     -0.05      0.00
   -2    8    9     -0.64      0.00
   -2    8    8     -1.08      0.00
   -2    8    7     -0.60      0.00
   -2    8    6      0.80      0.00
   -2    8    5      2.71      0.00
   -2    8    4      4.66      0.00
   -2    8    3      5.41      0.00
   -2    8    2      3.93      0.00
   -2    8    1      1.24      0.00
   -2    8    0     -0.30      0.00
    2   -8    1      0.62      0.00
    2   -8    2      3.18      0.00
    2   -8    3      4.80      0.00
    2   -8    4      3.54      0.00
    2   -8    5      0.36      0.00
    2   -8    6     -2.68      0.00
    2   -8    7     -4.60      0.00
    2   -8    8     -4.41      0.00
    2   -8    9     -1.84      0.00
    2   -8   10      0.57      0.00
   -2    7   10      0.32      0.00
   -2    7    9      0.29      0.00
   -2    7    8      0.30      0.00
   -2    7    7     -0.45      0.00
   -2    7    6     -2.26      0.00
   -2    7    5     -4.91      0.00
   -2    7    4     -7.66      0.00
   -2    7    3     -8.36      0.00
   -2    7    2     -5.17      0.00
   -2    7    1      0.28      0.00
   -2    7    0      4.18      0.00
    2   -7    1      4.31      0.00
    2   -7    2      1.22      0.00
    2   -7    3     -2.44      0.00
    2   -7    4     -3.75      0.00
    2   -7    5     -2.13      0.00
    2   -7    6      0.88      0.00
    2   -7    7      3.78      0.00
    2   -7    8      4.84      0.00
    2   -7    9      2.83      0.00
    2   -7   10     -0.18      0.00
   -2    6   11     -0.08      0.00
   -2    6   10      0.76      0.00
   -2    6    9      1.09      0.00
   -2    6    8      0.83      0.00
   -2    6    7      1.08      0.00
   -2    6    6      2.53      0.00
   -2    6    5      5.04      0.00
   -2    6    4      7.88      0.00
   -2    6    3      8.66      0.00
   -2    6    2      4.72      0.00
   -2    6    1     -2.88      0.00
   -2    6    0     -9.48      0.00
    2   -6    1    -11.19      0.00
    2   -6    2     -7.34      0.00
    2   -6    3     -0.55      0.00
    2   -6    4      4.81      0.00
    2   -6    5      6.12      0.00
    2   -6    6      3.92      0.00
    2   -6    7      0.16      0.00
    2   -6    8     -2.66      0.00
    2   -6    9     -2.34      0.00
    2   -6   10      0.12      0.00
    2   -6   11      1.53      0.00
   -2    5   11     -1.72      0.00
   -2    5   10     -3.21      0.00
   -2    5    9     -3.41      0.00
   -2    5    8     -1.99      0.00
   -2    5    7     -0.31      0.00
   -2    5    6      0.12      0.00
   -2    5    5     -1.37      0.00
   -2    5    4     -4.58      0.00
   -2    5    3     -7.16      0.00
   -2    5    2     -5.21      0.00
   -2    5    1      2.23      0.00
   -2    5    0     11.10      0.00
    2   -5    1     15.62      0.00
    2   -5    2     12.51      0.00
    2   -5    3      3.34      0.00
    2   -5    4     -6.22      0.00
    2   -5    5    -11.10      0.00
    2   -5    6    -10.10      0.00
    2   -5    7     -5.05      0.00
    2   -5    8      0.37      0.00
    2   -5    9      2.46      0.00
    2   -5   10      1.01      0.00
    2   -5   11     -0.83      0.00
    2   -5   12     -1.12      0.00
   -2    4   12      0.80      0.00
   -2    4   11      2.91      0.00
   -2    4   10      4.66      0.00
   -2    4    9      4.53      0.00
   -2    4    8      1.92      0.00
   -2    4    7     -2.15      0.00
   -2    4    6     -5.47      0.00
   -2    4    5     -5.74      0.00
   -2    4    4     -1.84      0.00
   -2    4    3      4.04      0.00
   -2    4    2      6.76      0.00
   -2    4    1      2.80      0.00
   -2    4    0     -6.05      0.00
    2   -4    1    -13.67      0.00
    2   -4    2    -13.89      0.00
    2   -4    3     -5.63      0.00
    2   -4    4      5.87      0.00
    2   -4    5     14.04      0.00
    2   -4    6     15.41      0.00
    2   -4    7     10.06      0.00
    2   -4    8      1.80      0.00
    2   -4    9     -3.53      0.00
    2   -4   10     -3.76      0.00
    2   -4   11     -1.76      0.00
    2   -4   12     -0.43      0.00
    2   -4   13     -0.10      0.00
   -2    3   12     -0.13      0.00
   -2    3   11     -1.98      0.00
   -2    3   10     -3.56      0.00
   -2    3    9     -3.50      0.00
   -2    3    8     -0.77      0.00
   -2    3    7      4.57      0.00
   -2    3    6     10.37      0.00
   -2    3    5     12.78      0.00
   -2    3    4      8.75      0.00
   -2    3    3     -0.46      0.00
   -2    3    2     -9.22      0.00
   -2    3    1    -11.75      0.00
   -2    3    0     -6.15      0.00
    2   -3    1      3.73      0.00
    2   -3    2      9.89      0.00
    2   -3    3      7.09      0.00
    2   -3    4     -2.10      0.00
    2   -3    5    -11.36      0.00
    2   -3    6    -15.86      0.00
    2   -3    7    -12.97      0.00
    2   -3    8     -4.27      0.00
    2   -3    9      3.72      0.00
    2   -3   10      6.27      0.00
    2   -3   11      4.90      0.00
    2   -3   12      2.81      0.00
    2   -3   13      1.12      0.00
   -2    2   13     -0.89      0.00
   -2    2   12     -1.47      0.00
   -2    2   11     -1.01      0.00
   -2    2   10      0.33      0.00
   -2    2    9      1.29      0.00
   -2    2    8      0.11      0.00
   -2    2    7     -4.31      0.00
   -2    2    6    -10.76      0.00
   -2    2    5    -14.94      0.00
   -2    2    4    -11.92      0.00
   -2    2    3     -0.66      0.00
   -2    2    2     14.20      0.00
   -2    2    1     24.99      0.00
   -2    2    0     24.82      0.00
    2   -2    1     12.93      0.00
    2   -2    2     -1.83      0.00
    2   -2    3     -8.53      0.00
    2   -2    4     -5.28      0.00
    2   -2    5      2.35      0.00
    2   -2    6      9.01      0.00
    2   -2    7     10.53      0.00
    2   -2    8      5.19      0.00
    2   -2    9     -2.58      0.00
    2   -2   10     -6.74      0.00
    2   -2   11     -6.56      0.00
    2   -2   12     -4.47      0.00
    2   -2   13     -1.96      0.00
    2   -2   14     -0.10      0.00
   -2    1   13      0.46      0.00
   -2    1   12      2.79      0.00
   -2    1   11      4.14      0.00
   -2    1   10      2.95      0.00
   -2    1    9      0.23      0.00
   -2    1    8     -1.42      0.00
   -2    1    7      0.05      0.00
   -2    1    6      4.85      0.00
   -2    1    5     10.11      0.00
   -2    1    4     10.14      0.00
   -2    1    3      0.66      0.00
   -2    1    2    -16.80      0.00
   -2    1    1    -34.27      0.00
   -2    1    0    -40.20      0.00
    2   -1    1    -27.83      0.00
    2   -1    2     -4.90      0.00
    2   -1    3     12.03      0.00
    2   -1    4     15.26      0.00
    2   -1    5      9.58      0.00
    2   -1    6      1.46      0.00
    2   -1    7     -4.55      0.00
    2   -1    8     -4.67      0.00
    2   -1    9      0.09      0.00
    2   -1   10      4.39      0.00
    2   -1   11      5.38      0.00
    2   -1   12      4.05      0.00
    2   -1   13      1.88      0.00
    2   -1   14      0.30      0.00
   -2    0   13      0.03      0.00
   -2    0   12     -2.85      0.00
   -2    0   11     -5.01      0.00
   -2    0   10     -3.70      0.00
   -2    0    9      0.60      0.00
   -2    0    8      5.02      0.00
   -2    0    7      7.01      0.00
   -2    0    6      4.99      0.00
   -2    0    5     -0.79      0.00
   -2    0    4     -5.95      0.00
   -2    0    3     -3.82      0.00
   -2    0    2      8.47      0.00
   -2    0    1     26.12      0.00
    2    0    0     37.07      0.00
    2    0    1     29.67      0.00
    2    0    2      6.34      0.00
    2    0    3    -15.72      0.00
    2    0    4    -23.48      0.00
    2    0    5    -18.92      0.00
    2    0    6     -9.32      0.00
    2    0    7      0.31      0.00
    2    0    8      5.44      0.00
    2    0    9      4.35      0.00
    2    0   10      0.68      0.00
    2    0   11     -1.51      0.00
    2    0   12     -1.42      0.00
    2    0   13     -0.25      0.00
    2    0   14      0.35      0.00
    2    0   15     -0.17      0.00
   -2   -1   13     -0.01      0.00
   -2   -1   12      1.98      0.00
   -2   -1   11      3.61      0.00
   -2   -1   10      2.22      0.00
   -2   -1    9     -2.51      0.00
   -2   -1    8     -8.31      0.00
   -2   -1    7    -12.55      0.00
   -2   -1    6    -12.78      0.00
   -2   -1    5     -7.14      0.00
   -2   -1    4      2.40      0.00
   -2   -1    3      9.24      0.00
   -2   -1    2      7.43      0.00
   -2   -1    1     -3.40      0.00
    2    1    0    -16.25      0.00
    2    1    1    -19.04      0.00
    2    1    2     -6.25      0.00
    2    1    3     12.25      0.00
    2    1    4     22.21      0.00
    2    1    5     20.17      0.00
    2    1    6     11.07      0.00
    2    1    7      0.14      0.00
    2    1    8     -7.69      0.00
    2    1    9     -9.22      0.00
    2    1   10     -6.18      0.00
    2    1   11     -2.69      0.00
    2    1   12     -1.11      0.00
    2    1   13     -1.25      0.00
    2    1   14     -1.41      0.00
    2    1   15     -0.66      0.00
   -2   -2   12     -0.89      0.00
   -2   -2   11     -1.90      0.00
   -2   -2   10     -1.36      0.00
   -2   -2    9      1.99      0.00
   -2   -2    8      7.35      0.00
   -2   -2    7     12.33      0.00
   -2   -2    6     13.98      0.00
   -2   -2    5      9.56      0.00
   -2   -2    4     -0.80      0.00
   -2   -2    3    -12.26      0.00
   -2   -2    2    -18.53      0.00
   -2   -2    1    -15.63      0.00
    2    2    0     -4.09      0.00
    2    2    1      7.99      0.00
    2    2    2      9.84      0.00
    2    2    3      0.66      0.00
    2    2    4     -9.37      0.00
    2    2    5    -11.89      0.00
    2    2    6     -6.79      0.00
    2    2    7      1.84      0.00
    2    2    8      9.07      0.00
    2    2    9     11.35      0.00
    2    2   10      8.83      0.00
    2    2   11      4.42      0.00
    2    2   12      1.13      0.00
    2    2   13      0.24      0.00
    2    2   14      0.61      0.00
   -2   -3   11      0.84      0.00
   -2   -3   10      1.93      0.00
   -2   -3    9      1.39      0.00
   -2   -3    8     -1.98      0.00
   -2   -3    7     -6.80      0.00
   -2   -3    6     -9.97      0.00
   -2   -3    5     -8.30      0.00
   -2   -3    4     -0.48      0.00
   -2   -3    3     10.71      0.00
   -2   -3    2     19.72      0.00
   -2   -3    1     21.15      0.00
    2    3    0     12.07      0.00
    2    3    1     -3.67      0.00
    2    3    2    -14.99      0.00
    2    3    3    -14.33      0.00
    2    3    4     -6.04      0.00
    2    3    5      0.40      0.00
    2    3    6      0.58      0.00
    2    3    7     -3.56      0.00
    2    3    8     -7.83      0.00
    2    3    9     -9.27      0.00
    2    3   10     -7.23      0.00
    2    3   11     -2.96      0.00
    2    3   12      0.92      0.00
    2    3   13      2.17      0.00
    2    3   14      1.36      0.00
   -2   -4   11     -0.19      0.00
   -2   -4   10     -2.12      0.00
   -2   -4    9     -4.33      0.00
   -2   -4    8     -4.04      0.00
   -2   -4    7     -0.43      0.00
   -2   -4    6      4.39      0.00
   -2   -4    5      6.86      0.00
   -2   -4    4      3.78      0.00
   -2   -4    3     -4.67      0.00
   -2   -4    2    -13.71      0.00
   -2   -4    1    -17.00      0.00
    2    4    0    -10.49      0.00
    2    4    1      3.77      0.00
    2    4    2     16.90      0.00
    2    4    3     20.31      0.00
    2    4    4     14.27      0.00
    2    4    5      6.18      0.00
    2    4    6      1.99      0.00
    2    4    7      2.03      0.00
    2    4    8      3.43      0.00
    2    4    9      3.93      0.00
    2    4   10      2.72      0.00
    2    4   11     -0.13      0.00
    2    4   12     -2.87      0.00
    2    4   13     -3.21      0.00
    2    4   14     -1.67      0.00
   -2   -5   10      1.08      0.00
   -2   -5    9      4.59      0.00
   -2   -5    8      7.38      0.00
   -2   -5    7      6.19      0.00
   -2   -5    6      0.98      0.00
   -2   -5    5     -5.17      0.00
   -2   -5    4     -7.71      0.00
   -2   -5    3     -3.90      0.00
   -2   -5    2      3.61      0.00
   -2   -5    1      8.34      0.00
    2    5    0      5.44      0.00
    2    5    1     -4.22      0.00
    2    5    2    -14.34      0.00
    2    5    3    -18.10      0.00
    2    5    4    -13.89      0.00
    2    5    5     -5.97      0.00
    2    5    6      0.16      0.00
    2    5    7      2.35      0.00
    2    5    8      2.08      0.00
    2    5    9      1.38      0.00
    2    5   10      1.19      0.00
    2    5   11      1.97      0.00
    2    5   12      2.93      0.00
    2    5   13      2.32      0.00
    2    5   14      0.54      0.00
   -2   -6   10      0.33      0.00
   -2   -6    9     -2.76      0.00
   -2   -6    8     -6.88      0.00
   -2   -6    7     -7.81      0.00
   -2   -6    6     -3.91      0.00
   -2   -6    5      3.03      0.00
   -2   -6    4      9.12      0.00
   -2   -6    3     10.37      0.00
   -2   -6    2      6.26      0.00
   -2   -6    1      0.89      0.00
    2    6    0     -0.70      0.00
    2    6    1      2.77      0.00
    2    6    2      8.03      0.00
    2    6    3     10.48      0.00
    2    6    4      7.84      0.00
    2    6    5      1.68      0.00
    2    6    6     -3.83      0.00
    2    6    7     -5.74      0.00
    2    6    8     -4.74      0.00
    2    6    9     -3.00      0.00
    2    6   10     -1.50      0.00
    2    6   11     -0.70      0.00
    2    6   12     -0.62      0.00
    2    6   13     -0.36      0.00
   -2   -7    9      0.61      0.00
   -2   -7    8      3.74      0.00
   -2   -7    7      5.00      0.00
   -2   -7    6      2.78      0.00
   -2   -7    5     -2.06      0.00
   -2   -7    4     -7.67      0.00
   -2   -7    3    -11.31      0.00
   -2   -7    2    -10.53      0.00
   -2   -7    1     -5.89      0.00
    2    7    0     -1.09      0.00
    2    7    1      0.59      0.00
    2    7    2     -0.57      0.00
    2    7    3     -1.71      0.00
    2    7    4     -0.40      0.00
    2    7    5      3.22      0.00
    2    7    6      6.33      0.00
    2    7    7      6.29      0.00
    2    7    8      3.70      0.00
    2    7    9      0.96      0.00
    2    7   10     -0.98      0.00
    2    7   11     -2.10      0.00
    2    7   12     -2.14      0.00
    2    7   13     -1.44      0.00
   -2   -8    8     -0.97      0.00
   -2   -8    7     -1.50      0.00
   -2   -8    6     -0.52      0.00
   -2   -8    5      1.54      0.00
   -2   -8    4      4.55      0.00
   -2   -8    3      7.58      0.00
   -2   -8    2      8.23      0.00
   -2   -8    1      4.98      0.00
    2    8    0     -0.23      0.00
    2    8    1     -3.64      0.00
    2    8    2     -3.84      0.00
    2    8    3     -2.79      0.00
    2    8    4     -2.97      0.00
    2    8    5     -4.69      0.00
    2    8    6     -5.98      0.00
    2    8    7     -4.75      0.00
    2    8    8     -1.46      0.00
    2    8    9      1.64      0.00
    2    8   10      3.35      0.00
    2    8   11      3.68      0.00
    2    8   12      2.81      0.00
   -2   -9    8      0.03      0.00
   -2   -9    7      0.09      0.00
   -2   -9    6      0.09      0.00
   -2   -9    5      0.04      0.00
   -2   -9    4     -0.87      0.00
   -2   -9    3     -2.52      0.00
   -2   -9    2     -3.17      0.00
   -2   -9    1     -1.27      0.00
    2    9    0      2.31      0.00
    2    9    1      4.66      0.00
    2    9    2      4.12      0.00
    2    9    3      2.16      0.00
    2    9    4      1.11      0.00
    2    9    5      1.58      0.00
    2    9    6      2.29      0.00
    2    9    7      1.69      0.00
    2    9    8     -0.44      0.00
    2    9    9     -2.88      0.00
    2    9   10     -4.24      0.00
    2    9   11     -3.75      0.00
    2    9   12     -1.78      0.00
   -2  -10    7      0.41      0.00
   -2  -10    6      0.07      0.00
   -2  -10    5     -0.98      0.00
   -2  -10    4     -1.43      0.00
   -2  -10    3     -1.00      0.00
   -2  -10    2     -0.79      0.00
   -2  -10    1     -1.56      0.00
    2   10    0     -2.92      0.00
    2   10    1     -3.47      0.00
    2   10    2     -2.18      0.00
    2   10    3      0.20      0.00
    2   10    4      1.96      0.00
    2   10    5      2.38      0.00
    2   10    6      1.90      0.00
    2   10    7      1.40      0.00
    2   10    8      1.54      0.00
    2   10    9      2.42      0.00
    2   10   10      3.30      0.00
    2   10   11      2.86      0.00
   -2  -11    6     -0.96      0.00
   -2  -11    5      0.36      0.00
   -2  -11    4      1.76      0.00
   -2  -11    3      2.29      0.00
   -2  -11    2      2.35      0.00
   -2  -11    1      2.17      0.00
    2   11    0      1.68      0.00
    2   11    1      0.83      0.00
    2   11    2     -0.65      0.00
    2   11    3     -2.50      0.00
    2   11    4     -3.79      0.00
    2   11    5     -4.00      0.00
    2   11    6     -3.29      0.00
    2   11    7     -2.06      0.00
    2   11    8     -0.86      0.00
    2   11    9     -0.37      0.00
    2   11   10     -0.74      0.00
    2   11   11     -1.01      0.00
   -2  -12    5     -0.13      0.00
   -2  -12    4     -1.80      0.00
   -2  -12    3     -2.47      0.00
   -2  -12    2     -2.07      0.00
   -2  -12    1     -1.11      0.00
    2   12    0      0.04      0.00
    2   12    1      1.14      0.00
    2   12    2      2.35      0.00
    2   12    3      3.61      0.00
    2   12    4      4.20      0.00
    2   12    5      3.66      0.00
    2   12    6      2.28      0.00
    2   12    7      0.60      0.00
    2   12    8     -0.88      0.00
    2   12    9     -1.63      0.00
    2   12   10     -1.31      0.00
   -2  -13    4      1.82      0.00
   -2  -13    3      2.05      0.00
   -2  -13    2      0.93      0.00
   -2  -13    1     -0.34      0.00
    2   13    0     -0.85      0.00
    2   13    1     -0.83      0.00
    2   13    2     -1.18      0.00
    2   13    3     -2.05      0.00
    2   13    4     -2.62      0.00
    2   13    5     -2.30      0.00
    2   13    6     -1.21      0.00
    2   13    7      0.24      0.00
    2   13    8      1.43      0.00
    2   13    9      1.76      0.00
   -2  -14    2     -0.01      0.00
   -2  -14    1      0.87      0.00
    2   14    0      0.50      0.00
    2   14    1     -0.54      0.00
    2   14    2     -0.91      0.00
    2   14    3     -0.37      0.00
    2   14    4      0.27      0.00
    2   14    5      0.66      0.00
    2   14    6      0.76      0.00
    2   15    2      1.34      0.00
    2   15    4      0.37      0.00
    2   15    5      0.11      0.00
   -3   12    6      0.69      0.00
   -3   12    5      2.00      0.00
   -3   12    4      2.28      0.00
   -3   12    3      1.57      0.00
   -3   12    2      0.20      0.00
   -3   12    1     -1.10      0.00
   -3   12    0     -1.30      0.00
    3  -12    1     -0.65      0.00
   -3   11    6     -0.42      0.00
   -3   11    5     -1.81      0.00
   -3   11    4     -2.29      0.00
   -3   11    3     -1.88      0.00
   -3   11    2     -0.75      0.00
   -3   11    1      0.67      0.00
   -3   11    0      1.20      0.00
    3  -11    1      0.53      0.00
    3  -11    2     -0.17      0.00
    3  -11    3     -0.07      0.00
    3  -11    4      0.45      0.00
   -3   10    7     -1.02      0.00
   -3   10    6     -0.10      0.00
   -3   10    5      0.64      0.00
   -3   10    4      0.73      0.00
   -3   10    3      0.68      0.00
   -3   10    2      0.48      0.00
   -3   10    1     -0.12      0.00
   -3   10    0     -0.35      0.00
    3  -10    1      0.55      0.00
    3  -10    2      1.79      0.00
    3  -10    3      1.93      0.00
    3  -10    4      0.67      0.00
    3  -10    5     -0.74      0.00
    3  -10    6     -1.03      0.00
   -3    9    8      1.25      0.00
   -3    9    7      0.89      0.00
   -3    9    6     -0.14      0.00
   -3    9    5     -0.88      0.00
   -3    9    4     -1.01      0.00
   -3    9    3     -0.97      0.00
   -3    9    2     -0.70      0.00
   -3    9    1      0.01      0.00
   -3    9    0      0.29      0.00
    3   -9    1     -0.76      0.00
    3   -9    2     -2.56      0.00
    3   -9    3     -3.30      0.00
    3   -9    4     -1.77      0.00
    3   -9    5      1.01      0.00
    3   -9    6      2.70      0.00
    3   -9    7      2.47      0.00
   -3    8    9     -0.35      0.00
   -3    8    8     -0.85      0.00
   -3    8    7     -0.60      0.00
   -3    8    6      0.81      0.00
   -3    8    5      2.60      0.00
   -3    8    4      3.84      0.00
   -3    8    3      3.89      0.00
   -3    8    2      2.27      0.00
   -3    8    1     -0.41      0.00
   -3    8    0     -2.19      0.00
    3   -8    1     -1.71      0.00
    3   -8    2      0.53      0.00
    3   -8    3      2.62      0.00
    3   -8    4      2.43      0.00
    3   -8    5     -0.25      0.00
    3   -8    6     -3.10      0.00
    3   -8    7     -4.00      0.00
    3   -8    8     -2.91      0.00
    3   -8    9     -0.74      0.00
   -3    7   10     -0.24      0.00
   -3    7    9     -0.55      0.00
   -3    7    8     -0.04      0.00
   -3    7    7      0.28      0.00
   -3    7    6     -0.95      0.00
   -3    7    5     -3.45      0.00
   -3    7    4     -5.63      0.00
   -3    7    3     -5.80      0.00
   -3    7    2     -2.85      0.00
   -3    7    1      2.25      0.00
   -3    7    0      6.33      0.00
    3   -7    1      6.89      0.00
    3   -7    2      3.97      0.00
    3   -7    3     -0.44      0.00
    3   -7    4     -3.35      0.00
    3   -7    5     -2.78      0.00
    3   -7    6      0.08      0.00
    3   -7    7      2.46      0.00
    3   -7    8      2.85      0.00
    3   -7    9      1.23      0.00
    3   -7   10     -0.92      0.00
   -3    6   10      1.43      0.00
   -3    6    9      2.08      0.00
   -3    6    8      1.18      0.00
   -3    6    7     -0.19      0.00
   -3    6    6      0.07      0.00
   -3    6    5      2.20      0.00
   -3    6    4      4.51      0.00
   -3    6    3      5.04      0.00
   -3    6    2      2.20      0.00
   -3    6    1     -3.89      0.00
   -3    6    0    -10.02      0.00
    3   -6    1    -12.09      0.00
    3   -6    2     -8.64      0.00
    3   -6    3     -1.55      0.00
    3   -6    4      5.05      0.00
    3   -6    5      7.34      0.00
    3   -6    6      5.08      0.00
    3   -6    7      1.17      0.00
    3   -6    8     -1.52      0.00
    3   -6    9     -1.62      0.00
    3   -6   10      0.17      0.00
    3   -6   11      1.38      0.00
   -3    5   11     -1.69      0.00
   -3    5   10     -3.04      0.00
   -3    5    9     -3.20      0.00
   -3    5    8     -1.28      0.00
   -3    5    7      1.53      0.00
   -3    5    6      2.72      0.00
   -3    5    5      1.35      0.00
   -3    5    4     -1.36      0.00
   -3    5    3     -3.66      0.00
   -3    5    2     -3.38      0.00
   -3    5    1      1.30      0.00
   -3    5    0      8.63      0.00
    3   -5    1     13.31      0.00
    3   -5    2     11.17      0.00
    3   -5    3      2.90      0.00
    3   -5    4     -6.54      0.00
    3   -5    5    -11.58      0.00
    3   -5    6    -10.27      0.00
    3   -5    7     -4.93      0.00
    3   -5    8      0.49      0.00
    3   -5    9      2.92      0.00
    3   -5   10      1.98      0.00
    3   -5   11      0.14      0.00
    3   -5   12     -0.44      0.00
   -3    4   11      2.33      0.00
   -3    4   10      3.52      0.00
   -3    4    9      2.93      0.00
   -3    4    8      0.04      0.00
   -3    4    7     -4.18      0.00
   -3    4    6     -7.20      0.00
   -3    4    5     -6.94      0.00
   -3    4    4     -3.29      0.00
   -3    4    3      2.33      0.00
   -3    4    2      6.78      0.00
   -3    4    1      6.01      0.00
   -3    4    0     -0.77      0.00
    3   -4    1     -8.51      0.00
    3   -4    2    -10.57      0.00
    3   -4    3     -4.77      0.00
    3   -4    4      5.05      0.00
    3   -4    5     12.58      0.00
    3   -4    6     13.72      0.00
    3   -4    7      8.58      0.00
    3   -4    8      0.91      0.00
    3   -4    9     -4.30      0.00
    3   -4   10     -4.81      0.00
    3   -4   11     -2.74      0.00
    3   -4   12     -1.06      0.00
    3   -4   13     -0.36      0.00
   -3    3   11     -1.02      0.00
   -3    3   10     -2.01      0.00
   -3    3    9     -1.65      0.00
   -3    3    8      0.81      0.00
   -3    3    7      5.36      0.00
   -3    3    6     10.09      0.00
   -3    3    5     11.62      0.00
   -3    3    4      7.70      0.00
   -3    3    3     -1.08      0.00
   -3    3    2    -10.81      0.00
   -3    3    1    -15.46      0.00
   -3    3    0    -11.44      0.00
    3   -3    1     -1.58      0.00
    3   -3    2      6.69      0.00
    3   -3    3      7.58      0.00
    3   -3    4      1.31      0.00
    3   -3    5     -7.15      0.00
    3   -3    6    -12.09      0.00
    3   -3    7    -10.28      0.00
    3   -3    8     -3.05      0.00
    3   -3    9      4.08      0.00
    3   -3   10      6.56      0.00
    3   -3   11      5.11      0.00
    3   -3   12      2.79      0.00
    3   -3   13      0.90      0.00
    3   -3   14     -0.22      0.00
   -3    2   12     -1.70      0.00
   -3    2   11     -1.98      0.00
   -3    2   10     -1.14      0.00
   -3    2    9      0.05      0.00
   -3    2    8     -0.06      0.00
   -3    2    7     -2.97      0.00
   -3    2    6     -7.95      0.00
   -3    2    5    -11.29      0.00
   -3    2    4     -8.77      0.00
   -3    2    3      0.90      0.00
   -3    2    2     14.14      0.00
   -3    2    1     23.81      0.00
   -3    2    0     23.64      0.00
    3   -2    1     13.14      0.00
    3   -2    2     -1.29      0.00
    3   -2    3    -10.76      0.00
    3   -2    4    -10.80      0.00
    3   -2    5     -3.78      0.00
    3   -2    6      4.27      0.00
    3   -2    7      7.70      0.00
    3   -2    8      4.47      0.00
    3   -2    9     -1.86      0.00
    3   -2   10     -5.82      0.00
    3   -2   11     -5.89      0.00
    3   -2   12     -3.99      0.00
    3   -2   13     -1.63      0.00
    3   -2   14      0.21      0.00
   -3    1   12      2.48      0.00
   -3    1   11      4.50      0.00
   -3    1   10      3.86      0.00
   -3    1    9      0.73      0.00
   -3    1    8     -2.27      0.00
   -3    1    7     -2.41      0.00
   -3    1    6      1.00      0.00
   -3    1    5      5.50      0.00
   -3    1    4      6.44      0.00
   -3    1    3      0.12      0.00
   -3    1    2    -12.37      0.00
   -3    1    1    -24.47      0.00
   -3    1    0    -28.06      0.00
    3   -1    1    -19.15      0.00
    3   -1    2     -1.63      0.00
    3   -1    3     14.20      0.00
    3   -1    4     19.71      0.00
    3   -1    5     14.62      0.00
    3   -1    6      4.85      0.00
    3   -1    7     -3.10      0.00
    3   -1    8     -5.23      0.00
    3   -1    9     -2.10      0.00
    3   -1   10      2.00      0.00
    3   -1   11      3.81      0.00
    3   -1   12      3.28      0.00
    3   -1   13      1.59      0.00
    3   -1   14      0.15      0.00
   -3    0   12     -1.96      0.00
   -3    0   11     -4.45      0.00
   -3    0   10     -3.79      0.00
   -3    0    9      0.46      0.00
   -3    0    8      5.54      0.00
   -3    0    7      8.28      0.00
   -3    0    6      6.92      0.00
   -3    0    5      1.74      0.00
   -3    0    4     -4.01      0.00
   -3    0    3     -4.87      0.00
   -3    0    2      1.89      0.00
   -3    0    1     12.66      0.00
    3    0    0     19.64      0.00
    3    0    1     16.13      0.00
    3    0    2      1.71      0.00
    3    0    3    -15.22      0.00
    3    0    4    -23.60      0.00
    3    0    5    -19.93      0.00
    3    0    6     -9.46      0.00
    3    0    7      0.94      0.00
    3    0    8      6.80      0.00
    3    0    9      6.84      0.00
    3    0   10      3.39      0.00
    3    0   11      0.27      0.00
    3    0   12     -0.57      0.00
    3    0   13      0.23      0.00
    3    0   14      0.82      0.00
   -3   -1   12      0.92      0.00
   -3   -1   11      2.50      0.00
   -3   -1   10      1.78      0.00
   -3   -1    9     -2.08      0.00
   -3   -1    8     -7.23      0.00
   -3   -1    7    -10.92      0.00
   -3   -1    6    -10.89      0.00
   -3   -1    5     -5.68      0.00
   -3   -1    4      3.48      0.00
   -3   -1    3     11.19      0.00
   -3   -1    2     11.84      0.00
   -3   -1    1      5.00      0.00
    3    1    0     -4.40      0.00
    3    1    1     -9.20      0.00
    3    1    2     -4.02      0.00
    3    1    3      8.57      0.00
    3    1    4     18.16      0.00
    3    1    5     17.22      0.00
    3    1    6      8.21      0.00
    3    1    7     -2.01      0.00
    3    1    8     -8.71      0.00
    3    1    9    -10.12      0.00
    3    1   10     -7.12      0.00
    3    1   11     -3.01      0.00
    3    1   12     -0.95      0.00
    3    1   13     -1.33      0.00
    3    1   14     -1.94      0.00
   -3   -2   11     -0.91      0.00
   -3   -2   10     -0.81      0.00
   -3   -2    9      1.14      0.00
   -3   -2    8      4.69      0.00
   -3   -2    7      8.19      0.00
   -3   -2    6      9.23      0.00
   -3   -2    5      5.41      0.00
   -3   -2    4     -3.60      0.00
   -3   -2    3    -13.91      0.00
   -3   -2    2    -19.39      0.00
   -3   -2    1    -16.65      0.00
    3    2    0     -6.87      0.00
    3    2    1      4.68      0.00
    3    2    2      9.88      0.00
    3    2    3      4.65      0.00
    3    2    4     -4.69      0.00
    3    2    5     -8.12      0.00
    3    2    6     -3.54      0.00
    3    2    7      3.76      0.00
    3    2    8      8.89      0.00
    3    2    9     10.04      0.00
    3    2   10      7.25      0.00
    3    2   11      2.46      0.00
    3    2   12     -0.92      0.00
    3    2   13     -1.05      0.00
    3    2   14      0.33      0.00
   -3   -3   10      1.51      0.00
   -3   -3    9      2.06      0.00
   -3   -3    8      0.88      0.00
   -3   -3    7     -2.15      0.00
   -3   -3    6     -4.87      0.00
   -3   -3    5     -4.16      0.00
   -3   -3    4      1.67      0.00
   -3   -3    3     10.78      0.00
   -3   -3    2     17.92      0.00
   -3   -3    1     18.16      0.00
    3    3    0     10.06      0.00
    3    3    1     -3.29      0.00
    3    3    2    -14.22      0.00
    3    3    3    -15.36      0.00
    3    3    4     -8.08      0.00
    3    3    5     -1.23      0.00
    3    3    6     -0.33      0.00
    3    3    7     -3.22      0.00
    3    3    8     -5.84      0.00
    3    3    9     -6.35      0.00
    3    3   10     -4.17      0.00
    3    3   11      0.19      0.00
    3    3   12      4.02      0.00
    3    3   13      4.48      0.00
    3    3   14      2.35      0.00
    3    3   15      0.70      0.00
   -3   -4   10     -1.89      0.00
   -3   -4    9     -4.21      0.00
   -3   -4    8     -5.63      0.00
   -3   -4    7     -3.73      0.00
   -3   -4    6      0.68      0.00
   -3   -4    5      4.01      0.00
   -3   -4    4      2.88      0.00
   -3   -4    3     -3.17      0.00
   -3   -4    2    -10.30      0.00
   -3   -4    1    -12.68      0.00
    3    4    0     -7.42      0.00
    3    4    1      3.49      0.00
    3    4    2     14.02      0.00
    3    4    3     17.61      0.00
    3    4    4     12.80      0.00
    3    4    5      4.95      0.00
    3    4    6      0.11      0.00
    3    4    7     -0.63      0.00
    3    4    8      0.32      0.00
    3    4    9      0.88      0.00
    3    4   10      0.00      0.00
    3    4   11     -2.59      0.00
    3    4   12     -5.21      0.00
    3    4   13     -5.12      0.00
    3    4   14     -2.51      0.00
    3    4   15     -0.46      0.00
   -3   -5    9      3.54      0.00
   -3   -5    8      7.03      0.00
   -3   -5    7      7.19      0.00
   -3   -5    6      2.58      0.00
   -3   -5    5     -3.62      0.00
   -3   -5    4     -6.99      0.00
   -3   -5    3     -5.05      0.00
   -3   -5    2      0.53      0.00
   -3   -5    1      4.43      0.00
    3    5    0      2.73      0.00
    3    5    1     -3.54      0.00
    3    5    2    -10.09      0.00
    3    5    3    -12.63      0.00
    3    5    4     -9.35      0.00
    3    5    5     -2.41      0.00
    3    5    6      3.47      0.00
    3    5    7      5.31      0.00
    3    5    8      4.07      0.00
    3    5    9      2.43      0.00
    3    5   10      1.88      0.00
    3    5   11      2.58      0.00
    3    5   12      3.60      0.00
    3    5   13      3.14      0.00
    3    5   14      0.99      0.00
   -3   -6    9     -1.38      0.00
   -3   -6    8     -5.17      0.00
   -3   -6    7     -6.77      0.00
   -3   -6    6     -3.50      0.00
   -3   -6    5      2.55      0.00
   -3   -6    4      7.73      0.00
   -3   -6    3      9.32      0.00
   -3   -6    2      6.63      0.00
   -3   -6    1      2.35      0.00
    3    6    0      0.28      0.00
    3    6    1      1.34      0.00
    3    6    2      3.44      0.00
    3    6    3      4.10      0.00
    3    6    4      1.80      0.00
    3    6    5     -3.04      0.00
    3    6    6     -7.23      0.00
    3    6    7     -7.48      0.00
    3    6    8     -4.38      0.00
    3    6    9     -1.34      0.00
    3    6   10      0.04      0.00
    3    6   11      0.28      0.00
    3    6   12     -0.18      0.00
    3    6   13     -0.69      0.00
    3    6   14     -0.46      0.00
   -3   -7    8      2.27      0.00
   -3   -7    7      3.37      0.00
   -3   -7    6      1.45      0.00
   -3   -7    5     -1.98      0.00
   -3   -7    4     -5.30      0.00
   -3   -7    3     -7.69      0.00
   -3   -7    2     -7.54      0.00
   -3   -7    1     -4.22      0.00
    3    7    0      0.01      0.00
    3    7    1      2.53      0.00
    3    7    2      2.99      0.00
    3    7    3      2.96      0.00
    3    7    4      4.17      0.00
    3    7    5      6.84      0.00
    3    7    6      8.59      0.00
    3    7    7      6.64      0.00
    3    7    8      1.96      0.00
    3    7    9     -1.69      0.00
    3    7   10     -2.97      0.00
    3    7   11     -3.17      0.00
    3    7   12     -2.57      0.00
    3    7   13     -0.87      0.00
   -3   -8    8     -0.71      0.00
   -3   -8    7     -0.46      0.00
   -3   -8    6      0.78      0.00
   -3   -8    5      1.39      0.00
   -3   -8    4      1.50      0.00
   -3   -8    3      2.45      0.00
   -3   -8    2      3.21      0.00
   -3   -8    1      1.50      0.00
    3    8    0     -2.24      0.00
    3    8    1     -5.09      0.00
    3    8    2     -5.36      0.00
    3    8    3     -4.30      0.00
    3    8    4     -4.21      0.00
    3    8    5     -5.63      0.00
    3    8    6     -6.36      0.00
    3    8    7     -4.01      0.00
    3    8    8      0.38      0.00
    3    8    9      3.43      0.00
    3    8   10      4.05      0.00
    3    8   11      3.68      0.00
    3    8   12      2.72      0.00
    3    8   13      0.84      0.00
   -3   -9    7     -0.38      0.00
   -3   -9    6     -1.20      0.00
   -3   -9    5     -0.16      0.00
   -3   -9    4      1.75      0.00
   -3   -9    3      2.26      0.00
   -3   -9    2      1.71      0.00
   -3   -9    1      2.20      0.00
    3    9    0      3.96      0.00
    3    9    1      5.03      0.00
    3    9    2      3.81      0.00
    3    9    3      1.27      0.00
    3    9    4     -0.09      0.00
    3    9    5      0.63      0.00
    3    9    6      1.63      0.00
    3    9    7      0.77      0.00
    3    9    8     -1.62      0.00
    3    9    9     -3.34      0.00
    3    9   10     -3.50      0.00
    3    9   11     -2.81      0.00
    3    9   12     -1.49      0.00
   -3  -10    6      1.03      0.00
   -3  -10    5     -0.54      0.00
   -3  -10    4     -3.05      0.00
   -3  -10    3     -4.14      0.00
   -3  -10    2     -3.90      0.00
   -3  -10    1     -3.65      0.00
    3   10    0     -3.54      0.00
    3   10    1     -2.79      0.00
    3   10    2     -0.75      0.00
    3   10    3      2.07      0.00
    3   10    4      3.87      0.00
    3   10    5      3.54      0.00
    3   10    6      2.07      0.00
    3   10    7      1.19      0.00
    3   10    8      1.25      0.00
    3   10    9      1.55      0.00
    3   10   10      1.75      0.00
    3   10   11      1.69      0.00
    3   10   12      0.79      0.00
   -3  -11    5      0.42      0.00
   -3  -11    4      2.90      0.00
   -3  -11    3      3.98      0.00
   -3  -11    2      3.51      0.00
   -3  -11    1      2.58      0.00
    3   11    0      1.35      0.00
    3   11    1     -0.23      0.00
    3   11    2     -2.06      0.00
    3   11    3     -3.97      0.00
    3   11    4     -5.05      0.00
    3   11    5     -4.39      0.00
    3   11    6     -2.51      0.00
    3   11    7     -0.64      0.00
    3   11    8      0.70      0.00
    3   11    9      1.35      0.00
    3   11   10      0.97      0.00
    3   11   11     -0.09      0.00
   -3  -12    4     -2.39      0.00
   -3  -12    3     -3.09      0.00
   -3  -12    2     -1.95      0.00
   -3  -12    1     -0.51      0.00
    3   12    0      0.58      0.00
    3   12    1      1.45      0.00
    3   12    2      2.35      0.00
    3   12    3      3.40      0.00
    3   12    4      3.89      0.00
    3   12    5      2.95      0.00
    3   12    6      1.02      0.00
    3   12    7     -0.84      0.00
    3   12    8     -2.26      0.00
    3   12    9     -3.02      0.00
    3   12   10     -2.58      0.00
    3   12   11     -1.07      0.00
   -3  -13    3      1.73      0.00
   -3  -13    2      0.24      0.00
   -3  -13    1     -1.21      0.00
    3   13    0     -1.22      0.00
    3   13    1     -0.32      0.00
    3   13    2      0.12      0.00
    3   13    3     -0.51      0.00
    3   13    4     -1.28      0.00
    3   13    5     -1.01      0.00
    3   13    6      0.04      0.00
    3   13    7      1.07      0.00
    3   13    8      1.86      0.00
    3   13    9      2.26      0.00
    3   13   10      1.83      0.00
   -3  -14    1      1.44      0.00
    3   14    0      0.94      0.00
    3   14    1     -0.76      0.00
    3   14    2     -1.89      0.00
    3   14    3     -1.47      0.00
    3   14    4     -0.48      0.00
    3   14    5     -0.13      0.00
    3   14    6     -0.23      0.00
    3   14    7     -0.32      0.00
    3   14    8     -0.56      0.00
    3   15    3      0.76      0.00
    3   15    4      0.14      0.00
    3   15    6      0.28      0.00
   -4   12    4      1.99      0.00
   -4   11    5     -0.93      0.00
   -4   11    4     -1.27      0.00
   -4   11    3     -0.70      0.00
   -4   11    2      0.14      0.00
   -4   11    1      0.95      0.00
   -4   11    0      1.15      0.00
    4  -11    1      0.24      0.00
    4  -11    2     -0.82      0.00
   -4   10    6     -1.42      0.00
   -4   10    5     -0.89      0.00
   -4   10    4     -0.62      0.00
   -4   10    3     -0.62      0.00
   -4   10    2     -0.65      0.00
   -4   10    1     -0.75      0.00
   -4   10    0     -0.51      0.00
    4  -10    1      0.58      0.00
    4  -10    2      1.86      0.00
    4  -10    3      2.05      0.00
    4  -10    4      0.94      0.00
    4  -10    5     -0.54      0.00
   -4    9    7      1.29      0.00
   -4    9    6      0.97      0.00
   -4    9    5      0.25      0.00
   -4    9    4     -0.11      0.00
   -4    9    3      0.05      0.00
   -4    9    2      0.47      0.00
   -4    9    1      0.87      0.00
   -4    9    0      0.67      0.00
    4   -9    1     -0.49      0.00
    4   -9    2     -1.93      0.00
    4   -9    3     -2.44      0.00
    4   -9    4     -1.32      0.00
    4   -9    5      1.03      0.00
    4   -9    6      2.85      0.00
    4   -9    7      2.65      0.00
   -4    8    8     -0.34      0.00
   -4    8    7     -1.03      0.00
   -4    8    6     -0.22      0.00
   -4    8    5      1.77      0.00
   -4    8    4      3.20      0.00
   -4    8    3      2.85      0.00
   -4    8    2      0.83      0.00
   -4    8    1     -1.62      0.00
   -4    8    0     -2.82      0.00
    4   -8    1     -2.08      0.00
    4   -8    2     -0.21      0.00
    4   -8    3      1.55      0.00
    4   -8    4      1.90      0.00
    4   -8    5     -0.01      0.00
    4   -8    6     -2.82      0.00
    4   -8    7     -3.75      0.00
    4   -8    8     -2.33      0.00
   -4    7    9     -1.81      0.00
   -4    7    8     -0.98      0.00
   -4    7    7      0.75      0.00
   -4    7    6      0.63      0.00
   -4    7    5     -1.91      0.00
   -4    7    4     -4.45      0.00
   -4    7    3     -4.38      0.00
   -4    7    2     -1.24      0.00
   -4    7    1      3.30      0.00
   -4    7    0      6.56      0.00
    4   -7    1      6.80      0.00
    4   -7    2      4.17      0.00
    4   -7    3      0.03      0.00
    4   -7    4     -3.38      0.00
    4   -7    5     -3.53      0.00
    4   -7    6     -0.54      0.00
    4   -7    7      2.18      0.00
    4   -7    8      2.35      0.00
    4   -7    9      0.89      0.00
    4   -7   10     -0.59      0.00
   -4    6    9      3.15      0.00
   -4    6    8      2.11      0.00
   -4    6    7     -0.66      0.00
   -4    6    6     -1.85      0.00
   -4    6    5      0.04      0.00
   -4    6    4      2.74      0.00
   -4    6    3      3.26      0.00
   -4    6    2      0.66      0.00
   -4    6    1     -4.14      0.00
   -4    6    0     -8.83      0.00
    4   -6    1    -10.52      0.00
    4   -6    2     -7.64      0.00
    4   -6    3     -1.22      0.00
    4   -6    4      5.34      0.00
    4   -6    5      7.89      0.00
    4   -6    6      5.28      0.00
    4   -6    7      0.85      0.00
    4   -6    8     -1.75      0.00
    4   -6    9     -1.91      0.00
    4   -6   10     -0.68      0.00
    4   -6   11      0.66      0.00
   -4    5   10     -2.18      0.00
   -4    5    9     -2.62      0.00
   -4    5    8     -0.89      0.00
   -4    5    7      2.27      0.00
   -4    5    6      4.04      0.00
   -4    5    5      2.79      0.00
   -4    5    4      0.01      0.00
   -4    5    3     -1.85      0.00
   -4    5    2     -1.61      0.00
   -4    5    1      1.24      0.00
   -4    5    0      6.15      0.00
    4   -5    1      9.97      0.00
    4   -5    2      8.73      0.00
    4   -5    3      1.95      0.00
    4   -5    4     -6.37      0.00
    4   -5    5    -10.79      0.00
    4   -5    6     -9.00      0.00
    4   -5    7     -3.58      0.00
    4   -5    8      1.35      0.00
    4   -5    9      3.64      0.00
    4   -5   10      3.21      0.00
    4   -5   11      1.25      0.00
    4   -5   12     -0.18      0.00
   -4    4   11      1.37      0.00
   -4    4   10      1.92      0.00
   -4    4    9      0.94      0.00
   -4    4    8     -1.67      0.00
   -4    4    7     -4.95      0.00
   -4    4    6     -7.06      0.00
   -4    4    5     -6.37      0.00
   -4    4    4     -3.05      0.00
   -4    4    3      1.29      0.00
   -4    4    2      4.93      0.00
   -4    4    1      5.63      0.00
   -4    4    0      1.64      0.00
    4   -4    1     -4.77      0.00
    4   -4    2     -7.77      0.00
    4   -4    3     -4.03      0.00
    4   -4    4      3.78      0.00
    4   -4    5      9.86      0.00
    4   -4    6     10.32      0.00
    4   -4    7      5.68      0.00
    4   -4    8     -0.60      0.00
    4   -4    9     -5.02      0.00
    4   -4   10     -5.77      0.00
    4   -4   11     -3.58      0.00
    4   -4   12     -0.99      0.00
    4   -4   13      0.12      0.00
   -4    3   11     -0.58      0.00
   -4    3   10     -0.86      0.00
   -4    3    9      0.06      0.00
   -4    3    8      2.22      0.00
   -4    3    7      5.20      0.00
   -4    3    6      8.07      0.00
   -4    3    5      8.75      0.00
   -4    3    4      5.44      0.00
   -4    3    3     -1.39      0.00
   -4    3    2     -9.15      0.00
   -4    3    1    -13.81      0.00
   -4    3    0    -11.61      0.00
    4   -3    1     -3.05      0.00
    4   -3    2      5.72      0.00
    4   -3    3      8.31      0.00
    4   -3    4      3.85      0.00
    4   -3    5     -3.19      0.00
    4   -3    6     -7.43      0.00
    4   -3    7     -6.26      0.00
    4   -3    8     -0.91      0.00
    4   -3    9      4.71      0.00
    4   -3   10      6.92      0.00
    4   -3   11      5.22      0.00
    4   -3   12      2.03      0.00
    4   -3   13     -0.21      0.00
    4   -3   14     -0.83      0.00
   -4    2   11     -1.62      0.00
   -4    2   10     -1.39      0.00
   -4    2    9     -0.55      0.00
   -4    2    8     -0.24      0.00
   -4    2    7     -1.59      0.00
   -4    2    6     -4.69      0.00
   -4    2    5     -7.15      0.00
   -4    2    4     -5.40      0.00
   -4    2    3      1.70      0.00
   -4    2    2     11.44      0.00
   -4    2    1     18.78      0.00
   -4    2    0     18.64      0.00
    4   -2    1      9.57      0.00
    4   -2    2     -3.66      0.00
    4   -2    3    -13.01      0.00
    4   -2    4    -13.63      0.00
    4   -2    5     -7.16      0.00
    4   -2    6      0.64      0.00
    4   -2    7      4.51      0.00
    4   -2    8      2.83      0.00
    4   -2    9     -1.86      0.00
    4   -2   10     -5.28      0.00
    4   -2   11     -5.21      0.00
    4   -2   12     -2.74      0.00
    4   -2   13     -0.16      0.00
    4   -2   14      1.09      0.00
   -4    1   11      3.47      0.00
   -4    1   10      3.53      0.00
   -4    1    9      0.79      0.00
   -4    1    8     -2.53      0.00
   -4    1    7     -3.68      0.00
   -4    1    6     -1.49      0.00
   -4    1    5      2.33      0.00
   -4    1    4      3.83      0.00
   -4    1    3      0.17      0.00
   -4    1    2     -7.69      0.00
   -4    1    1    -15.40      0.00
   -4    1    0    -17.46      0.00
    4   -1    1    -10.58      0.00
    4   -1    2      3.01      0.00
    4   -1    3     15.81      0.00
    4   -1    4     20.43      0.00
    4   -1    5     15.44      0.00
    4   -1    6      5.78      0.00
    4   -1    7     -2.21      0.00
    4   -1    8     -5.02      0.00
    4   -1    9     -3.04      0.00
    4   -1   10      0.62      0.00
    4   -1   11      2.66      0.00
    4   -1   12      2.06      0.00
    4   -1   13      0.18      0.00
    4   -1   14     -0.99      0.00
   -4    0   11     -3.17      0.00
   -4    0   10     -3.40      0.00
   -4    0    9      0.04      0.00
   -4    0    8      4.91      0.00
   -4    0    7      7.73      0.00
   -4    0    6      6.54      0.00
   -4    0    5      1.75      0.00
   -4    0    4     -3.72      0.00
   -4    0    3     -5.92      0.00
   -4    0    2     -2.82      0.00
   -4    0    1      3.64      0.00
    4    0    0      8.51      0.00
    4    0    1      6.91      0.00
    4    0    2     -2.18      0.00
    4    0    3    -13.97      0.00
    4    0    4    -20.44      0.00
    4    0    5    -17.30      0.00
    4    0    6     -7.75      0.00
    4    0    7      1.74      0.00
    4    0    8      7.05      0.00
    4    0    9      7.40      0.00
    4    0   10      4.28      0.00
    4    0   11      0.84      0.00
    4    0   12     -0.25      0.00
    4    0   13      0.80      0.00
    4    0   14      1.68      0.00
   -4   -1   11      1.39      0.00
   -4   -1   10      1.61      0.00
   -4   -1    9     -0.97      0.00
   -4   -1    8     -5.21      0.00
   -4   -1    7     -8.20      0.00
   -4   -1    6     -7.63      0.00
   -4   -1    5     -2.63      0.00
   -4   -1    4      5.38      0.00
   -4   -1    3     12.37      0.00
   -4   -1    2     14.00      0.00
   -4   -1    1      9.19      0.00
    4    1    0      1.33      0.00
    4    1    1     -3.96      0.00
    4    1    2     -2.37      0.00
    4    1    3      5.35      0.00
    4    1    4     12.56      0.00
    4    1    5     12.44      0.00
    4    1    6      5.29      0.00
    4    1    7     -3.00      0.00
    4    1    8     -7.95      0.00
    4    1    9     -8.66      0.00
    4    1   10     -5.89      0.00
    4    1   11     -1.85      0.00
    4    1   12      0.31      0.00
    4    1   13     -0.36      0.00
    4    1   14     -1.58      0.00
   -4   -2   11     -0.15      0.00
   -4   -2   10     -0.77      0.00
   -4   -2    9     -0.19      0.00
   -4   -2    8      1.96      0.00
   -4   -2    7      4.42      0.00
   -4   -2    6      4.99      0.00
   -4   -2    5      1.65      0.00
   -4   -2    4     -5.70      0.00
   -4   -2    3    -14.12      0.00
   -4   -2    2    -18.65      0.00
   -4   -2    1    -15.84      0.00
    4    2    0     -6.71      0.00
    4    2    1      3.70      0.00
    4    2    2      9.23      0.00
    4    2    3      6.73      0.00
    4    2    4     -0.25      0.00
    4    2    5     -4.09      0.00
    4    2    6     -1.53      0.00
    4    2    7      3.58      0.00
    4    2    8      6.67      0.00
    4    2    9      6.65      0.00
    4    2   10      4.00      0.00
    4    2   11     -0.17      0.00
    4    2   12     -3.17      0.00
    4    2   13     -2.96      0.00
    4    2   14     -0.98      0.00
    4    2   15     -0.04      0.00
   -4   -3   10      1.34      0.00
   -4   -3    9      2.74      0.00
   -4   -3    8      2.97      0.00
   -4   -3    7      1.25      0.00
   -4   -3    6     -1.16      0.00
   -4   -3    5     -1.39      0.00
   -4   -3    4      2.43      0.00
   -4   -3    3      9.24      0.00
   -4   -3    2     14.95      0.00
   -4   -3    1     14.77      0.00
    4    3    0      7.28      0.00
    4    3    1     -3.99      0.00
    4    3    2    -12.90      0.00
    4    3    3    -14.60      0.00
    4    3    4     -9.28      0.00
    4    3    5     -2.63      0.00
    4    3    6      0.02      0.00
    4    3    7     -1.02      0.00
    4    3    8     -2.40      0.00
    4    3    9     -2.36      0.00
    4    3   10     -0.63      0.00
    4    3   11      2.63      0.00
    4    3   12      5.60      0.00
    4    3   13      5.69      0.00
    4    3   14      3.18      0.00
    4    3   15      1.06      0.00
   -4   -4    9     -3.69      0.00
   -4   -4    8     -5.79      0.00
   -4   -4    7     -5.46      0.00
   -4   -4    6     -1.93      0.00
   -4   -4    5      2.02      0.00
   -4   -4    4      2.80      0.00
   -4   -4    3     -0.74      0.00
   -4   -4    2     -6.16      0.00
   -4   -4    1     -8.49      0.00
    4    4    0     -4.54      0.00
    4    4    1      3.67      0.00
    4    4    2     11.19      0.00
    4    4    3     14.01      0.00
    4    4    4     10.80      0.00
    4    4    5      3.92      0.00
    4    4    6     -1.95      0.00
    4    4    7     -4.01      0.00
    4    4    8     -3.29      0.00
    4    4    9     -2.19      0.00
    4    4   10     -2.18      0.00
    4    4   11     -3.52      0.00
    4    4   12     -5.08      0.00
    4    4   13     -4.74      0.00
    4    4   14     -2.19      0.00
    4    4   15      0.03      0.00
   -4   -5    9      2.10      0.00
   -4   -5    8      4.97      0.00
   -4   -5    7      6.43      0.00
   -4   -5    6      3.56      0.00
   -4   -5    5     -2.03      0.00
   -4   -5    4     -6.17      0.00
   -4   -5    3     -6.17      0.00
   -4   -5    2     -2.48      0.00
   -4   -5    1      1.22      0.00
    4    5    0      1.16      0.00
    4    5    1     -2.22      0.00
    4    5    2     -5.59      0.00
    4    5    3     -6.76      0.00
    4    5    4     -4.89      0.00
    4    5    5     -0.01      0.00
    4    5    6      5.41      0.00
    4    5    7      7.64      0.00
    4    5    8      6.01      0.00
    4    5    9      3.37      0.00
    4    5   10      2.06      0.00
    4    5   11      2.05      0.00
    4    5   12      2.35      0.00
    4    5   13      1.88      0.00
    4    5   14      0.25      0.00
    4    5   15     -1.14      0.00
   -4   -6    8     -2.08      0.00
   -4   -6    7     -4.25      0.00
   -4   -6    6     -3.03      0.00
   -4   -6    5      1.33      0.00
   -4   -6    4      5.70      0.00
   -4   -6    3      7.69      0.00
   -4   -6    2      6.32      0.00
   -4   -6    1      2.73      0.00
    4    6    0     -0.13      0.00
    4    6    1     -1.00      0.00
    4    6    2     -1.27      0.00
    4    6    3     -1.93      0.00
    4    6    4     -3.12      0.00
    4    6    5     -5.32      0.00
    4    6    6     -7.67      0.00
    4    6    7     -7.38      0.00
    4    6    8     -3.82      0.00
    4    6    9     -0.12      0.00
    4    6   10      1.27      0.00
    4    6   11      1.16      0.00
    4    6   12      0.73      0.00
    4    6   13      0.04      0.00
    4    6   14     -0.36      0.00
    4    6   15     -0.10      0.00
   -4   -7    8     -0.27      0.00
   -4   -7    7      0.83      0.00
   -4   -7    6      0.71      0.00
   -4   -7    5     -0.70      0.00
   -4   -7    4     -2.31      0.00
   -4   -7    3     -3.79      0.00
   -4   -7    2     -4.08      0.00
   -4   -7    1     -1.88      0.00
    4    7    0      1.68      0.00
    4    7    1      4.27      0.00
    4    7    2      5.48      0.00
    4    7    3      6.13      0.00
    4    7    4      6.68      0.00
    4    7    5      7.27      0.00
    4    7    6      7.12      0.00
    4    7    7      4.56      0.00
    4    7    8     -0.13      0.00
    4    7    9     -3.73      0.00
    4    7   10     -4.35      0.00
    4    7   11     -3.53      0.00
    4    7   12     -2.44      0.00
    4    7   13     -0.46      0.00
    4    7   14      1.68      0.00
    4    7   15      2.14      0.00
   -4   -8    7      1.35      0.00
   -4   -8    6      1.33      0.00
   -4   -8    5      0.17      0.00
   -4   -8    4     -1.53      0.00
   -4   -8    3     -1.90      0.00
   -4   -8    2     -1.13      0.00
   -4   -8    1     -1.59      0.00
    4    8    0     -3.65      0.00
    4    8    1     -5.15      0.00
    4    8    2     -4.91      0.00
    4    8    3     -3.93      0.00
    4    8    4     -3.59      0.00
    4    8    5     -3.98      0.00
    4    8    6     -3.73      0.00
    4    8    7     -1.38      0.00
    4    8    8      2.37      0.00
    4    8    9      4.80      0.00
    4    8   10      4.67      0.00
    4    8   11      3.50      0.00
    4    8   12      2.23      0.00
    4    8   13      0.10      0.00
    4    8   14     -2.12      0.00
   -4   -9    6     -1.86      0.00
   -4   -9    5      0.23      0.00
   -4   -9    4      3.52      0.00
   -4   -9    3      5.15      0.00
   -4   -9    2      4.71      0.00
   -4   -9    1      4.21      0.00
    4    9    0      4.31      0.00
    4    9    1      3.64      0.00
    4    9    2      1.50      0.00
    4    9    3     -1.01      0.00
    4    9    4     -2.18      0.00
    4    9    5     -1.54      0.00
    4    9    6     -0.48      0.00
    4    9    7     -0.71      0.00
    4    9    8     -2.17      0.00
    4    9    9     -3.25      0.00
    4    9   10     -3.09      0.00
    4    9   11     -2.39      0.00
    4    9   12     -1.41      0.00
    4    9   13      0.20      0.00
   -4  -10    5     -0.37      0.00
   -4  -10    4     -3.38      0.00
   -4  -10    3     -5.03      0.00
   -4  -10    2     -4.85      0.00
   -4  -10    1     -4.23      0.00
    4   10    0     -3.23      0.00
    4   10    1     -1.08      0.00
    4   10    2      1.86      0.00
    4   10    3      4.55      0.00
    4   10    4      5.80      0.00
    4   10    5      4.87      0.00
    4   10    6      2.54      0.00
    4   10    7      0.58      0.00
    4   10    8     -0.16      0.00
    4   10    9      0.00      0.00
    4   10   10      0.56      0.00
    4   10   11      1.16      0.00
    4   10   12      1.07      0.00
    4   10   13      0.05      0.00
   -4  -11    4      2.55      0.00
   -4  -11    3      3.52      0.00
   -4  -11    2      3.08      0.00
   -4  -11    1      2.50      0.00
    4   11    0      1.50      0.00
    4   11    1     -0.64      0.00
    4   11    2     -3.13      0.00
    4   11    3     -4.99      0.00
    4   11    4     -5.64      0.00
    4   11    5     -4.43      0.00
    4   11    6     -1.62      0.00
    4   11    7      1.30      0.00
    4   11    8      3.12      0.00
    4   11    9      3.44      0.00
    4   11   10      2.30      0.00
    4   11   11      0.39      0.00
    4   11   12     -0.79      0.00
   -4  -12    3     -1.93      0.00
   -4  -12    2     -0.97      0.00
   -4  -12    1     -0.39      0.00
    4   12    0     -0.42      0.00
    4   12    1      0.08      0.00
    4   12    2      1.14      0.00
    4   12    3      2.18      0.00
    4   12    4      2.66      0.00
    4   12    5      1.86      0.00
    4   12    6     -0.25      0.00
    4   12    7     -2.53      0.00
    4   12    8     -4.10      0.00
    4   12    9     -4.59      0.00
    4   12   10     -3.62      0.00
    4   12   11     -1.50      0.00
   -4  -13    2     -0.69      0.00
   -4  -13    1     -1.25      0.00
    4   13    0     -0.19      0.00
    4   13    1      1.30      0.00
    4   13    2      1.93      0.00
    4   13    3      1.43      0.00
    4   13    4      0.49      0.00
    4   13    5      0.29      0.00
    4   13    6      1.04      0.00
    4   13    7      1.96      0.00
    4   13    8      2.69      0.00
    4   13    9      3.14      0.00
    4   13   10      2.72      0.00
   -4  -14    1      1.46      0.00
    4   14    0      0.61      0.00
    4   14    1     -1.15      0.00
    4   14    2     -2.38      0.00
    4   14    3     -2.27      0.00
    4   14    4     -1.31      0.00
    4   14    5     -0.76      0.00
    4   14    6     -0.87      0.00
    4   14    7     -1.02      0.00
    4   14    8     -1.15      0.00
    4   14    9     -1.42      0.00
    4   15    5      0.38      0.00
    4   15    6      0.81      0.00
   -5   11    3      0.53      0.00
   -5   11    2      0.67      0.00
   -5   11    1      0.52      0.00
   -5   10    4     -1.11      0.00
   -5   10    3     -0.84      0.00
   -5   10    2     -0.65      0.00
   -5   10    1     -0.49      0.00
   -5   10    0      0.00      0.00
    5  -10    1      0.98      0.00
    5  -10    2      1.81      0.00
    5  -10    3      1.72      0.00
   -5    9    5     -0.03      0.00
   -5    9    4     -0.49      0.00
   -5    9    3     -0.40      0.00
   -5    9    2      0.21      0.00
   -5    9    1      0.88      0.00
   -5    9    0      0.74      0.00
    5   -9    1     -0.32      0.00
    5   -9    2     -1.30      0.00
    5   -9    3     -1.40      0.00
    5   -9    4     -0.71      0.00
    5   -9    5      0.52      0.00
    5   -9    6      1.76      0.00
   -5    8    7     -0.96      0.00
   -5    8    6     -0.18      0.00
   -5    8    5      1.77      0.00
   -5    8    4      3.10      0.00
   -5    8    3      2.66      0.00
   -5    8    2      0.55      0.00
   -5    8    1     -1.92      0.00
   -5    8    0     -2.91      0.00
    5   -8    1     -1.97      0.00
    5   -8    2     -0.43      0.00
    5   -8    3      0.71      0.00
    5   -8    4      1.28      0.00
    5   -8    5      0.63      0.00
    5   -8    6     -1.27      0.00
    5   -8    7     -2.46      0.00
    5   -8    8     -1.70      0.00
   -5    7    8     -1.00      0.00
   -5    7    7      0.99      0.00
   -5    7    6      1.32      0.00
   -5    7    5     -0.86      0.00
   -5    7    4     -3.27      0.00
   -5    7    3     -3.40      0.00
   -5    7    2     -0.70      0.00
   -5    7    1      3.23      0.00
   -5    7    0      5.77      0.00
    5   -7    1      5.56      0.00
    5   -7    2      3.30      0.00
    5   -7    3      0.10      0.00
    5   -7    4     -3.01      0.00
    5   -7    5     -4.05      0.00
    5   -7    6     -1.94      0.00
    5   -7    7      0.92      0.00
    5   -7    8      1.68      0.00
    5   -7    9      0.93      0.00
   -5    6    9      2.30      0.00
   -5    6    8      1.58      0.00
   -5    6    7     -1.23      0.00
   -5    6    6     -2.92      0.00
   -5    6    5     -1.61      0.00
   -5    6    4      1.05      0.00
   -5    6    3      2.18      0.00
   -5    6    2      0.47      0.00
   -5    6    1     -3.22      0.00
   -5    6    0     -6.68      0.00
    5   -6    1     -7.75      0.00
    5   -6    2     -5.60      0.00
    5   -6    3     -0.77      0.00
    5   -6    4      4.73      0.00
    5   -6    5      7.54      0.00
    5   -6    6      5.70      0.00
    5   -6    7      1.49      0.00
    5   -6    8     -1.35      0.00
    5   -6    9     -2.11      0.00
    5   -6   10     -1.91      0.00
    5   -6   11     -0.96      0.00
   -5    5    9     -0.50      0.00
   -5    5    8      0.57      0.00
   -5    5    7      2.86      0.00
   -5    5    6      4.38      0.00
   -5    5    5      3.64      0.00
   -5    5    4      1.31      0.00
   -5    5    3     -0.73      0.00
   -5    5    2     -1.05      0.00
   -5    5    1      0.68      0.00
   -5    5    0      3.72      0.00
    5   -5    1      6.23      0.00
    5   -5    2      5.77      0.00
    5   -5    3      1.36      0.00
    5   -5    4     -4.87      0.00
    5   -5    5     -8.68      0.00
    5   -5    6     -7.51      0.00
    5   -5    7     -3.03      0.00
    5   -5    8      1.25      0.00
    5   -5    9      3.77      0.00
    5   -5   10      4.47      0.00
    5   -5   11      3.12      0.00
    5   -5   12      0.82      0.00
   -5    4   10     -0.38      0.00
   -5    4    9     -1.61      0.00
   -5    4    8     -3.35      0.00
   -5    4    7     -4.90      0.00
   -5    4    6     -5.62      0.00
   -5    4    5     -5.13      0.00
   -5    4    4     -3.09      0.00
   -5    4    3      0.11      0.00
   -5    4    2      3.03      0.00
   -5    4    1      4.04      0.00
   -5    4    0      2.12      0.00
    5   -4    1     -1.95      0.00
    5   -4    2     -4.89      0.00
    5   -4    3     -3.44      0.00
    5   -4    4      1.66      0.00
    5   -4    5      6.14      0.00
    5   -4    6      6.61      0.00
    5   -4    7      3.38      0.00
    5   -4    8     -1.09      0.00
    5   -4    9     -4.86      0.00
    5   -4   10     -6.53      0.00
    5   -4   11     -5.06      0.00
    5   -4   12     -1.73      0.00
    5   -4   13      0.33      0.00
   -5    3   10      0.60      0.00
   -5    3    9      1.78      0.00
   -5    3    8      3.19      0.00
   -5    3    7      4.26      0.00
   -5    3    6      5.08      0.00
   -5    3    5      5.52      0.00
   -5    3    4      4.02      0.00
   -5    3    3     -0.39      0.00
   -5    3    2     -5.85      0.00
   -5    3    1     -9.23      0.00
   -5    3    0     -8.19      0.00
    5   -3    1     -2.44      0.00
    5   -3    2      4.72      0.00
    5   -3    3      8.01      0.00
    5   -3    4      5.40      0.00
    5   -3    5      0.19      0.00
    5   -3    6     -3.14      0.00
    5   -3    7     -2.84      0.00
    5   -3    8      0.26      0.00
    5   -3    9      4.29      0.00
    5   -3   10      6.76      0.00
    5   -3   11      5.65      0.00
    5   -3   12      1.94      0.00
    5   -3   13     -0.91      0.00
    5   -3   14     -1.11      0.00
   -5    2   10     -1.66      0.00
   -5    2    9     -1.26      0.00
   -5    2    8     -0.58      0.00
   -5    2    7     -0.58      0.00
   -5    2    6     -1.81      0.00
   -5    2    5     -3.71      0.00
   -5    2    4     -3.65      0.00
   -5    2    3      0.43      0.00
   -5    2    2      6.73      0.00
   -5    2    1     11.21      0.00
   -5    2    0     10.80      0.00
    5   -2    1      4.42      0.00
    5   -2    2     -5.52      0.00
    5   -2    3    -12.98      0.00
    5   -2    4    -13.31      0.00
    5   -2    5     -7.82      0.00
    5   -2    6     -1.47      0.00
    5   -2    7      2.07      0.00
    5   -2    8      1.83      0.00
    5   -2    9     -1.21      0.00
    5   -2   10     -4.38      0.00
    5   -2   11     -4.63      0.00
    5   -2   12     -1.77      0.00
    5   -2   13      1.16      0.00
    5   -2   14      1.74      0.00
   -5    1   10      2.93      0.00
   -5    1    9      1.14      0.00
   -5    1    8     -2.00      0.00
   -5    1    7     -3.61      0.00
   -5    1    6     -2.43      0.00
   -5    1    5      0.76      0.00
   -5    1    4      3.18      0.00
   -5    1    3      2.01      0.00
   -5    1    2     -2.29      0.00
   -5    1    1     -6.42      0.00
   -5    1    0     -7.27      0.00
    5   -1    1     -2.85      0.00
    5   -1    2      6.19      0.00
    5   -1    3     14.88      0.00
    5   -1    4     17.33      0.00
    5   -1    5     12.56      0.00
    5   -1    6      4.64      0.00
    5   -1    7     -1.92      0.00
    5   -1    8     -4.79      0.00
    5   -1    9     -3.62      0.00
    5   -1   10     -0.14      0.00
    5   -1   11      2.17      0.00
    5   -1   12      1.29      0.00
    5   -1   13     -1.04      0.00
    5   -1   14     -1.93      0.00
   -5    0   10     -2.55      0.00
   -5    0    9     -0.55      0.00
   -5    0    8      3.64      0.00
   -5    0    7      6.21      0.00
   -5    0    6      5.14      0.00
   -5    0    5      0.92      0.00
   -5    0    4     -4.26      0.00
   -5    0    3     -7.28      0.00
   -5    0    2     -6.55      0.00
   -5    0    1     -3.17      0.00
    5    0    0      0.19      0.00
    5    0    1      0.39      0.00
    5    0    2     -4.26      0.00
    5    0    3    -11.17      0.00
    5    0    4    -14.77      0.00
    5    0    5    -11.94      0.00
    5    0    6     -4.76      0.00
    5    0    7      2.47      0.00
    5    0    8      6.77      0.00
    5    0    9      6.97      0.00
    5    0   10      3.73      0.00
    5    0   11      0.03      0.00
    5    0   12     -0.98      0.00
    5    0   13      0.54      0.00
    5    0   14      1.76      0.00
   -5   -1   10      1.06      0.00
   -5   -1    9      0.06      0.00
   -5   -1    8     -3.34      0.00
   -5   -1    7     -5.96      0.00
   -5   -1    6     -5.22      0.00
   -5   -1    5     -0.82      0.00
   -5   -1    4      5.86      0.00
   -5   -1    3     11.88      0.00
   -5   -1    2     14.04      0.00
   -5   -1    1     11.11      0.00
    5    1    0      4.79      0.00
    5    1    1     -0.84      0.00
    5    1    2     -1.82      0.00
    5    1    3      2.04      0.00
    5    1    4      6.50      0.00
    5    1    5      6.87      0.00
    5    1    6      2.56      0.00
    5    1    7     -3.05      0.00
    5    1    8     -6.55      0.00
    5    1    9     -6.62      0.00
    5    1   10     -3.70      0.00
    5    1   11      0.22      0.00
    5    1   12      2.26      0.00
    5    1   13      1.44      0.00
    5    1   14     -0.19      0.00
   -5   -2   10     -0.47      0.00
   -5   -2    9     -1.32      0.00
   -5   -2    8      0.09      0.00
   -5   -2    7      2.38      0.00
   -5   -2    6      3.04      0.00
   -5   -2    5      0.59      0.00
   -5   -2    4     -4.94      0.00
   -5   -2    3    -11.45      0.00
   -5   -2    2    -15.29      0.00
   -5   -2    1    -13.38      0.00
    5    2    0     -5.77      0.00
    5    2    1      3.50      0.00
    5    2    2      8.98      0.00
    5    2    3      8.12      0.00
    5    2    4      3.18      0.00
    5    2    5     -0.78      0.00
    5    2    6     -0.63      0.00
    5    2    7      2.20      0.00
    5    2    8      4.17      0.00
    5    2    9      3.64      0.00
    5    2   10      1.10      0.00
    5    2   11     -2.24      0.00
    5    2   12     -4.55      0.00
    5    2   13     -4.36      0.00
    5    2   14     -2.43      0.00
   -5   -3    9      3.18      0.00
   -5   -3    8      3.96      0.00
   -5   -3    7      2.49      0.00
   -5   -3    6      0.02      0.00
   -5   -3    5     -1.21      0.00
   -5   -3    4      0.62      0.00
   -5   -3    3      5.28      0.00
   -5   -3    2      9.85      0.00
   -5   -3    1     10.23      0.00
    5    3    0      4.43      0.00
    5    3    1     -4.78      0.00
    5    3    2    -11.86      0.00
    5    3    3    -13.10      0.00
    5    3    4     -8.77      0.00
    5    3    5     -2.48      0.00
    5    3    6      1.42      0.00
    5    3    7      1.62      0.00
    5    3    8      0.43      0.00
    5    3    9      0.27      0.00
    5    3   10      1.48      0.00
    5    3   11      3.46      0.00
    5    3   12      5.19      0.00
    5    3   13      5.23      0.00
    5    3   14      3.25      0.00
    5    3   15      1.05      0.00
   -5   -4    8     -5.13      0.00
   -5   -4    7     -5.22      0.00
   -5   -4    6     -2.42      0.00
   -5   -4    5      1.82      0.00
   -5   -4    4      4.22      0.00
   -5   -4    3      2.79      0.00
   -5   -4    2     -1.29      0.00
   -5   -4    1     -4.12      0.00
    5    4    0     -2.32      0.00
    5    4    1      3.28      0.00
    5    4    2      8.45      0.00
    5    4    3     10.02      0.00
    5    4    4      7.27      0.00
    5    4    5      1.37      0.00
    5    4    6     -4.46      0.00
    5    4    7     -6.77      0.00
    5    4    8     -5.48      0.00
    5    4    9     -3.39      0.00
    5    4   10     -2.46      0.00
    5    4   11     -2.68      0.00
    5    4   12     -3.24      0.00
    5    4   13     -2.99      0.00
    5    4   14     -1.36      0.00
    5    4   15      0.45      0.00
   -5   -5    8      2.99      0.00
   -5   -5    7      4.56      0.00
   -5   -5    6      3.23      0.00
   -5   -5    5     -1.39      0.00
   -5   -5    4     -6.09      0.00
   -5   -5    3     -7.49      0.00
   -5   -5    2     -4.97      0.00
   -5   -5    1     -1.00      0.00
    5    5    0      1.02      0.00
    5    5    1      0.27      0.00
    5    5    2     -1.15      0.00
    5    5    3     -1.59      0.00
    5    5    4     -0.60      0.00
    5    5    5      2.45      0.00
    5    5    6      6.69      0.00
    5    5    7      8.71      0.00
    5    5    8      6.69      0.00
    5    5    9      2.99      0.00
    5    5   10      0.71      0.00
    5    5   11      0.19      0.00
    5    5   12      0.30      0.00
    5    5   13      0.20      0.00
    5    5   14     -0.42      0.00
    5    5   15     -1.15      0.00
   -5   -6    7     -2.11      0.00
   -5   -6    6     -2.54      0.00
   -5   -6    5      0.09      0.00
   -5   -6    4      4.03      0.00
   -5   -6    3      6.30      0.00
   -5   -6    2      5.43      0.00
   -5   -6    1      2.00      0.00
    5    6    0     -1.78      0.00
    5    6    1     -4.13      0.00
    5    6    2     -5.26      0.00
    5    6    3     -5.72      0.00
    5    6    4     -5.53      0.00
    5    6    5     -5.54      0.00
    5    6    6     -6.27      0.00
    5    6    7     -5.93      0.00
    5    6    8     -2.87      0.00
    5    6    9      1.09      0.00
    5    6   10      3.03      0.00
    5    6   11      2.72      0.00
    5    6   12      1.73      0.00
    5    6   13      0.72      0.00
    5    6   14     -0.05      0.00
    5    6   15     -0.19      0.00
   -5   -7    7     -0.09      0.00
   -5   -7    6      1.16      0.00
   -5   -7    5      1.29      0.00
   -5   -7    4      0.19      0.00
   -5   -7    3     -1.09      0.00
   -5   -7    2     -1.32      0.00
   -5   -7    1      0.42      0.00
    5    7    0      3.46      0.00
    5    7    1      5.87      0.00
    5    7    2      6.83      0.00
    5    7    3      6.79      0.00
    5    7    4      6.15      0.00
    5    7    5      5.16      0.00
    5    7    6      3.90      0.00
    5    7    7      1.73      0.00
    5    7    8     -1.65      0.00
    5    7    9     -4.69      0.00
    5    7   10     -5.41      0.00
    5    7   11     -3.99      0.00
    5    7   12     -1.92      0.00
    5    7   13      0.13      0.00
    5    7   14      1.77      0.00
    5    7   15      2.02      0.00
   -5   -8    6      0.17      0.00
   -5   -8    5     -1.90      0.00
   -5   -8    4     -3.59      0.00
   -5   -8    3     -3.83      0.00
   -5   -8    2     -3.10      0.00
   -5   -8    1     -3.05      0.00
    5    8    0     -4.03      0.00
    5    8    1     -4.57      0.00
    5    8    2     -3.74      0.00
    5    8    3     -2.35      0.00
    5    8    4     -1.57      0.00
    5    8    5     -1.41      0.00
    5    8    6     -0.93      0.00
    5    8    7      0.66      0.00
    5    8    8      2.95      0.00
    5    8    9      4.63      0.00
    5    8   10      4.64      0.00
    5    8   11      3.09      0.00
    5    8   12      0.90      0.00
    5    8   13     -1.24      0.00
    5    8   14     -2.71      0.00
    5    8   15     -2.58      0.00
   -5   -9    5      1.37      0.00
   -5   -9    4      4.21      0.00
   -5   -9    3      5.39      0.00
   -5   -9    2      4.74      0.00
   -5   -9    1      3.82      0.00
    5    9    0      3.13      0.00
    5    9    1      1.72      0.00
    5    9    2     -0.70      0.00
    5    9    3     -3.02      0.00
    5    9    4     -3.85      0.00
    5    9    5     -2.86      0.00
    5    9    6     -1.29      0.00
    5    9    7     -0.60      0.00
    5    9    8     -0.98      0.00
    5    9    9     -1.71      0.00
    5    9   10     -2.05      0.00
    5    9   11     -1.50      0.00
    5    9   12     -0.08      0.00
    5    9   13      1.49      0.00
    5    9   14      2.22      0.00
   -5  -10    5     -0.61      0.00
   -5  -10    4     -2.87      0.00
   -5  -10    3     -4.11      0.00
   -5  -10    2     -3.84      0.00
   -5  -10    1     -3.11      0.00
    5   10    0     -1.93      0.00
    5   10    1      0.45      0.00
    5   10    2      3.51      0.00
    5   10    3      5.85      0.00
    5   10    4      6.41      0.00
    5   10    5      4.71      0.00
    5   10    6      1.49      0.00
    5   10    7     -1.34      0.00
    5   10    8     -2.54      0.00
    5   10    9     -2.13      0.00
    5   10   10     -0.83      0.00
    5   10   11      0.09      0.00
    5   10   12     -0.17      0.00
    5   10   13     -1.02      0.00
    5   10   14     -1.22      0.00
   -5  -11    4      1.47      0.00
   -5  -11    3      2.22      0.00
   -5  -11    2      2.14      0.00
   -5  -11    1      1.99      0.00
    5   11    0      1.51      0.00
    5   11    1     -0.34      0.00
    5   11    2     -2.96      0.00
    5   11    3     -4.83      0.00
    5   11    4     -5.14      0.00
    5   11    5     -3.42      0.00
    5   11    6      0.05      0.00
    5   11    7      3.49      0.00
    5   11    8      5.18      0.00
    5   11    9      4.82      0.00
    5   11   10      3.06      0.00
    5   11   11      1.17      0.00
    5   11   12      0.33      0.00
    5   11   13      0.45      0.00
   -5  -12    3     -0.70      0.00
   -5  -12    2     -0.46      0.00
   -5  -12    1     -0.65      0.00
    5   12    0     -1.46      0.00
    5   12    1     -1.49      0.00
    5   12    2     -0.31      0.00
    5   12    3      1.07      0.00
    5   12    4      1.72      0.00
    5   12    5      0.97      0.00
    5   12    6     -1.23      0.00
    5   12    7     -3.57      0.00
    5   12    8     -4.77      0.00
    5   12    9     -4.68      0.00
    5   12   10     -3.53      0.00
    5   12   11     -1.80      0.00
    5   12   12     -0.44      0.00
   -5  -13    2     -0.69      0.00
   -5  -13    1     -0.68      0.00
    5   13    0      0.71      0.00
    5   13    1      2.31      0.00
    5   13    2      2.64      0.00
    5   13    3      1.73      0.00
    5   13    4      0.54      0.00
    5   13    5      0.11      0.00
    5   13    6      0.78      0.00
    5   13    7      1.69      0.00
    5   13    8      2.21      0.00
    5   13    9      2.54      0.00
    5   13   10      2.45      0.00
    5   13   11      1.54      0.00
    5   14    5      0.22      0.00
    5   14    6      0.04      0.00
    5   14    7     -0.29      0.00
    5   14    8     -0.46      0.00
    5   14    9     -0.86      0.00
   -6   10    2      0.19      0.00
   -6   10    1     -0.07      0.00
   -6   10    0     -0.38      0.00
    6  -10    1     -0.14      0.00
   -6    9    3     -0.77      0.00
   -6    9    2     -0.22      0.00
   -6    9    1      0.88      0.00
   -6    9    0      1.68      0.00
    6   -9    1      1.28      0.00
    6   -9    2      0.51      0.00
    6   -9    3      0.31      0.00
    6   -9    4      0.33      0.00
   -6    8    5      1.26      0.00
   -6    8    4      1.82      0.00
   -6    8    3      1.27      0.00
   -6    8    2     -0.03      0.00
   -6    8    1     -1.95      0.00
   -6    8    0     -3.29      0.00
    6   -8    1     -2.83      0.00
    6   -8    2     -1.51      0.00
    6   -8    3     -0.60      0.00
    6   -8    4      0.16      0.00
    6   -8    5      0.75      0.00
    6   -8    6      0.24      0.00
   -6    7    7      1.56      0.00
   -6    7    6      2.22      0.00
   -6    7    5      0.89      0.00
   -6    7    4     -0.65      0.00
   -6    7    3     -1.06      0.00
   -6    7    2     -0.03      0.00
   -6    7    1      2.35      0.00
   -6    7    0      4.61      0.00
    6   -7    1      4.79      0.00
    6   -7    2      3.08      0.00
    6   -7    3      0.82      0.00
    6   -7    4     -1.61      0.00
    6   -7    5     -3.36      0.00
    6   -7    6     -2.76      0.00
    6   -7    7     -0.49      0.00
    6   -7    8      0.77      0.00
   -6    6    8      0.32      0.00
   -6    6    7     -2.14      0.00
   -6    6    6     -4.05      0.00
   -6    6    5     -3.48      0.00
   -6    6    4     -1.35      0.00
   -6    6    3      0.56      0.00
   -6    6    2      0.92      0.00
   -6    6    1     -0.99      0.00
   -6    6    0     -3.97      0.00
    6   -6    1     -5.46      0.00
    6   -6    2     -4.31      0.00
    6   -6    3     -1.24      0.00
    6   -6    4      2.72      0.00
    6   -6    5      5.64      0.00
    6   -6    6      5.17      0.00
    6   -6    7      1.88      0.00
    6   -6    8     -0.94      0.00
    6   -6    9     -1.90      0.00
    6   -6   10     -2.09      0.00
   -6    5    8      1.48      0.00
   -6    5    7      3.22      0.00
   -6    5    6      4.73      0.00
   -6    5    5      4.56      0.00
   -6    5    4      2.68      0.00
   -6    5    3     -0.05      0.00
   -6    5    2     -2.10      0.00
   -6    5    1     -1.74      0.00
   -6    5    0      0.87      0.00
    6   -5    1      3.48      0.00
    6   -5    2      4.02      0.00
    6   -5    3      1.91      0.00
    6   -5    4     -2.10      0.00
    6   -5    5     -5.58      0.00
    6   -5    6     -5.74      0.00
    6   -5    7     -2.57      0.00
    6   -5    8      1.07      0.00
    6   -5    9      3.38      0.00
    6   -5   10      4.44      0.00
    6   -5   11      3.86      0.00
   -6    4    9     -2.08      0.00
   -6    4    8     -3.08      0.00
   -6    4    7     -4.04      0.00
   -6    4    6     -4.60      0.00
   -6    4    5     -4.53      0.00
   -6    4    4     -3.33      0.00
   -6    4    3     -0.39      0.00
   -6    4    2      3.15      0.00
   -6    4    1      4.65      0.00
   -6    4    0      3.03      0.00
    6   -4    1     -0.36      0.00
    6   -4    2     -3.35      0.00
    6   -4    3     -3.91      0.00
    6   -4    4     -1.32      0.00
    6   -4    5      2.42      0.00
    6   -4    6      4.02      0.00
    6   -4    7      2.46      0.00
    6   -4    8     -0.60      0.00
    6   -4    9     -3.60      0.00
    6   -4   10     -5.64      0.00
    6   -4   11     -5.33      0.00
    6   -4   12     -2.53      0.00
   -6    3    9      1.40      0.00
   -6    3    8      2.10      0.00
   -6    3    7      2.82      0.00
   -6    3    6      3.44      0.00
   -6    3    5      3.98      0.00
   -6    3    4      3.57      0.00
   -6    3    3      0.62      0.00
   -6    3    2     -4.06      0.00
   -6    3    1     -6.94      0.00
   -6    3    0     -5.89      0.00
    6   -3    1     -1.56      0.00
    6   -3    2      4.01      0.00
    6   -3    3      7.74      0.00
    6   -3    4      7.00      0.00
    6   -3    5      2.81      0.00
    6   -3    6     -0.94      0.00
    6   -3    7     -1.91      0.00
    6   -3    8     -0.55      0.00
    6   -3    9      2.12      0.00
    6   -3   10      4.71      0.00
    6   -3   11      4.95      0.00
    6   -3   12      2.25      0.00
    6   -3   13     -0.52      0.00
   -6    2    9     -0.57      0.00
   -6    2    8      0.28      0.00
   -6    2    7      0.14      0.00
   -6    2    6     -1.08      0.00
   -6    2    5     -2.72      0.00
   -6    2    4     -3.51      0.00
   -6    2    3     -1.46      0.00
   -6    2    2      3.14      0.00
   -6    2    1      6.57      0.00
   -6    2    0      5.97      0.00
    6   -2    1      1.37      0.00
    6   -2    2     -5.55      0.00
    6   -2    3    -11.31      0.00
    6   -2    4    -11.93      0.00
    6   -2    5     -7.27      0.00
    6   -2    6     -1.47      0.00
    6   -2    7      2.05      0.00
    6   -2    8      2.72      0.00
    6   -2    9      0.97      0.00
    6   -2   10     -2.00      0.00
    6   -2   11     -3.36      0.00
    6   -2   12     -1.53      0.00
    6   -2   13      1.06      0.00
   -6    1    9      0.54      0.00
   -6    1    8     -2.04      0.00
   -6    1    7     -3.02      0.00
   -6    1    6     -1.50      0.00
   -6    1    5      1.20      0.00
   -6    1    4      3.70      0.00
   -6    1    3      4.09      0.00
   -6    1    2      1.51      0.00
   -6    1    1     -1.69      0.00
   -6    1    0     -2.47      0.00
    6   -1    1      0.24      0.00
    6   -1    2      5.82      0.00
    6   -1    3     11.47      0.00
    6   -1    4     12.83      0.00
    6   -1    5      8.57      0.00
    6   -1    6      2.02      0.00
    6   -1    7     -3.11      0.00
    6   -1    8     -5.52      0.00
    6   -1    9     -4.78      0.00
    6   -1   10     -1.42      0.00
    6   -1   11      1.57      0.00
    6   -1   12      1.36      0.00
    6   -1   13     -0.83      0.00
   -6    0    9     -0.32      0.00
   -6    0    8      2.87      0.00
   -6    0    7      4.66      0.00
   -6    0    6      3.10      0.00
   -6    0    5     -0.45      0.00
   -6    0    4     -4.56      0.00
   -6    0    3     -7.70      0.00
   -6    0    2     -7.87      0.00
   -6    0    1     -5.15      0.00
    6    0    0     -1.98      0.00
    6    0    1     -0.82      0.00
    6    0    2     -2.85      0.00
    6    0    3     -6.76      0.00
    6    0    4     -8.80      0.00
    6    0    5     -6.49      0.00
    6    0    6     -1.33      0.00
    6    0    7      3.67      0.00
    6    0    8      6.69      0.00
    6    0    9      6.64      0.00
    6    0   10      3.36      0.00
    6    0   11     -0.70      0.00
    6    0   12     -2.08      0.00
    6    0   13     -0.55      0.00
   -6   -1    9      0.32      0.00
   -6   -1    8     -2.15      0.00
   -6   -1    7     -4.23      0.00
   -6   -1    6     -3.16      0.00
   -6   -1    5      0.40      0.00
   -6   -1    4      5.07      0.00
   -6   -1    3      9.61      0.00
   -6   -1    2     11.53      0.00
   -6   -1    1      9.12      0.00
    6    1    0      3.71      0.00
    6    1    1     -1.35      0.00
    6    1    2     -3.08      0.00
    6    1    3     -1.08      0.00
    6    1    4      1.93      0.00
    6    1    5      2.67      0.00
    6    1    6      0.48      0.00
    6    1    7     -2.84      0.00
    6    1    8     -5.10      0.00
    6    1    9     -4.94      0.00
    6    1   10     -2.22      0.00
    6    1   11      1.47      0.00
    6    1   12      3.53      0.00
    6    1   13      2.87      0.00
    6    1   14      1.09      0.00
   -6   -2    9     -1.52      0.00
   -6   -2    8     -0.74      0.00
   -6   -2    7      1.32      0.00
   -6   -2    6      1.82      0.00
   -6   -2    5      0.07      0.00
   -6   -2    4     -3.30      0.00
   -6   -2    3     -7.47      0.00
   -6   -2    2    -10.16      0.00
   -6   -2    1     -8.61      0.00
    6    2    0     -2.70      0.00
    6    2    1      4.31      0.00
    6    2    2      8.34      0.00
    6    2    3      7.60      0.00
    6    2    4      3.73      0.00
    6    2    5      0.16      0.00
    6    2    6     -0.75      0.00
    6    2    7      0.60      0.00
    6    2    8      1.86      0.00
    6    2    9      1.36      0.00
    6    2   10     -0.61      0.00
    6    2   11     -2.96      0.00
    6    2   12     -4.59      0.00
    6    2   13     -4.59      0.00
    6    2   14     -3.01      0.00
   -6   -3    8      3.58      0.00
   -6   -3    7      2.20      0.00
   -6   -3    6      0.07      0.00
   -6   -3    5     -1.27      0.00
   -6   -3    4     -0.98      0.00
   -6   -3    3      1.40      0.00
   -6   -3    2      4.46      0.00
   -6   -3    1      4.98      0.00
    6    3    0      1.25      0.00
    6    3    1     -4.70      0.00
    6    3    2     -8.79      0.00
    6    3    3     -8.57      0.00
    6    3    4     -4.70      0.00
    6    3    5      0.22      0.00
    6    3    6      3.29      0.00
    6    3    7      3.36      0.00
    6    3    8      2.12      0.00
    6    3    9      1.78      0.00
    6    3   10      2.46      0.00
    6    3   11      3.29      0.00
    6    3   12      4.02      0.00
    6    3   13      4.18      0.00
    6    3   14      2.96      0.00
   -6   -4    7     -3.41      0.00
   -6   -4    6     -1.28      0.00
   -6   -4    5      2.11      0.00
   -6   -4    4      4.96      0.00
   -6   -4    3      5.07      0.00
   -6   -4    2      2.34      0.00
   -6   -4    1     -0.48      0.00
    6    4    0     -0.61      0.00
    6    4    1      1.70      0.00
    6    4    2      3.74      0.00
    6    4    3      3.51      0.00
    6    4    4      0.97      0.00
    6    4    5     -3.02      0.00
    6    4    6     -6.57      0.00
    6    4    7     -7.38      0.00
    6    4    8     -5.42      0.00
    6    4    9     -3.05      0.00
    6    4   10     -1.80      0.00
    6    4   11     -1.53      0.00
    6    4   12     -1.85      0.00
    6    4   13     -2.16      0.00
    6    4   14     -1.49      0.00
    6    4   15     -0.02      0.00
   -6   -5    7      2.08      0.00
   -6   -5    6      1.37      0.00
   -6   -5    5     -1.60      0.00
   -6   -5    4     -5.50      0.00
   -6   -5    3     -7.31      0.00
   -6   -5    2     -5.57      0.00
   -6   -5    1     -1.84      0.00
    6    5    0      1.26      0.00
    6    5    1      2.75      0.00
    6    5    2      3.36      0.00
    6    5    3      3.70      0.00
    6    5    4      4.01      0.00
    6    5    5      5.14      0.00
    6    5    6      7.09      0.00
    6    5    7      7.62      0.00
    6    5    8      5.11      0.00
    6    5    9      1.20      0.00
    6    5   10     -1.39      0.00
    6    5   11     -1.77      0.00
    6    5   12     -0.77      0.00
    6    5   13      0.31      0.00
    6    5   14      0.51      0.00
    6    5   15     -0.02      0.00
   -6   -6    6     -1.12      0.00
   -6   -6    5     -0.15      0.00
   -6   -6    4      2.36      0.00
   -6   -6    3      4.13      0.00
   -6   -6    2      3.35      0.00
   -6   -6    1      0.45      0.00
    6    6    0     -3.01      0.00
    6    6    1     -5.86      0.00
    6    6    2     -7.54      0.00
    6    6    3     -7.62      0.00
    6    6    4     -6.23      0.00
    6    6    5     -4.81      0.00
    6    6    6     -4.41      0.00
    6    6    7     -3.77      0.00
    6    6    8     -1.15      0.00
    6    6    9      2.62      0.00
    6    6   10      4.95      0.00
    6    6   11      4.45      0.00
    6    6   12      2.15      0.00
    6    6   13      0.06      0.00
    6    6   14     -0.73      0.00
    6    6   15     -0.58      0.00
   -6   -7    6      1.09      0.00
   -6   -7    5      2.09      0.00
   -6   -7    4      1.92      0.00
   -6   -7    3      1.15      0.00
   -6   -7    2      1.17      0.00
   -6   -7    1      2.37      0.00
    6    7    0      4.18      0.00
    6    7    1      5.80      0.00
    6    7    2      6.50      0.00
    6    7    3      5.86      0.00
    6    7    4      4.22      0.00
    6    7    5      2.60      0.00
    6    7    6      1.51      0.00
    6    7    7      0.20      0.00
    6    7    8     -2.05      0.00
    6    7    9     -4.59      0.00
    6    7   10     -5.78      0.00
    6    7   11     -4.46      0.00
    6    7   12     -1.40      0.00
    6    7   13      1.12      0.00
    6    7   14      1.74      0.00
   -6   -8    5     -2.83      0.00
   -6   -8    4     -4.45      0.00
   -6   -8    3     -4.54      0.00
   -6   -8    2     -3.85      0.00
   -6   -8    1     -3.45      0.00
    6    8    0     -3.39      0.00
    6    8    1     -3.12      0.00
    6    8    2     -2.20      0.00
    6    8    3     -0.79      0.00
    6    8    4      0.31      0.00
    6    8    5      0.36      0.00
    6    8    6     -0.09      0.00
    6    8    7      0.21      0.00
    6    8    8      1.47      0.00
    6    8    9      2.87      0.00
    6    8   10      3.50      0.00
    6    8   11      2.43      0.00
    6    8   12     -0.23      0.00
    6    8   13     -2.45      0.00
    6    8   14     -2.52      0.00
   -6   -9    5      1.95      0.00
   -6   -9    4      4.20      0.00
   -6   -9    3      4.83      0.00
   -6   -9    2      3.86      0.00
   -6   -9    1      2.60      0.00
    6    9    0      1.45      0.00
    6    9    1     -0.01      0.00
    6    9    2     -1.93      0.00
    6    9    3     -3.74      0.00
    6    9    4     -4.36      0.00
    6    9    5     -2.93      0.00
    6    9    6     -0.25      0.00
    6    9    7      1.58      0.00
    6    9    8      1.70      0.00
    6    9    9      0.79      0.00
    6    9   10     -0.29      0.00
    6    9   11     -0.41      0.00
    6    9   12      1.11      0.00
    6    9   13      2.63      0.00
    6    9   14      2.25      0.00
   -6  -10    4     -2.37      0.00
   -6  -10    3     -3.29      0.00
   -6  -10    2     -2.75      0.00
   -6  -10    1     -1.57      0.00
    6   10    0     -0.29      0.00
    6   10    1      1.44      0.00
    6   10    2      3.54      0.00
    6   10    3      5.29      0.00
    6   10    4      5.67      0.00
    6   10    5      3.63      0.00
    6   10    6     -0.38      0.00
    6   10    7     -3.86      0.00
    6   10    8     -4.92      0.00
    6   10    9     -3.91      0.00
    6   10   10     -2.10      0.00
    6   10   11     -0.93      0.00
    6   10   12     -1.29      0.00
    6   10   13     -2.03      0.00
   -6  -11    3      1.50      0.00
   -6  -11    2      1.53      0.00
   -6  -11    1      0.98      0.00
    6   11    0      0.39      0.00
    6   11    1     -0.51      0.00
    6   11    2     -1.98      0.00
    6   11    3     -3.46      0.00
    6   11    4     -3.92      0.00
    6   11    5     -2.22      0.00
    6   11    6      1.54      0.00
    6   11    7      5.03      0.00
    6   11    8      6.02      0.00
    6   11    9      4.81      0.00
    6   11   10      2.94      0.00
    6   11   11      1.58      0.00
    6   11   12      1.30      0.00
   -6  -12    2     -0.43      0.00
   -6  -12    1     -0.22      0.00
    6   12    0     -0.49      0.00
    6   12    1     -1.03      0.00
    6   12    2     -0.75      0.00
    6   12    3      0.46      0.00
    6   12    4      1.44      0.00
    6   12    5      0.84      0.00
    6   12    6     -1.48      0.00
    6   12    7     -3.69      0.00
    6   12    8     -4.07      0.00
    6   12    9     -3.15      0.00
    6   12   10     -2.16      0.00
    6   12   11     -1.41      0.00
    6   12   12     -0.91      0.00
   -6  -13    1     -0.52      0.00
    6   13    0     -0.21      0.00
    6   13    2      1.57      0.00
    6   13    3      0.60      0.00
    6   13    4     -0.82      0.00
    6   13    5     -1.15      0.00
    6   13    6     -0.14      0.00
    6   13    7      0.89      0.00
    6   13    8      0.95      0.00
    6   13    9      0.74      0.00
    6   13   10      0.90      0.00
    6   14    3      0.23      0.00
    6   14    4      1.40      0.00
    6   14    5      1.81      0.00
   -7    9    1      0.81      0.00
   -7    9    0      1.99      0.00
    7   -9    1      1.98      0.00
    7   -9    2      0.96      0.00
    7   -9    3      0.45      0.00
   -7    8    3     -0.44      0.00
   -7    8    2     -0.64      0.00
   -7    8    1     -1.30      0.00
   -7    8    0     -2.55      0.00
    7   -8    1     -2.69      0.00
    7   -8    2     -1.46      0.00
    7   -8    3     -0.58      0.00
    7   -8    4     -0.30      0.00
   -7    7    5      2.20      0.00
   -7    7    4      1.42      0.00
   -7    7    3      0.85      0.00
   -7    7    2      0.40      0.00
   -7    7    1      0.89      0.00
   -7    7    0      2.56      0.00
    7   -7    1      3.36      0.00
    7   -7    2      2.19      0.00
    7   -7    3      0.61      0.00
    7   -7    4     -0.48      0.00
    7   -7    5     -1.44      0.00
    7   -7    6     -1.44      0.00
    7   -7    7     -0.04      0.00
   -7    6    6     -3.65      0.00
   -7    6    5     -3.85      0.00
   -7    6    4     -2.27      0.00
   -7    6    3     -0.24      0.00
   -7    6    2      1.24      0.00
   -7    6    1      0.90      0.00
   -7    6    0     -1.47      0.00
    7   -6    1     -3.38      0.00
    7   -6    2     -2.74      0.00
    7   -6    3     -0.59      0.00
    7   -6    4      1.48      0.00
    7   -6    5      2.89      0.00
    7   -6    6      2.54      0.00
    7   -6    7      0.11      0.00
    7   -6    8     -2.00      0.00
    7   -6    9     -1.91      0.00
   -7    5    7      2.02      0.00
   -7    5    6      3.75      0.00
   -7    5    5      4.01      0.00
   -7    5    4      2.26      0.00
   -7    5    3     -0.51      0.00
   -7    5    2     -2.88      0.00
   -7    5    1     -3.06      0.00
   -7    5    0     -0.53      0.00
    7   -5    1      2.29      0.00
    7   -5    2      2.82      0.00
    7   -5    3      1.24      0.00
    7   -5    4     -1.07      0.00
    7   -5    5     -3.08      0.00
    7   -5    6     -3.17      0.00
    7   -5    7     -0.62      0.00
    7   -5    8      2.29      0.00
    7   -5    9      3.21      0.00
    7   -5   10      2.72      0.00
    7   -5   11      2.05      0.00
   -7    4    7     -2.21      0.00
   -7    4    6     -3.41      0.00
   -7    4    5     -3.54      0.00
   -7    4    4     -2.12      0.00
   -7    4    3      0.57      0.00
   -7    4    2      3.49      0.00
   -7    4    1      4.47      0.00
   -7    4    0      2.34      0.00
    7   -4    1     -1.10      0.00
    7   -4    2     -3.35      0.00
    7   -4    3     -3.73      0.00
    7   -4    4     -2.30      0.00
    7   -4    5      0.42      0.00
    7   -4    6      2.28      0.00
    7   -4    7      1.42      0.00
    7   -4    8     -1.00      0.00
    7   -4    9     -2.72      0.00
    7   -4   10     -3.34      0.00
    7   -4   11     -3.18      0.00
    7   -4   12     -1.97      0.00
   -7    3    7      1.36      0.00
   -7    3    6      2.80      0.00
   -7    3    5      3.23      0.00
   -7    3    4      2.31      0.00
   -7    3    3      0.02      0.00
   -7    3    2     -3.18      0.00
   -7    3    1     -5.00      0.00
   -7    3    0     -3.37      0.00
    7   -3    1      0.64      0.00
    7   -3    2      4.66      0.00
    7   -3    3      7.29      0.00
    7   -3    4      7.20      0.00
    7   -3    5      3.93      0.00
    7   -3    6     -0.11      0.00
    7   -3    7     -1.78      0.00
    7   -3    8     -0.90      0.00
    7   -3    9      0.78      0.00
    7   -3   10      2.29      0.00
    7   -3   11      2.98      0.00
    7   -3   12      2.07      0.00
    7   -3   13      0.44      0.00
   -7    2    7      0.37      0.00
   -7    2    6     -1.58      0.00
   -7    2    5     -2.80      0.00
   -7    2    4     -2.80      0.00
   -7    2    3     -1.61      0.00
   -7    2    2      1.12      0.00
   -7    2    1      3.65      0.00
   -7    2    0      3.09      0.00
    7   -2    1     -0.68      0.00
    7   -2    2     -5.46      0.00
    7   -2    3     -9.22      0.00
    7   -2    4     -9.86      0.00
    7   -2    5     -6.31      0.00
    7   -2    6     -0.93      0.00
    7   -2    7      2.54      0.00
    7   -2    8      3.06      0.00
    7   -2    9      1.75      0.00
    7   -2   10     -0.38      0.00
    7   -2   11     -2.04      0.00
    7   -2   12     -1.74      0.00
    7   -2   13     -0.19      0.00
   -7    1    7     -1.87      0.00
   -7    1    6      0.14      0.00
   -7    1    5      2.14      0.00
   -7    1    4      3.40      0.00
   -7    1    3      4.20      0.00
   -7    1    2      3.20      0.00
   -7    1    1      0.41      0.00
   -7    1    0     -1.10      0.00
    7   -1    1      0.59      0.00
    7   -1    2      4.23      0.00
    7   -1    3      7.59      0.00
    7   -1    4      8.38      0.00
    7   -1    5      5.31      0.00
    7   -1    6      0.10      0.00
    7   -1    7     -3.89      0.00
    7   -1    8     -5.22      0.00
    7   -1    9     -4.25      0.00
    7   -1   10     -1.59      0.00
    7   -1   11      1.21      0.00
    7   -1   12      1.84      0.00
    7   -1   13      0.35      0.00
   -7    0    7      2.36      0.00
   -7    0    6      0.59      0.00
   -7    0    5     -1.89      0.00
   -7    0    4     -4.04      0.00
   -7    0    3     -6.39      0.00
   -7    0    2     -7.29      0.00
   -7    0    1     -4.78      0.00
    7    0    0     -1.00      0.00
    7    0    1      0.59      0.00
    7    0    2     -0.52      0.00
    7    0    3     -2.70      0.00
    7    0    4     -3.92      0.00
    7    0    5     -2.68      0.00
    7    0    6      0.56      0.00
    7    0    7      3.73      0.00
    7    0    8      5.32      0.00
    7    0    9      4.85      0.00
    7    0   10      2.28      0.00
    7    0   11     -1.09      0.00
    7    0   12     -2.67      0.00
    7    0   13     -1.58      0.00
   -7   -1    8     -0.67      0.00
   -7   -1    7     -1.51      0.00
   -7   -1    6     -0.29      0.00
   -7   -1    5      2.07      0.00
   -7   -1    4      4.21      0.00
   -7   -1    3      6.63      0.00
   -7   -1    2      8.21      0.00
   -7   -1    1      6.23      0.00
    7    1    0      1.30      0.00
    7    1    1     -2.87      0.00
    7    1    2     -4.12      0.00
    7    1    3     -2.96      0.00
    7    1    4     -0.92      0.00
    7    1    5      0.36      0.00
    7    1    6     -0.03      0.00
    7    1    7     -1.48      0.00
    7    1    8     -2.59      0.00
    7    1    9     -2.41      0.00
    7    1   10     -0.73      0.00
    7    1   11      1.80      0.00
    7    1   12      3.56      0.00
    7    1   13      3.29      0.00
   -7   -2    8     -1.17      0.00
   -7   -2    7     -0.46      0.00
   -7   -2    6     -0.44      0.00
   -7   -2    5     -1.49      0.00
   -7   -2    4     -2.60      0.00
   -7   -2    3     -4.06      0.00
   -7   -2    2     -5.54      0.00
   -7   -2    1     -4.58      0.00
    7    2    0     -0.38      0.00
    7    2    1      4.28      0.00
    7    2    2      6.45      0.00
    7    2    3      5.61      0.00
    7    2    4      2.91      0.00
    7    2    5      0.06      0.00
    7    2    6     -1.38      0.00
    7    2    7     -1.20      0.00
    7    2    8     -0.74      0.00
    7    2    9     -1.07      0.00
    7    2   10     -1.87      0.00
    7    2   11     -2.67      0.00
    7    2   12     -3.50      0.00
    7    2   13     -3.80      0.00
    7    2   14     -2.78      0.00
   -7   -3    8      2.38      0.00
   -7   -3    7      2.10      0.00
   -7   -3    6      0.80      0.00
   -7   -3    5     -0.32      0.00
   -7   -3    4     -1.14      0.00
   -7   -3    3     -0.99      0.00
   -7   -3    2      0.53      0.00
   -7   -3    1      1.47      0.00
    7    3    0     -0.12      0.00
    7    3    1     -3.03      0.00
    7    3    2     -4.44      0.00
    7    3    3     -3.27      0.00
    7    3    4     -0.49      0.00
    7    3    5      2.33      0.00
    7    3    6      3.85      0.00
    7    3    7      3.62      0.00
    7    3    8      2.88      0.00
    7    3    9      2.88      0.00
    7    3   10      3.04      0.00
    7    3   11      2.61      0.00
    7    3   12      2.41      0.00
    7    3   13      2.79      0.00
    7    3   14      2.41      0.00
   -7   -4    7     -1.87      0.00
   -7   -4    6     -0.43      0.00
   -7   -4    5      1.96      0.00
   -7   -4    4      4.46      0.00
   -7   -4    3      5.59      0.00
   -7   -4    2      4.09      0.00
   -7   -4    1      1.26      0.00
    7    4    0     -0.34      0.00
    7    4    1     -0.37      0.00
    7    4    2     -0.62      0.00
    7    4    3     -2.04      0.00
    7    4    4     -3.88      0.00
    7    4    5     -5.38      0.00
    7    4    6     -6.02      0.00
    7    4    7     -5.19      0.00
    7    4    8     -3.35      0.00
    7    4    9     -1.92      0.00
    7    4   10     -1.19      0.00
    7    4   11     -0.66      0.00
    7    4   12     -0.78      0.00
    7    4   13     -1.65      0.00
    7    4   14     -1.82      0.00
    7    4   15     -0.67      0.00
   -7   -5    6     -0.30      0.00
   -7   -5    5     -1.96      0.00
   -7   -5    4     -4.30      0.00
   -7   -5    3     -5.81      0.00
   -7   -5    2     -4.76      0.00
   -7   -5    1     -1.58      0.00
    7    5    0      1.60      0.00
    7    5    1      3.69      0.00
    7    5    2      5.16      0.00
    7    5    3      6.15      0.00
    7    5    4      6.16      0.00
    7    5    5      5.59      0.00
    7    5    6      5.12      0.00
    7    5    7      4.04      0.00
    7    5    8      1.60      0.00
    7    5    9     -1.17      0.00
    7    5   10     -2.76      0.00
    7    5   11     -2.66      0.00
    7    5   12     -1.01      0.00
    7    5   13      1.07      0.00
    7    5   14      1.83      0.00
    7    5   15      1.07      0.00
   -7   -6    6      0.49      0.00
   -7   -6    5      0.50      0.00
   -7   -6    4      1.03      0.00
   -7   -6    3      1.69      0.00
   -7   -6    2      1.17      0.00
   -7   -6    1     -0.74      0.00
    7    6    0     -2.98      0.00
    7    6    1     -4.81      0.00
    7    6    2     -6.13      0.00
    7    6    3     -6.35      0.00
    7    6    4     -4.98      0.00
    7    6    5     -3.04      0.00
    7    6    6     -1.86      0.00
    7    6    7     -0.86      0.00
    7    6    8      1.22      0.00
    7    6    9      3.91      0.00
    7    6   10      5.44      0.00
    7    6   11      4.64      0.00
    7    6   12      1.78      0.00
    7    6   13     -1.10      0.00
    7    6   14     -1.91      0.00
   -7   -7    6      0.06      0.00
   -7   -7    5      1.19      0.00
   -7   -7    4      2.38      0.00
   -7   -7    3      2.68      0.00
   -7   -7    2      2.69      0.00
   -7   -7    1      2.96      0.00
    7    7    0      3.19      0.00
    7    7    1      3.25      0.00
    7    7    2      3.31      0.00
    7    7    3      2.95      0.00
    7    7    4      1.75      0.00
    7    7    5      0.43      0.00
    7    7    6     -0.17      0.00
    7    7    7     -0.69      0.00
    7    7    8     -2.03      0.00
    7    7    9     -3.73      0.00
    7    7   10     -4.55      0.00
    7    7   11     -3.56      0.00
    7    7   12     -0.76      0.00
    7    7   13      1.83      0.00
    7    7   14      1.99      0.00
   -7   -8    5     -1.91      0.00
   -7   -8    4     -3.82      0.00
   -7   -8    3     -4.40      0.00
   -7   -8    2     -3.77      0.00
   -7   -8    1     -2.88      0.00
    7    8    0     -1.80      0.00
    7    8    1     -0.46      0.00
    7    8    2      0.75      0.00
    7    8    3      1.54      0.00
    7    8    4      1.86      0.00
    7    8    5      1.34      0.00
    7    8    6      0.07      0.00
    7    8    7     -0.70      0.00
    7    8    8     -0.17      0.00
    7    8    9      0.89      0.00
    7    8   10      1.58      0.00
    7    8   11      1.28      0.00
    7    8   12     -0.48      0.00
    7    8   13     -2.35      0.00
   -7   -9    4      3.20      0.00
   -7   -9    3      3.81      0.00
   -7   -9    2      2.84      0.00
   -7   -9    1      1.39      0.00
    7    9    0     -0.03      0.00
    7    9    1     -1.63      0.00
    7    9    2     -3.26      0.00
    7    9    3     -4.37      0.00
    7    9    4     -4.33      0.00
    7    9    5     -2.54      0.00
    7    9    6      0.58      0.00
    7    9    7      3.07      0.00
    7    9    8      3.44      0.00
    7    9    9      2.36      0.00
    7    9   10      0.99      0.00
    7    9   11      0.07      0.00
    7    9   12      0.53      0.00
    7    9   13      1.74      0.00
   -7  -10    3     -2.23      0.00
   -7  -10    2     -1.58      0.00
   -7  -10    1     -0.20      0.00
    7   10    0      1.02      0.00
    7   10    1      1.98      0.00
    7   10    2      3.01      0.00
    7   10    3      4.02      0.00
    7   10    4      4.19      0.00
    7   10    5      2.39      0.00
    7   10    6     -1.34      0.00
    7   10    7     -4.74      0.00
    7   10    8     -5.58      0.00
    7   10    9     -4.22      0.00
    7   10   10     -2.27      0.00
    7   10   11     -0.71      0.00
    7   10   12     -0.32      0.00
    7   10   13     -0.87      0.00
   -7  -11    2      0.51      0.00
   -7  -11    1     -0.44      0.00
    7   11    0     -1.14      0.00
    7   11    1     -0.97      0.00
    7   11    2     -0.75      0.00
    7   11    3     -1.32      0.00
    7   11    4     -1.93      0.00
    7   11    5     -0.94      0.00
    7   11    6      2.02      0.00
    7   11    7      4.88      0.00
    7   11    8      5.35      0.00
    7   11    9      3.79      0.00
    7   11   10      2.07      0.00
    7   11   11      0.96      0.00
    7   11   12      0.49      0.00
   -7  -12    1      0.79      0.00
    7   12    0      1.17      0.00
    7   12    2     -1.12      0.00
    7   12    3     -0.87      0.00
    7   12    4      0.27      0.00
    7   12    5      0.28      0.00
    7   12    6     -1.41      0.00
    7   12    7     -3.05      0.00
    7   12    8     -2.92      0.00
    7   12    9     -1.62      0.00
    7   13    3      0.72      0.00
    7   13    4     -0.64      0.00
    7   13    5     -1.10      0.00
    7   13    6     -0.18      0.00
    7   13    7      0.66      0.00
    7   14    4      1.32      0.00
    8   -8    1     -1.25      0.00
    8   -8    2     -0.54      0.00
    8   -8    3      0.23      0.00
   -8    7    3      0.77      0.00
   -8    7    2     -0.05      0.00
   -8    7    1     -0.56      0.00
   -8    7    0      0.19      0.00
    8   -7    1      1.20      0.00
    8   -7    2      0.71      0.00
    8   -7    3     -0.37      0.00
    8   -7    4     -0.36      0.00
   -8    6    4     -1.32      0.00
   -8    6    3      0.00      0.00
   -8    6    2      1.09      0.00
   -8    6    1      1.36      0.00
   -8    6    0      0.29      0.00
    8   -6    1     -0.96      0.00
    8   -6    2     -0.34      0.00
    8   -6    3      1.46      0.00
    8   -6    4      2.07      0.00
    8   -6    5      1.28      0.00
    8   -6    6      0.13      0.00
    8   -6    7     -1.31      0.00
   -8    5    4      0.68      0.00
   -8    5    3     -1.01      0.00
   -8    5    2     -2.12      0.00
   -8    5    1     -1.99      0.00
   -8    5    0     -0.48      0.00
    8   -5    1      1.11      0.00
    8   -5    2      0.71      0.00
    8   -5    3     -1.36      0.00
    8   -5    4     -2.70      0.00
    8   -5    5     -2.45      0.00
    8   -5    6     -1.18      0.00
    8   -5    7      0.89      0.00
    8   -5    8      2.74      0.00
    8   -5    9      2.57      0.00
   -8    4    4     -0.22      0.00
   -8    4    3      1.43      0.00
   -8    4    2      2.45      0.00
   -8    4    1      2.19      0.00
   -8    4    0      0.39      0.00
    8   -4    1     -1.91      0.00
    8   -4    2     -2.72      0.00
    8   -4    3     -1.76      0.00
    8   -4    4     -0.48      0.00
    8   -4    5      0.54      0.00
    8   -4    6      1.15      0.00
    8   -4    7      0.43      0.00
    8   -4    8     -1.41      0.00
    8   -4    9     -2.26      0.00
    8   -4   10     -1.52      0.00
    8   -4   11     -0.78      0.00
   -8    3    4      0.41      0.00
   -8    3    3     -0.92      0.00
   -8    3    2     -1.88      0.00
   -8    3    1     -2.06      0.00
   -8    3    0     -0.53      0.00
    8   -3    1      2.41      0.00
    8   -3    2      4.79      0.00
    8   -3    3      5.63      0.00
    8   -3    4      5.22      0.00
    8   -3    5      3.36      0.00
    8   -3    6      0.43      0.00
    8   -3    7     -1.27      0.00
    8   -3    8     -0.50      0.00
    8   -3    9      1.00      0.00
    8   -3   10      1.53      0.00
    8   -3   11      1.49      0.00
    8   -3   12      1.32      0.00
   -8    2    5     -1.63      0.00
   -8    2    4     -1.25      0.00
   -8    2    3     -0.89      0.00
   -8    2    2     -0.37      0.00
   -8    2    1      0.70      0.00
   -8    2    0      0.59      0.00
    8   -2    1     -1.87      0.00
    8   -2    2     -4.92      0.00
    8   -2    3     -6.65      0.00
    8   -2    4     -6.74      0.00
    8   -2    5     -4.74      0.00
    8   -2    6     -0.87      0.00
    8   -2    7      2.27      0.00
    8   -2    8      2.47      0.00
    8   -2    9      0.72      0.00
    8   -2   10     -0.87      0.00
    8   -2   11     -1.64      0.00
    8   -2   12     -1.56      0.00
   -8    1    5      1.58      0.00
   -8    1    4      2.22      0.00
   -8    1    3      3.33      0.00
   -8    1    2      3.92      0.00
   -8    1    1      2.17      0.00
   -8    1    0      0.00      0.00
    8   -1    1      0.46      0.00
    8   -1    2      2.72      0.00
    8   -1    3      4.22      0.00
    8   -1    4      4.23      0.00
    8   -1    5      2.70      0.00
    8   -1    6     -0.40      0.00
    8   -1    7     -3.39      0.00
    8   -1    8     -4.03      0.00
    8   -1    9     -2.38      0.00
    8   -1   10     -0.14      0.00
    8   -1   11      1.41      0.00
    8   -1   12      1.63      0.00
   -8    0    7      0.07      0.00
   -8    0    6     -0.75      0.00
   -8    0    5     -1.92      0.00
   -8    0    4     -2.92      0.00
   -8    0    3     -4.69      0.00
   -8    0    2     -6.13      0.00
   -8    0    1     -4.37      0.00
    8    0    0     -0.41      0.00
    8    0    1      1.67      0.00
    8    0    2      1.07      0.00
    8    0    3      0.12      0.00
    8    0    4     -0.25      0.00
    8    0    5     -0.26      0.00
    8    0    6      0.68      0.00
    8    0    7      2.42      0.00
    8    0    8      3.32      0.00
    8    0    9      2.41      0.00
    8    0   10      0.40      0.00
    8    0   11     -1.51      0.00
    8    0   12     -2.26      0.00
    8    0   13     -1.40      0.00
   -8   -1    7      1.00      0.00
   -8   -1    6      1.65      0.00
   -8   -1    5      2.52      0.00
   -8   -1    4      3.11      0.00
   -8   -1    3      4.14      0.00
   -8   -1    2      5.30      0.00
   -8   -1    1      4.02      0.00
    8    1    0     -0.08      0.00
    8    1    1     -3.59      0.00
    8    1    2     -4.48      0.00
    8    1    3     -3.92      0.00
    8    1    4     -2.71      0.00
    8    1    5     -0.79      0.00
    8    1    6      0.71      0.00
    8    1    7      0.58      0.00
    8    1    8     -0.28      0.00
    8    1    9     -0.33      0.00
    8    1   10      0.59      0.00
    8    1   11      1.83      0.00
    8    1   12      2.75      0.00
    8    1   13      2.62      0.00
    8    1   14      1.40      0.00
   -8   -2    7     -1.88      0.00
   -8   -2    6     -2.04      0.00
   -8   -2    5     -2.06      0.00
   -8   -2    4     -1.84      0.00
   -8   -2    3     -1.75      0.00
   -8   -2    2     -2.25      0.00
   -8   -2    1     -1.92      0.00
    8    2    0      0.54      0.00
    8    2    1      3.53      0.00
    8    2    2      4.81      0.00
    8    2    3      4.24      0.00
    8    2    4      2.50      0.00
    8    2    5     -0.03      0.00
    8    2    6     -2.22      0.00
    8    2    7     -2.78      0.00
    8    2    8     -2.21      0.00
    8    2    9     -1.90      0.00
    8    2   10     -1.86      0.00
    8    2   11     -1.68      0.00
    8    2   12     -1.81      0.00
    8    2   13     -2.26      0.00
    8    2   14     -1.92      0.00
   -8   -3    7      2.11      0.00
   -8   -3    6      1.52      0.00
   -8   -3    5      0.16      0.00
   -8   -3    4     -1.16      0.00
   -8   -3    3     -1.93      0.00
   -8   -3    2     -1.43      0.00
   -8   -3    1     -0.21      0.00
    8    3    0     -0.08      0.00
    8    3    1     -1.18      0.00
    8    3    2     -1.72      0.00
    8    3    3     -0.68      0.00
    8    3    4      1.21      0.00
    8    3    5      2.85      0.00
    8    3    6      3.56      0.00
    8    3    7      3.10      0.00
    8    3    8      2.27      0.00
    8    3    9      2.05      0.00
    8    3   10      1.90      0.00
    8    3   11      0.94      0.00
    8    3   12      0.17      0.00
    8    3   13      0.64      0.00
    8    3   14      1.09      0.00
   -8   -4    6     -0.57      0.00
   -8   -4    5      1.51      0.00
   -8   -4    4      3.52      0.00
   -8   -4    3      4.51      0.00
   -8   -4    2      3.67      0.00
   -8   -4    1      1.20      0.00
    8    4    0     -1.03      0.00
    8    4    1     -1.75      0.00
    8    4    2     -2.06      0.00
    8    4    3     -3.35      0.00
    8    4    4     -4.94      0.00
    8    4    5     -5.32      0.00
    8    4    6     -4.19      0.00
    8    4    7     -2.23      0.00
    8    4    8     -0.44      0.00
    8    4    9      0.29      0.00
    8    4   10      0.28      0.00
    8    4   11      0.60      0.00
    8    4   12      0.78      0.00
    8    4   13     -0.04      0.00
    8    4   14     -0.82      0.00
    8    4   15     -0.38      0.00
   -8   -5    5     -1.56      0.00
   -8   -5    4     -2.77      0.00
   -8   -5    3     -3.32      0.00
   -8   -5    2     -2.56      0.00
   -8   -5    1     -0.38      0.00
    8    5    0      2.03      0.00
    8    5    1      3.30      0.00
    8    5    2      3.75      0.00
    8    5    3      4.49      0.00
    8    5    4      5.15      0.00
    8    5    5      4.53      0.00
    8    5    6      2.69      0.00
    8    5    7      0.39      0.00
    8    5    8     -1.86      0.00
    8    5    9     -3.30      0.00
    8    5   10     -3.39      0.00
    8    5   11     -2.53      0.00
    8    5   12     -1.07      0.00
    8    5   13      0.73      0.00
    8    5   14      1.63      0.00
   -8   -6    5      0.54      0.00
   -8   -6    4     -0.04      0.00
   -8   -6    3     -0.56      0.00
   -8   -6    2     -0.92      0.00
   -8   -6    1     -1.49      0.00
    8    6    0     -2.19      0.00
    8    6    1     -2.51      0.00
    8    6    2     -2.47      0.00
    8    6    3     -2.53      0.00
    8    6    4     -2.45      0.00
    8    6    5     -1.56      0.00
    8    6    6     -0.13      0.00
    8    6    7      1.31      0.00
    8    6    8      2.86      0.00
    8    6    9      4.12      0.00
    8    6   10      4.16      0.00
    8    6   11      2.79      0.00
    8    6   12      0.56      0.00
    8    6   13     -1.54      0.00
    8    6   14     -2.11      0.00
   -8   -7    5      0.43      0.00
   -8   -7    4      2.13      0.00
   -8   -7    3      3.39      0.00
   -8   -7    2      3.43      0.00
   -8   -7    1      2.56      0.00
    8    7    0      1.33      0.00
    8    7    1      0.09      0.00
    8    7    2     -0.78      0.00
    8    7    3     -0.94      0.00
    8    7    4     -0.66      0.00
    8    7    5     -0.57      0.00
    8    7    6     -0.73      0.00
    8    7    7     -0.99      0.00
    8    7    8     -1.55      0.00
    8    7    9     -2.11      0.00
    8    7   10     -1.91      0.00
    8    7   11     -0.87      0.00
    8    7   12      0.63      0.00
    8    7   13      1.93      0.00
   -8   -8    4     -2.44      0.00
   -8   -8    3     -3.59      0.00
   -8   -8    2     -3.43      0.00
   -8   -8    1     -2.15      0.00
    8    8    0     -0.17      0.00
    8    8    1      2.04      0.00
    8    8    2      3.73      0.00
    8    8    3      4.10      0.00
    8    8    4      3.06      0.00
    8    8    5      1.35      0.00
    8    8    6     -0.23      0.00
    8    8    7     -1.14      0.00
    8    8    8     -1.12      0.00
    8    8    9     -0.65      0.00
    8    8   10     -0.48      0.00
    8    8   11     -0.57      0.00
    8    8   12     -0.89      0.00
   -8   -9    3      2.27      0.00
   -8   -9    2      2.06      0.00
   -8   -9    1      1.03      0.00
    8    9    0     -0.62      0.00
    8    9    1     -2.61      0.00
    8    9    2     -4.36      0.00
    8    9    3     -5.02      0.00
    8    9    4     -3.98      0.00
    8    9    5     -1.52      0.00
    8    9    6      1.29      0.00
    8    9    7      3.24      0.00
    8    9    8      3.52      0.00
    8    9    9      2.55      0.00
    8    9   10      1.36      0.00
    8    9   11      0.32      0.00
    8    9   12     -0.25      0.00
   -8  -10    2     -0.59      0.00
   -8  -10    1      0.08      0.00
    8   10    0      1.07      0.00
    8   10    1      1.90      0.00
    8   10    2      2.48      0.00
    8   10    3      2.90      0.00
    8   10    4      2.55      0.00
    8   10    5      0.79      0.00
    8   10    6     -1.93      0.00
    8   10    7     -4.15      0.00
    8   10    8     -4.54      0.00
    8   10    9     -3.24      0.00
    8   10   10     -1.50      0.00
    8   10   11     -0.01      0.00
   -8  -11    1     -0.74      0.00
    8   11    0     -1.24      0.00
    8   11    1     -0.80      0.00
    8   11    2      0.26      0.00
    8   11    3      0.50      0.00
    8   11    4      0.00      0.00
    8   11    5      0.35      0.00
    8   11    6      1.99      0.00
    8   11    7      3.57      0.00
    8   11    8      3.66      0.00
    8   11    9      2.42      0.00
    8   12    2     -1.72      0.00
    8   12    3     -2.29      0.00
    8   12    4     -1.15      0.00
    8   12    5     -0.43      0.00
    8   12    6     -1.09      0.00
    8   12    7     -1.87      0.00
    8   13    3      1.73      0.00
    8   13    4      0.53      0.00
    8   13    5     -0.35      0.00
   -9    7    0     -0.73      0.00
   -9    6    1      0.85      0.00
   -9    6    0      1.01      0.00
    9   -6    2      1.12      0.00
    9   -6    3      2.18      0.00
    9   -6    4      2.42      0.00
   -9    5    1     -0.79      0.00
   -9    5    0     -0.68      0.00
    9   -5    1     -0.59      0.00
    9   -5    2     -1.15      0.00
    9   -5    3     -2.63      0.00
    9   -5    4     -3.49      0.00
    9   -5    5     -2.47      0.00
    9   -5    6     -0.71      0.00
    9   -5    7      0.51      0.00
   -9    4    1      0.82      0.00
   -9    4    0      0.17      0.00
    9   -4    1     -0.72      0.00
    9   -4    2     -1.14      0.00
    9   -4    3     -0.42      0.00
    9   -4    4      0.62      0.00
    9   -4    5      0.89      0.00
    9   -4    6      0.69      0.00
    9   -4    7      0.34      0.00
    9   -4    8     -0.52      0.00
    9   -4    9     -1.22      0.00
    9   -4   10     -0.76      0.00
   -9    3    2     -0.78      0.00
   -9    3    1     -0.74      0.00
   -9    3    0     -0.19      0.00
    9   -3    1      1.35      0.00
    9   -3    2      3.11      0.00
    9   -3    3      3.81      0.00
    9   -3    4      3.40      0.00
    9   -3    5      2.29      0.00
    9   -3    6      0.43      0.00
    9   -3    7     -1.19      0.00
    9   -3    8     -0.90      0.00
    9   -3    9      0.75      0.00
    9   -3   10      1.53      0.00
    9   -3   11      1.00      0.00
   -9    2    2     -1.08      0.00
   -9    2    1     -0.34      0.00
   -9    2    0      0.35      0.00
    9   -2    1     -0.70      0.00
    9   -2    2     -2.81      0.00
    9   -2    3     -4.03      0.00
    9   -2    4     -3.92      0.00
    9   -2    5     -2.76      0.00
    9   -2    6     -0.28      0.00
    9   -2    7      2.42      0.00
    9   -2    8      2.77      0.00
    9   -2    9      0.58      0.00
    9   -2   10     -1.39      0.00
    9   -2   11     -1.50      0.00
   -9    1    3      2.72      0.00
   -9    1    2      3.50      0.00
   -9    1    1      2.06      0.00
   -9    1    0     -0.36      0.00
    9   -1    1     -0.80      0.00
    9   -1    2      0.70      0.00
    9   -1    3      1.57      0.00
    9   -1    4      1.19      0.00
    9   -1    5      0.41      0.00
    9   -1    6     -1.13      0.00
    9   -1    7     -3.31      0.00
    9   -1    8     -3.90      0.00
    9   -1    9     -1.82      0.00
    9   -1   10      0.69      0.00
    9   -1   11      1.38      0.00
    9   -1   12      0.58      0.00
   -9    0    4     -1.67      0.00
   -9    0    3     -3.21      0.00
   -9    0    2     -4.15      0.00
   -9    0    1     -2.48      0.00
    9    0    0      1.00      0.00
    9    0    1      2.88      0.00
    9    0    2      2.28      0.00
    9    0    3      1.56      0.00
    9    0    4      1.61      0.00
    9    0    5      1.28      0.00
    9    0    6      1.00      0.00
    9    0    7      1.92      0.00
    9    0    8      2.77      0.00
    9    0    9      1.65      0.00
    9    0   10     -0.55      0.00
    9    0   11     -1.68      0.00
    9    0   12     -1.29      0.00
    9    0   13     -0.35      0.00
   -9   -1    5      1.20      0.00
   -9   -1    4      1.48      0.00
   -9   -1    3      2.19      0.00
   -9   -1    2      2.53      0.00
   -9   -1    1      1.07      0.00
    9    1    0     -2.00      0.00
    9    1    1     -4.24      0.00
    9    1    2     -4.33      0.00
    9    1    3     -3.54      0.00
    9    1    4     -2.62      0.00
    9    1    5     -0.86      0.00
    9    1    6      1.01      0.00
    9    1    7      1.09      0.00
    9    1    8     -0.19      0.00
    9    1    9     -0.51      0.00
    9    1   10      0.63      0.00
    9    1   11      1.69      0.00
    9    1   12      1.88      0.00
    9    1   13      1.52      0.00
   -9   -2    5     -0.87      0.00
   -9   -2    4     -0.49      0.00
   -9   -2    3     -0.42      0.00
   -9   -2    2     -0.24      0.00
   -9   -2    1      0.50      0.00
    9    2    0      1.88      0.00
    9    2    1      3.12      0.00
    9    2    2      3.31      0.00
    9    2    3      2.48      0.00
    9    2    4      0.96      0.00
    9    2    5     -1.10      0.00
    9    2    6     -2.85      0.00
    9    2    7     -2.85      0.00
    9    2    8     -1.29      0.00
    9    2    9     -0.11      0.00
    9    2   10     -0.16      0.00
    9    2   11     -0.48      0.00
    9    2   12     -0.60      0.00
    9    2   13     -0.85      0.00
    9    2   14     -0.88      0.00
   -9   -3    5     -0.25      0.00
   -9   -3    4     -1.25      0.00
   -9   -3    3     -1.49      0.00
   -9   -3    2     -1.29      0.00
   -9   -3    1     -0.86      0.00
    9    3    0     -0.37      0.00
    9    3    1     -0.19      0.00
    9    3    2     -0.04      0.00
    9    3    3      0.92      0.00
    9    3    4      2.58      0.00
    9    3    5      3.78      0.00
    9    3    6      3.61      0.00
    9    3    7      2.20      0.00
    9    3    8      0.39      0.00
    9    3    9     -0.67      0.00
    9    3   10     -0.81      0.00
    9    3   11     -0.96      0.00
    9    3   12     -1.30      0.00
    9    3   13     -0.99      0.00
    9    3   14     -0.27      0.00
   -9   -4    5      0.94      0.00
   -9   -4    4      2.21      0.00
   -9   -4    3      2.22      0.00
   -9   -4    2      1.31      0.00
   -9   -4    1      0.02      0.00
    9    4    0     -1.34      0.00
    9    4    1     -2.09      0.00
    9    4    2     -2.25      0.00
    9    4    3     -3.09      0.00
    9    4    4     -4.74      0.00
    9    4    5     -5.18      0.00
    9    4    6     -3.21      0.00
    9    4    7     -0.19      0.00
    9    4    8      2.07      0.00
    9    4    9      2.84      0.00
    9    4   10      2.42      0.00
    9    4   11      1.87      0.00
    9    4   12      1.70      0.00
    9    4   13      1.28      0.00
   -9   -5    4     -1.10      0.00
   -9   -5    3     -0.69      0.00
   -9   -5    2      0.31      0.00
   -9   -5    1      1.21      0.00
    9    5    0      1.96      0.00
    9    5    1      2.28      0.00
    9    5    2      2.01      0.00
    9    5    3      2.21      0.00
    9    5    4      3.41      0.00
    9    5    5      3.72      0.00
    9    5    6      1.61      0.00
    9    5    7     -1.57      0.00
    9    5    8     -3.82      0.00
    9    5    9     -4.52      0.00
    9    5   10     -3.75      0.00
    9    5   11     -2.16      0.00
    9    5   12     -0.79      0.00
    9    5   13      0.08      0.00
   -9   -6    3     -1.82      0.00
   -9   -6    2     -2.32      0.00
   -9   -6    1     -1.85      0.00
    9    6    0     -1.02      0.00
    9    6    1     -0.50      0.00
    9    6    2      0.04      0.00
    9    6    3      0.34      0.00
    9    6    4     -0.28      0.00
    9    6    5     -0.88      0.00
    9    6    6      0.00      0.00
    9    6    7      1.76      0.00
    9    6    8      3.01      0.00
    9    6    9      3.34      0.00
    9    6   10      2.60      0.00
    9    6   11      0.97      0.00
    9    6   12     -0.54      0.00
   -9   -7    3      2.96      0.00
   -9   -7    2      3.17      0.00
   -9   -7    1      1.79      0.00
    9    7    0     -0.39      0.00
    9    7    1     -1.93      0.00
    9    7    2     -2.66      0.00
    9    7    3     -2.92      0.00
    9    7    4     -2.22      0.00
    9    7    5     -0.86      0.00
    9    7    6     -0.14      0.00
    9    7    7     -0.24      0.00
    9    7    8     -0.39      0.00
    9    7    9     -0.27      0.00
    9    7   10      0.26      0.00
    9    7   11      1.11      0.00
    9    7   12      1.57      0.00
   -9   -8    3     -2.21      0.00
   -9   -8    2     -2.65      0.00
   -9   -8    1     -1.64      0.00
    9    8    0      0.78      0.00
    9    8    1      3.16      0.00
    9    8    2      4.45      0.00
    9    8    3      4.62      0.00
    9    8    4      3.42      0.00
    9    8    5      1.05      0.00
    9    8    6     -1.02      0.00
    9    8    7     -1.87      0.00
    9    8    8     -1.91      0.00
    9    8    9     -1.69      0.00
    9    8   10     -1.56      0.00
    9    8   11     -1.55      0.00
   -9   -9    1      1.32      0.00
    9    9    0     -0.38      0.00
    9    9    1     -2.76      0.00
    9    9    2     -4.22      0.00
    9    9    3     -4.38      0.00
    9    9    4     -3.08      0.00
    9    9    5     -0.44      0.00
    9    9    6      2.16      0.00
    9    9    7      3.35      0.00
    9    9    8      3.09      0.00
    9    9    9      2.06      0.00
    9    9   10      0.99      0.00
   -9  -10    1     -0.58      0.00
    9   10    0      0.27      0.00
    9   10    1      1.69      0.00
    9   10    2      2.23      0.00
    9   10    3      1.96      0.00
    9   10    4      1.24      0.00
    9   10    5     -0.36      0.00
    9   10    6     -2.36      0.00
    9   10    7     -3.44      0.00
    9   10    8     -3.13      0.00
    9   10    9     -1.88      0.00
    9   11    2      0.00      0.00
    9   11    3      0.81      0.00
    9   11    4      0.63      0.00
    9   11    5      0.56      0.00
    9   11    6      1.40      0.00
    9   11    7      2.14      0.00
    9   12    3     -1.87      0.00
    9   12    4     -1.02      0.00
    9   12    5      0.13      0.00
   10   -3    3      2.54      0.00
   10   -3    4      2.74      0.00
   10   -3    5      1.77      0.00
   10   -3    6      0.24      0.00
   10   -3    7     -1.00      0.00
   10   -3    8     -0.99      0.00
   10   -3    9      0.21      0.00
   10   -2    1      0.73      0.00
   10   -2    2     -0.53      0.00
   10   -2    3     -1.77      0.00
   10   -2    4     -2.08      0.00
   10   -2    5     -1.26      0.00
   10   -2    6      0.57      0.00
   10   -2    7      2.50      0.00
   10   -2    8      2.81      0.00
   10   -2    9      1.04      0.00
   10   -2   10     -0.84      0.00
  -10    1    0     -0.96      0.00
   10   -1    1     -1.62      0.00
   10   -1    2     -0.95      0.00
   10   -1    3     -0.33      0.00
   10   -1    4     -0.48      0.00
   10   -1    5     -1.04      0.00
   10   -1    6     -2.02      0.00
   10   -1    7     -3.36      0.00
   10   -1    8     -3.67      0.00
   10   -1    9     -1.93      0.00
   10   -1   10      0.31      0.00
  -10    0    1     -0.32      0.00
   10    0    0      1.85      0.00
   10    0    1      2.96      0.00
   10    0    2      2.52      0.00
   10    0    3      1.93      0.00
   10    0    4      1.95      0.00
   10    0    5      1.93      0.00
   10    0    6      1.84      0.00
   10    0    7      2.34      0.00
   10    0    8      2.76      0.00
   10    0    9      1.67      0.00
   10    0   10     -0.36      0.00
   10    0   11     -1.27      0.00
  -10   -1    1     -0.89      0.00
   10    1    0     -2.71      0.00
   10    1    1     -3.52      0.00
   10    1    2     -2.96      0.00
   10    1    3     -1.99      0.00
   10    1    4     -1.19      0.00
   10    1    5     -0.33      0.00
   10    1    6      0.30      0.00
   10    1    7     -0.15      0.00
   10    1    8     -1.30      0.00
   10    1    9     -1.44      0.00
   10    1   10     -0.07      0.00
   10    1   11      1.23      0.00
  -10   -2    2      0.31      0.00
  -10   -2    1      1.26      0.00
   10    2    0      2.05      0.00
   10    2    1      1.92      0.00
   10    2    2      1.13      0.00
   10    2    3      0.10      0.00
   10    2    4     -1.13      0.00
   10    2    5     -2.24      0.00
   10    2    6     -2.44      0.00
   10    2    7     -1.26      0.00
   10    2    8      0.68      0.00
   10    2    9      1.84      0.00
   10    2   10      1.35      0.00
   10    2   11      0.16      0.00
  -10   -3    3     -0.45      0.00
  -10   -3    2     -0.16      0.00
  -10   -3    1     -0.31      0.00
   10    3    0     -0.23      0.00
   10    3    1      0.54      0.00
   10    3    2      1.41      0.00
   10    3    3      2.22      0.00
   10    3    4      3.35      0.00
   10    3    5      3.97      0.00
   10    3    6      2.90      0.00
   10    3    7      0.58      0.00
   10    3    8     -1.58      0.00
   10    3    9     -2.67      0.00
   10    3   10     -2.46      0.00
   10    3   11     -1.54      0.00
  -10   -4    3      0.41      0.00
  -10   -4    2     -0.58      0.00
  -10   -4    1     -1.13      0.00
   10    4    0     -1.27      0.00
   10    4    1     -1.67      0.00
   10    4    2     -2.10      0.00
   10    4    3     -2.55      0.00
   10    4    4     -3.51      0.00
   10    4    5     -3.81      0.00
   10    4    6     -1.77      0.00
   10    4    7      1.54      0.00
   10    4    8      3.70      0.00
   10    4    9      4.10      0.00
   10    4   10      3.34      0.00
   10    4   11      2.03      0.00
  -10   -5    3      0.33      0.00
  -10   -5    2      1.29      0.00
  -10   -5    1      1.79      0.00
   10    5    0      1.39      0.00
   10    5    1      1.03      0.00
   10    5    2      0.88      0.00
   10    5    3      0.80      0.00
   10    5    4      1.41      0.00
   10    5    5      1.96      0.00
   10    5    6      0.38      0.00
   10    5    7     -2.75      0.00
   10    5    8     -4.73      0.00
   10    5    9     -4.74      0.00
   10    5   10     -3.59      0.00
   10    5   11     -1.82      0.00
  -10   -6    2     -1.48      0.00
  -10   -6    1     -1.22      0.00
   10    6    0     -0.15      0.00
   10    6    1      0.59      0.00
   10    6    2      0.79      0.00
   10    6    3      1.22      0.00
   10    6    4      1.23      0.00
   10    6    5      0.34      0.00
   10    6    6      0.27      0.00
   10    6    7      1.71      0.00
   10    6    8      2.86      0.00
   10    6    9      2.74      0.00
   10    6   10      1.91      0.00
  -10   -7    1      0.56      0.00
   10    7    0     -0.98      0.00
   10    7    1     -2.10      0.00
   10    7    2     -2.23      0.00
   10    7    3     -2.55      0.00
   10    7    4     -2.86      0.00
   10    7    5     -1.72      0.00
   10    7    6     -0.06      0.00
   10    7    7      0.39      0.00
   10    7    8      0.16      0.00
   10    7    9      0.24      0.00
   10    7   10      0.47      0.00
  -10   -8    1     -0.75      0.00
   10    8    0      0.72      0.00
   10    8    1      2.54      0.00
   10    8    2      3.15      0.00
   10    8    3      3.15      0.00
   10    8    4      3.01      0.00
   10    8    5      1.56      0.00
   10    8    6     -0.81      0.00
   10    8    7     -2.01      0.00
   10    8    8     -1.80      0.00
   10    8    9     -1.32      0.00
   10    9    0      0.10      0.00
   10    9    1     -2.02      0.00
   10    9    2     -3.06      0.00
   10    9    3     -2.67      0.00
   10    9    4     -1.89      0.00
   10    9    5     -0.39      0.00
   10    9    6      1.73      0.00
   10    9    7      2.72      0.00
   10    9    8      2.04      0.00
   10   10    2      2.00      0.00
   10   10    3      1.14      0.00
   10   10    4      0.28      0.00
   10   10    5     -0.42      0.00
   10   10    6     -1.57      0.00
   10   11    3      0.28      0.00
   10   11    4      0.63      0.00
   11   -2    7      1.31      0.00
   11   -2    8      1.34      0.00
   11   -1    6     -1.45      0.00
   11   -1    7     -2.05      0.00
   11   -1    8     -1.98      0.00
   11    0    5      1.45      0.00
   11    0    6      1.57      0.00
   11    0    7      1.86      0.00
   11    0    8      1.76      0.00
   11    0    9      1.01      0.00
   11    1    4     -0.26      0.00
   11    1    5      0.16      0.00
   11    1    6     -0.11      0.00
   11    1    7     -0.93      0.00
   11    1    8     -1.53      0.00
   11    1    9     -1.35      0.00
   11    2    2     -0.27      0.00
   11    2    3     -0.69      0.00
   11    2    4     -1.39      0.00
   11    2    5     -2.02      0.00
   11    2    6     -1.55      0.00
   11    2    7     -0.01      0.00
   11    2    8      1.43      0.00
   11    2    9      1.93      0.00
   11    3    1      0.88      0.00
   11    3    2      1.37      0.00
   11    3    3      1.52      0.00
   11    3    4      1.84      0.00
   11    3    5      2.25      0.00
   11    3    6      1.52      0.00
   11    3    7     -0.38      0.00
   11    3    8     -1.94      0.00
   11    3    9     -2.40      0.00
   11    4    2     -1.05      0.00
   11    4    3     -1.02      0.00
   11    4    4     -1.08      0.00
   11    4    5     -1.21      0.00
   11    4    6     -0.19      0.00
   11    4    7      2.00      0.00
   11    4    8      3.45      0.00
   11    4    9      3.29      0.00
   11    5    0      1.06      0.00
   11    5    1      0.41      0.00
   11    5    2      0.06      0.00
   11    5    3     -0.11      0.00
   11    5    4     -0.15      0.00
   11    5    5      0.10      0.00
   11    5    6     -0.52      0.00
   11    5    7     -2.56      0.00
   11    5    8     -4.09      0.00
   11    5    9     -3.71      0.00
   11    6    0     -0.44      0.00
   11    6    1      0.13      0.00
   11    6    2      0.56      0.00
   11    6    3      1.00      0.00
   11    6    4      1.46      0.00
   11    6    5      1.03      0.00
   11    6    6      0.37      0.00
   11    6    7      1.13      0.00
   11    6    8      2.38      0.00
   11    7    1     -0.53      0.00
   11    7    2     -0.92      0.00
   11    7    3     -1.48      0.00
   11    7    4     -2.38      0.00
   11    7    5     -2.05      0.00
   11    7    6     -0.31      0.00
   11    7    7      0.51      0.00
   11    8    2      1.36      0.00
   11    8    3      1.64      0.00
   11    8    4      2.17      0.00
   11    8    5      1.93      0.00
   12    1    6      0.11      0.00
   12    1    7     -0.61      0.00
   12    2    5     -1.23      0.00
   12    2    6     -1.11      0.00
   12    2    7     -0.15      0.00
   12    3    5      0.74      0.00
   12    3    6      1.00      0.00
   12    3    7      0.33      0.00
   12    4    4      0.07      0.00
   12    4    5     -0.10      0.00
   12    4    6     -0.17      0.00
   12    5    3      0.02      0.00
   12    5    4      0.11      0.00
   12    5    5      0.17      0.00
   12    5    6      0.06      0.00
   12    7    6     -0.10      0.00
    1    0    0     63.38      0.00
    0    1    0    -58.88      0.00
    1    1    0    -39.66      0.00
  -10    2    0      0.88      0.00
  -10    3    0     -0.84      0.00
   -5   11    0      0.10      0.00
    5  -11    1     -0.71      0.00
   10   -3    1     -0.18      0.00
    0   -1    1    -36.31      0.00
    0    0    1     58.56      0.00
    1    0    1     48.88      0.00
  -10    1    1      0.79      0.00
    0    1    1    -50.62      0.00
    1    1    1    -36.91      0.00
   11    1    1     -1.20      0.00
  -10    2    1     -0.02      0.00
   11    2    1      0.19      0.00
   11    4    1     -0.95      0.00
    7   12    1      0.14      0.00
    6   13    1      1.02      0.00
    1  -13    2      0.00      0.00
    3  -12    2     -0.35      0.00
    6  -10    2      0.23      0.00
   10   -3    2      1.25      0.00
  -10   -1    2      0.44      0.00
  -10    0    2     -1.60      0.00
   11    0    2      1.52      0.00
   11    1    2     -1.13      0.00
   -9    4    2      1.13      0.00
    4  -11    3     -0.85      0.00
   10   -4    3     -0.74      0.00
   11   -1    3     -1.34      0.00
   11    0    3      1.69      0.00
   11    1    3     -0.81      0.00
   -9    2    3     -0.87      0.00
   -9    3    3     -0.71      0.00
    5   14    3     -1.45      0.00
    2  -12    4     -0.30      0.00
    4  -11    4     -0.14      0.00
    5  -10    4      0.85      0.00
   10   -4    4     -0.41      0.00
   11   -1    4     -1.16      0.00
   11    0    4      1.61      0.00
   -9    1    4      1.33      0.00
    5   14    4     -0.42      0.00
    3  -11    5      0.66      0.00
    5  -10    5     -0.09      0.00
    6   -9    5      0.31      0.00
    7   -8    5      0.20      0.00
    8   -7    5      0.10      0.00
   10   -4    5      0.09      0.00
   11   -1    5     -1.04      0.00
   -8    3    5      1.50      0.00
   -1   13    5     -1.16      0.00
    1  -11    6      0.60      0.00
    2  -11    6      0.10      0.00
   -4  -10    6      1.32      0.00
    4  -10    6     -1.22      0.00
   -5   -9    6     -0.94      0.00
    6   -9    6      0.59      0.00
   -6   -8    6     -0.78      0.00
    7   -8    6      0.37      0.00
   -8    1    6      0.46      0.00
   11    8    6      0.14      0.00
   -5    9    6      0.72      0.00
    2  -10    7     -0.50      0.00
    3  -10    7     -0.44      0.00
   -4   -9    7     -1.59      0.00
    5   -9    7      1.91      0.00
   -5   -8    7      1.23      0.00
    6   -8    7     -0.75      0.00
   -6   -6    7     -0.57      0.00
   11    8    7     -1.17      0.00
   10   10    7     -2.20      0.00
    3   -9    8      1.25      0.00
    4   -9    8      1.20      0.00
    7   -7    8      0.94      0.00
   -5   -6    8     -0.33      0.00
    8   -6    8     -2.29      0.00
   -6   -4    8     -3.51      0.00
   11    7    8     -0.15      0.00
   -3   10    8     -1.17      0.00
   10   10    8     -1.58      0.00
    9   11    8      1.94      0.00
    8   12    8     -1.58      0.00
   -2   -8    9      0.41      0.00
    4   -8    9     -0.45      0.00
   -3   -7    9      0.05      0.00
    6   -7    9      0.58      0.00
   -4   -6    9      0.01      0.00
   -5   -4    9     -3.06      0.00
   11    6    9      2.32      0.00
   11    7    9     -0.52      0.00
   -3    9    9      0.75      0.00
   10    9    9      0.89      0.00
   -2   10    9     -0.82      0.00
    9   11    9      1.09      0.00
    5   -7   10      0.35      0.00
   -3   -5   10      0.89      0.00
   -4   -4   10     -1.59      0.00
   11    4   10      2.32      0.00
   11    5   10     -2.40      0.00
   10    8   10     -0.95      0.00
   -2    9   10      0.08      0.00
   -1   10   10      0.87      0.00
    9   10   10     -0.48      0.00
    8   11   10      1.10      0.00
    7   12   10     -0.80      0.00
   -2   -5   11     -0.24      0.00
   -3   -3   11      0.53      0.00
   -3    6   11      0.32      0.00
   10    6   11      0.65      0.00
   -2    7   11      0.61      0.00
   10    7   11      0.73      0.00
   -1    9   11     -1.02      0.00
    9    9   11      0.28      0.00
    0   10   11      2.54      0.00
   -1   -4   12      0.72      0.00
   10    4   12      1.05      0.00
   -2    5   12     -0.35      0.00
   10    5   12     -0.27      0.00
   -1    7   12      1.62      0.00
    0    8   12      0.36      0.00
    9    8   12     -1.19      0.00
    1    9   12     -2.18      0.00
    2   10   12      0.88      0.00
   -1    4   13     -0.60      0.00
    0    6   13     -1.10      0.00
    9    6   13     -1.24      0.00
    1    7   13     -1.00      0.00
    1    8   13      1.45      0.00
    2    8   13      1.51      0.00
    8    8   13     -1.45      0.00
    2    9   13     -0.10      0.00
    3    9   13      0.14      0.00
    6    0   14      0.97      0.00
    7    1   14      1.63      0.00
    1    4   14     -0.90      0.00
    1    5   14      0.00      0.00
    2    6   14      0.23      0.00
    3    7   14      0.74      0.00
    0    0    0      0.00      0.00
# SQUEEZE RESULTS (Version =  21116)
# Note: Data are Listed for all Voids in the P1 Unit Cell
# i.e. Centre of Gravity, Solvent Accessible Volume,
# Recovered number of Electrons in the Void and
# Details about the Squeezed Material
loop_
  _platon_squeeze_void_nr
  _platon_squeeze_void_average_x
  _platon_squeeze_void_average_y
  _platon_squeeze_void_average_z
  _platon_squeeze_void_volume
  _platon_squeeze_void_count_electrons
  _platon_squeeze_void_content
   1  0.000  0.500  0.000       138        70 ' '
# Missing Reflections Below sin(th)/lambda = 0.25
loop_
  _platon_missing_refln_index_h
  _platon_missing_refln_index_k
  _platon_missing_refln_index_l
  _platon_missing_refln_theta
    1    0    0     2.493
    0    1    0     1.940
    1    1    0     2.876
    0   -1    1     2.969
    0    0    1     1.949
    1    0    1     2.592
    0    1    1     2.512
    1    1    1     2.743
_platon_squeeze_void_probe_radius                  1.20
_platon_squeeze_details
)
TITL gmeauf4 P -1 R = 0.10
CELL    8.9700   10.9988   11.4532     75.89     67.70     75.46
SPGR P-1
# Solvent Accessible Volume =       140
# Electrons Found in S.A.V. =        69
# Note: Atoms in Void as Cxxx and Qxxx all others
C101 0.987 0.442 0.124 !      16.45 eA-3
C102 0.081 0.639 0.061 !      15.34 eA-3
C103 0.072 0.498 0.001 !       5.19 eA-3
Q104 0.638 0.393 0.373 !       2.85 eA-3
C105 0.020 0.563 0.057 !       1.96 eA-3
Q106 0.309 0.671 0.026 !       1.88 eA-3
Q107 0.570 0.527 0.145 !       1.74 eA-3
Q108 0.342 0.547 0.276 !       1.67 eA-3
Q109 0.511 0.502 0.240 !       1.51 eA-3
C110 0.085 0.513 0.075 !       1.49 eA-3
C111 0.914 0.393 0.034 !       1.46 eA-3
Q112 0.509 0.517 0.049 !       1.44 eA-3
Q113 0.451 0.484 0.299 !       1.43 eA-3
Q114 0.721 0.389 0.425 !       1.40 eA-3
Q115 0.376 0.578 0.181 !       1.39 eA-3
Q116 0.385 0.465 0.235 !       1.38 eA-3
Q117 0.477 0.452 0.177 !       1.38 eA-3
Q118 0.308 0.514 0.188 !       1.37 eA-3
Q119 0.884 0.346 0.045 !       1.37 eA-3
Q120 0.487 0.595 0.095 !       1.29 eA-3
Q121 0.217 0.358 0.124 !       1.29 eA-3
Q122 0.569 0.532 0.234 !       1.29 eA-3
Q123 0.432 0.560 0.147 !       1.20 eA-3
Q124 0.890 0.503 0.110 !       1.17 eA-3
Q125 0.161 0.704 0.074 !       1.15 eA-3
Q126 0.428 0.626 0.216 !       1.15 eA-3
Q127 0.532 0.606 0.188 !       1.14 eA-3
Q128 0.192 0.778 0.433 !       1.14 eA-3
C129 1.008 0.587 0.157 !       1.13 eA-3
Q130 0.857 0.331 0.128 !       1.12 eA-3
Q131 0.625 0.592 0.108 !       1.12 eA-3
Q132 0.177 0.512 0.159 !       1.11 eA-3
Q133 0.016 0.638 0.156 !       1.09 eA-3
Q134 0.990 0.294 0.002 !       1.08 eA-3
Q135 1.008 0.675 0.380 !       1.07 eA-3
Q136 0.068 0.703 0.127 !       1.05 eA-3
Q137 0.844 0.564 0.045 !       1.05 eA-3
Q138 0.558 0.256 0.359 !       1.04 eA-3
Q139 0.936 0.448 0.231 !       1.03 eA-3
Q140 0.039 0.325 0.160 !       1.03 eA-3
Q141 1.008 0.363-0.001 !       1.01 eA-3
Q142 0.073 0.186 0.253 !       1.00 eA-3
Q143 0.245 0.438 0.062 !       1.00 eA-3
Q144 0.087 0.233 0.407 !       0.99 eA-3
Q145 0.292 0.483 0.311 !       0.99 eA-3
Q146 0.301 0.653 0.158 !       0.98 eA-3
Q147 0.416 0.439 0.287 !       0.98 eA-3
Q148 0.228 0.621 0.155 !       0.97 eA-3
Q149 0.628 0.284 0.468 !       0.97 eA-3
Q150 0.876 0.578 0.219 !       0.97 eA-3
Q151 0.535 0.484 0.315 !       0.97 eA-3
Q152 0.676 0.547 0.173 !       0.96 eA-3
Q153 0.058 0.751 0.028 !       0.96 eA-3
Q154 0.660 0.704 0.172 !       0.95 eA-3
C155 0.954 0.533 0.186 !       0.93 eA-3
Q156 0.975 0.677 0.219 !       0.93 eA-3
Q157 0.766 0.349 0.346 !       0.93 eA-3
Q158 0.191 0.464 0.013 !       0.93 eA-3
Q159 0.909 0.316 0.360 !       0.92 eA-3
Q160 0.381 0.283 0.013 !       0.92 eA-3
Q161 0.362 0.500 0.465 !       0.91 eA-3
Q162 0.999 0.565 0.298 !       0.91 eA-3
Q163 0.677 0.479 0.216 !       0.90 eA-3
Q164 0.750 0.388 0.309 !       0.90 eA-3
Q165 0.294 0.343 0.231 !       0.89 eA-3
Q166 0.730 0.499 0.090 !       0.88 eA-3
Q167 0.384 0.076 0.361 !       0.88 eA-3
Q168 0.923 0.184 0.047 !       0.88 eA-3
Q169 0.103 0.217 0.154 !       0.88 eA-3
Q170 0.964 0.129 0.175 !       0.88 eA-3
Q171 0.085 0.378 0.016 !       0.88 eA-3
Q172 0.782 0.468 0.152 !       0.88 eA-3
Q173 0.601 0.810 0.206 !       0.88 eA-3
Q174 0.123 0.325 0.235 !       0.88 eA-3
Q175 0.698 0.423 0.003 !       0.87 eA-3
Q176 0.549 0.215 0.470 !       0.87 eA-3
Q177 0.370 0.610 0.075 !       0.87 eA-3
Q178 0.059 0.700 0.409 !       0.87 eA-3
Q179 0.781 0.488 0.238 !       0.86 eA-3
Q180 0.618 0.031 0.280 !       0.85 eA-3
Q181 0.067 0.329 0.407 !       0.85 eA-3
Q182 0.082 0.564 0.172 !       0.85 eA-3
Q183 0.493 0.825 0.457 !       0.85 eA-3
Q184 0.825 0.435 0.127 !       0.84 eA-3
Q185 0.245 0.540 0.217 !       0.84 eA-3
Q186 0.816 0.547 0.171 !       0.84 eA-3
Q187 0.441 0.281 0.297 !       0.84 eA-3
Q188 0.849 0.641 0.077 !       0.84 eA-3
Q189 0.699 0.561 0.012 !       0.84 eA-3
Q190 0.882 0.663 0.373 !       0.84 eA-3
Q191 0.563 0.295 0.422 !       0.83 eA-3
Q192 0.943 0.953 0.364 !       0.82 eA-3
Q193 0.206 0.610 0.085 !       0.81 eA-3
Q194 0.906 0.384 0.235 !       0.81 eA-3
Q195 0.608 0.141 0.497 !       0.81 eA-3
Q196 0.120 0.752 0.155 !       0.81 eA-3
Q197 0.257 0.754 0.123 !       0.81 eA-3
Q198 0.721 0.860 0.346 !       0.80 eA-3
Q199 0.429 0.392 0.466 !       0.80 eA-3
)
;
_shelx_fab_checksum              8091
loop_
_symmetry_equiv_pos_as_xyz
'x, y, z'
'-x, -y, -z'
loop_
_atom_site_label
_atom_site_type_symbol
_atom_site_fract_x
_atom_site_fract_y
_atom_site_fract_z
_atom_site_U_iso_or_equiv
_atom_site_adp_type
_atom_site_occupancy
_atom_site_site_symmetry_order
_atom_site_calc_flag
_atom_site_refinement_flags_posn
_atom_site_refinement_flags_adp
C1 C 0.6017(7) 0.7899(5) -0.0023(6) 0.0234(13) Uani 1 1 d . .
C2 C 0.6797(8) 0.7959(6) 0.0791(6) 0.0290(15) Uani 1 1 d . .
C3 C 0.7691(9) 0.8916(6) 0.0545(7) 0.0339(16) Uani 1 1 d . .
C4 C 0.7830(8) 0.9875(7) -0.0476(6) 0.0333(16) Uani 1 1 d . .
H4 H 0.84097 1.05383 -0.060792 0.04 Uiso 1 1 calc R U
C5 C 0.7081(8) 0.9824(6) -0.1300(6) 0.0337(16) Uani 1 1 d . .
C6 C 0.6192(8) 0.8880(6) -0.1085(6) 0.0270(14) Uani 1 1 d . .
C7 C 0.4164(7) 0.4787(5) 0.5218(6) 0.0197(12) Uani 1 1 d . .
H7A H 0.326944 0.55297 0.539326 0.024 Uiso 1 1 calc R U
H7B H 0.402014 0.415649 0.601662 0.024 Uiso 1 1 calc R U
C8 C 0.2096(7) 0.3567(5) 0.4605(6) 0.0211(13) Uani 1 1 d . .
C9 C 0.1614(8) 0.3165(6) 0.3757(6) 0.0298(15) Uani 1 1 d . .
H9 H 0.227638 0.320613 0.28795 0.036 Uiso 1 1 calc R U
C10 C 0.0172(8) 0.2710(6) 0.4206(7) 0.0341(9) Uani 1 1 d . U
H10 H -0.015287 0.242394 0.363463 0.041 Uiso 1 1 calc R U
C11 C -0.0814(8) 0.2661(6) 0.5473(7) 0.0341(9) Uani 1 1 d . U
H11 H -0.179888 0.233048 0.57658 0.041 Uiso 1 1 calc R U
C12 C -0.0390(8) 0.3083(6) 0.6313(7) 0.0341(9) Uani 1 1 d . U
H12 H -0.108456 0.306427 0.718053 0.041 Uiso 1 1 calc R U
C13 C 0.1100(7) 0.3548(6) 0.5870(6) 0.0270(14) Uani 1 1 d . .
H13 H 0.141338 0.384584 0.644028 0.032 Uiso 1 1 calc R U
C14 C 0.5546(7) 0.2611(5) 0.3914(6) 0.0209(13) Uani 1 1 d . .
C15 C 0.6757(8) 0.2365(6) 0.2764(6) 0.0278(14) Uani 1 1 d . .
H15 H 0.679921 0.296912 0.200644 0.033 Uiso 1 1 calc R U
C16 C 0.7906(8) 0.1248(6) 0.2704(7) 0.0342(16) Uani 1 1 d . .
H16 H 0.872659 0.108704 0.191208 0.041 Uiso 1 1 calc R U
C17 C 0.7845(9) 0.0376(7) 0.3803(7) 0.0389(18) Uani 1 1 d . .
H17 H 0.862053 -0.039368 0.376479 0.047 Uiso 1 1 calc R U
C18 C 0.6673(9) 0.0609(6) 0.4955(7) 0.0388(18) Uani 1 1 d . .
H18 H 0.666303 0.000877 0.571024 0.047 Uiso 1 1 calc R U
C19 C 0.5494(8) 0.1722(6) 0.5026(6) 0.0273(14) Uani 1 1 d . .
H19 H 0.466867 0.187198 0.58197 0.033 Uiso 1 1 calc R U
Au1 Au 0.45388(3) 0.54040(2) 0.20626(2) 0.02123(9) Uani 1 1 d . .
F1 F 0.6738(5) 0.7075(4) 0.1851(4) 0.0419(10) Uani 1 1 d . .
F2 F 0.8427(5) 0.8877(4) 0.1402(4) 0.0461(11) Uani 1 1 d . .
F3 F 0.7127(6) 1.0735(4) -0.2333(4) 0.0497(12) Uani 1 1 d . .
F4 F 0.5456(5) 0.8908(4) -0.1935(3) 0.0373(10) Uani 1 1 d . .
P1 P 0.40699(18) 0.40760(14) 0.39622(14) 0.0174(3) Uani 1 1 d . .
S1 S 0.4932(2) 0.67278(16) 0.01039(15) 0.0296(4) Uani 1 1 d . .
loop_
_atom_site_aniso_label
_atom_site_aniso_U_11
_atom_site_aniso_U_22
_atom_site_aniso_U_33
_atom_site_aniso_U_23
_atom_site_aniso_U_13
_atom_site_aniso_U_12
C1 0.026(3) 0.015(3) 0.027(3) -0.001(3) -0.005(3) -0.008(3)
C2 0.035(4) 0.023(3) 0.028(4) 0.002(3) -0.011(3) -0.009(3)
C3 0.039(4) 0.028(4) 0.043(4) -0.008(3) -0.019(3) -0.008(3)
C4 0.033(4) 0.032(4) 0.035(4) -0.004(3) -0.007(3) -0.017(3)
C5 0.038(4) 0.023(4) 0.030(4) 0.000(3) -0.003(3) -0.006(3)
C6 0.024(3) 0.027(4) 0.026(3) -0.005(3) -0.005(3) -0.001(3)
C7 0.020(3) 0.013(3) 0.027(3) -0.001(2) -0.009(3) -0.004(2)
C8 0.019(3) 0.012(3) 0.031(3) 0.000(3) -0.011(3) 0.000(2)
C9 0.030(4) 0.036(4) 0.034(4) -0.006(3) -0.018(3) -0.012(3)
C10 0.026(2) 0.027(2) 0.051(3) 0.0070(19) -0.0187(18) -0.0119(17)
C11 0.026(2) 0.027(2) 0.051(3) 0.0070(19) -0.0187(18) -0.0119(17)
C12 0.026(2) 0.027(2) 0.051(3) 0.0070(19) -0.0187(18) -0.0119(17)
C13 0.016(3) 0.029(4) 0.033(4) 0.001(3) -0.007(3) -0.007(3)
C14 0.024(3) 0.013(3) 0.030(3) -0.002(3) -0.013(3) -0.007(2)
C15 0.032(4) 0.023(3) 0.028(4) -0.001(3) -0.011(3) -0.007(3)
C16 0.030(4) 0.029(4) 0.041(4) -0.014(3) -0.006(3) 0.000(3)
C17 0.047(5) 0.020(4) 0.056(5) -0.012(3) -0.028(4) 0.006(3)
C18 0.054(5) 0.023(4) 0.044(4) -0.001(3) -0.030(4) 0.001(3)
C19 0.034(4) 0.020(3) 0.026(3) -0.003(3) -0.010(3) -0.002(3)
Au1 0.02212(14) 0.01845(14) 0.02268(14) -0.00026(10) -0.00789(10) -0.00540(10)
F1 0.066(3) 0.033(2) 0.042(2) 0.0111(19) -0.034(2) -0.026(2)
F2 0.063(3) 0.036(2) 0.054(3) -0.002(2) -0.033(2) -0.021(2)
F3 0.070(3) 0.037(2) 0.040(2) 0.014(2) -0.016(2) -0.030(2)
F4 0.052(3) 0.034(2) 0.027(2) 0.0058(17) -0.0165(19) -0.0142(19)
P1 0.0174(7) 0.0154(8) 0.0193(8) -0.0030(6) -0.0056(6) -0.0037(6)
S1 0.0419(10) 0.0262(9) 0.0268(9) 0.0042(7) -0.0163(8) -0.0173(8)
loop_
_atom_type_symbol
_atom_type_description
_atom_type_scat_dispersion_real
_atom_type_scat_dispersion_imag
_atom_type_scat_source
C C 0.0033 0.0016 'International Tables Vol C Tables 4.2.6.8 and 6.1.1.4'
H H 0 0 'International Tables Vol C Tables 4.2.6.8 and 6.1.1.4'
Au Au -2.0133 8.8022 'International Tables Vol C Tables 4.2.6.8 and 6.1.1.4'
F F 0.0171 0.0103 'International Tables Vol C Tables 4.2.6.8 and 6.1.1.4'
P P 0.1023 0.0942 'International Tables Vol C Tables 4.2.6.8 and 6.1.1.4'
S S 0.1246 0.1234 'International Tables Vol C Tables 4.2.6.8 and 6.1.1.4'
loop_
_exptl_crystal_face_index_h
_exptl_crystal_face_index_k
_exptl_crystal_face_index_l
_exptl_crystal_face_perp_dist
-6 -14 1 0.094
6 14 -1 0.094
-11 2 0 0.0157
11 -2 0 0.0157
4 8 15 0.2483
-4 -8 -15 0.2483
loop_
_geom_angle_atom_site_label_1
_geom_angle_atom_site_label_2
_geom_angle_atom_site_label_3
_geom_angle
_geom_angle_site_symmetry_1
C2 C1 C6 114.4(5) .
C2 C1 S1 127.4(5) .
C6 C1 S1 118.1(5) .
F1 C2 C1 121.0(5) .
F1 C2 C3 117.3(6) .
C1 C2 C3 121.6(6) .
C4 C3 F2 119.7(6) .
C4 C3 C2 123.5(6) .
F2 C3 C2 116.8(6) .
C3 C4 C5 115.7(6) .
C3 C4 H4 122.1 .
C5 C4 H4 122.1 .
F3 C5 C4 120.6(6) .
F3 C5 C6 117.2(6) .
C4 C5 C6 122.1(6) .
F4 C6 C5 118.7(6) .
F4 C6 C1 118.7(5) .
C5 C6 C1 122.6(6) .
C7 C7 P1 109.6(5) 2_666
C7 C7 H7A 109.7 2_666
P1 C7 H7A 109.7 .
C7 C7 H7B 109.7 2_666
P1 C7 H7B 109.7 .
H7A C7 H7B 108.2 .
C13 C8 C9 120.2(6) .
C13 C8 P1 123.1(5) .
C9 C8 P1 116.7(5) .
C10 C9 C8 119.2(6) .
C10 C9 H9 120.4 .
C8 C9 H9 120.4 .
C9 C10 C11 121.1(7) .
C9 C10 H10 119.5 .
C11 C10 H10 119.5 .
C12 C11 C10 120.8(6) .
C12 C11 H11 119.6 .
C10 C11 H11 119.6 .
C11 C12 C13 119.0(7) .
C11 C12 H12 120.5 .
C13 C12 H12 120.5 .
C8 C13 C12 119.7(6) .
C8 C13 H13 120.1 .
C12 C13 H13 120.1 .
C15 C14 C19 119.3(6) .
C15 C14 P1 120.0(5) .
C19 C14 P1 120.7(5) .
C14 C15 C16 121.0(6) .
C14 C15 H15 119.5 .
C16 C15 H15 119.5 .
C17 C16 C15 119.4(6) .
C17 C16 H16 120.3 .
C15 C16 H16 120.3 .
C18 C17 C16 120.6(6) .
C18 C17 H17 119.7 .
C16 C17 H17 119.7 .
C17 C18 C19 120.6(6) .
C17 C18 H18 119.7 .
C19 C18 H18 119.7 .
C14 C19 C18 119.1(6) .
C14 C19 H19 120.4 .
C18 C19 H19 120.4 .
P1 Au1 S1 177.44(5) .
C14 P1 C8 104.6(3) .
C14 P1 C7 105.0(3) .
C8 P1 C7 105.4(3) .
C14 P1 Au1 113.5(2) .
C8 P1 Au1 115.0(2) .
C7 P1 Au1 112.43(19) .
C1 S1 Au1 110.4(2) .
loop_
_geom_bond_atom_site_label_1
_geom_bond_atom_site_label_2
_geom_bond_distance
_geom_bond_site_symmetry_2
C1 C2 1.383(9) .
C1 C6 1.404(8) .
C1 S1 1.749(6) .
C2 F1 1.350(7) .
C2 C3 1.392(9) .
C3 C4 1.360(9) .
C3 F2 1.364(7) .
C4 C5 1.368(9) .
C4 H4 0.95 .
C5 F3 1.346(7) .
C5 C6 1.384(9) .
C6 F4 1.358(7) .
C7 C7 1.546(11) 2_666
C7 P1 1.833(6) .
C7 H7A 0.99 .
C7 H7B 0.99 .
C8 C13 1.382(8) .
C8 C9 1.396(8) .
C8 P1 1.816(6) .
C9 C10 1.372(9) .
C9 H9 0.95 .
C10 C11 1.380(10) .
C10 H10 0.95 .
C11 C12 1.366(10) .
C11 H11 0.95 .
C12 C13 1.418(8) .
C12 H12 0.95 .
C13 H13 0.95 .
C14 C15 1.388(9) .
C14 C19 1.397(8) .
C14 P1 1.808(6) .
C15 C16 1.389(9) .
C15 H15 0.95 .
C16 C17 1.375(10) .
C16 H16 0.95 .
C17 C18 1.375(10) .
C17 H17 0.95 .
C18 C19 1.399(9) .
C18 H18 0.95 .
C19 H19 0.95 .
Au1 P1 2.2603(15) .
Au1 S1 2.3113(16) .
loop_
_geom_hbond_atom_site_label_D
_geom_hbond_atom_site_label_H
_geom_hbond_atom_site_label_A
_geom_hbond_distance_DH
_geom_hbond_distance_HA
_geom_hbond_distance_DA
_geom_hbond_angle_DHA
_geom_hbond_site_symmetry_A
C7 H7B F1 0.99 2.42 3.396(7) 169.2 2_666
loop_
_geom_torsion_atom_site_label_1
_geom_torsion_atom_site_label_2
_geom_torsion_atom_site_label_3
_geom_torsion_atom_site_label_4
_geom_torsion
_geom_torsion_site_symmetry_1
C6 C1 C2 F1 -179.9(5) .
S1 C1 C2 F1 -2.3(10) .
C6 C1 C2 C3 -0.8(9) .
S1 C1 C2 C3 176.8(5) .
F1 C2 C3 C4 -178.9(6) .
C1 C2 C3 C4 2.0(11) .
F1 C2 C3 F2 -0.1(9) .
C1 C2 C3 F2 -179.3(6) .
F2 C3 C4 C5 178.7(6) .
C2 C3 C4 C5 -2.5(10) .
C3 C4 C5 F3 179.3(6) .
C3 C4 C5 C6 2.1(10) .
F3 C5 C6 F4 1.5(9) .
C4 C5 C6 F4 178.7(6) .
F3 C5 C6 C1 -178.3(6) .
C4 C5 C6 C1 -1.1(10) .
C2 C1 C6 F4 -179.5(5) .
S1 C1 C6 F4 2.7(8) .
C2 C1 C6 C5 0.4(9) .
S1 C1 C6 C5 -177.5(5) .
C13 C8 C9 C10 -2.3(9) .
P1 C8 C9 C10 176.8(5) .
C8 C9 C10 C11 0.9(10) .
C9 C10 C11 C12 0.9(10) .
C10 C11 C12 C13 -1.4(10) .
C9 C8 C13 C12 1.9(9) .
P1 C8 C13 C12 -177.1(5) .
C11 C12 C13 C8 -0.1(10) .
C19 C14 C15 C16 0.3(9) .
P1 C14 C15 C16 179.8(5) .
C14 C15 C16 C17 -0.2(10) .
C15 C16 C17 C18 -0.8(11) .
C16 C17 C18 C19 1.6(11) .
C15 C14 C19 C18 0.5(9) .
P1 C14 C19 C18 -179.0(5) .
C17 C18 C19 C14 -1.5(10) .
C15 C14 P1 C8 122.5(5) .
C19 C14 P1 C8 -58.0(5) .
C15 C14 P1 C7 -126.8(5) .
C19 C14 P1 C7 52.7(5) .
C15 C14 P1 Au1 -3.6(6) .
C19 C14 P1 Au1 175.9(4) .
C13 C8 P1 C14 100.1(5) .
C9 C8 P1 C14 -79.0(5) .
C13 C8 P1 C7 -10.4(6) .
C9 C8 P1 C7 170.6(5) .
C13 C8 P1 Au1 -134.8(5) .
C9 C8 P1 Au1 46.1(5) .
C7 C7 P1 C14 67.9(6) 2_666
C7 C7 P1 C8 178.0(5) 2_666
C7 C7 P1 Au1 -55.9(6) 2_666
C2 C1 S1 Au1 10.2(6) .
C6 C1 S1 Au1 -172.3(4) .
