#------------------------------------------------------------------------------
#$Date: 2019-11-17 13:32:49 +0200 (Sun, 17 Nov 2019) $
#$Revision: 230185 $
#$URL: file:///home/coder/svn-repositories/cod/cif/7/05/70/7057004.cif $
#------------------------------------------------------------------------------
#
# This file is available in the Crystallography Open Database (COD),
# http://www.crystallography.net/
#
# All data on this site have been placed in the public domain by the
# contributors.
#
data_7057004
loop_
_publ_author_name
'Moreno-Alc\'antar, Guillermo'
'Romo-Islas, Guillermo'
'Flores-\'Alamo, Marcos'
'Torrens, Hugo'
_publ_section_title
;
 Aurophilicity vs. thiophilicity: directing the crystalline supramolecular
 arrangement in luminescent gold compounds
;
_journal_issue                   10
_journal_name_full               'New Journal of Chemistry'
_journal_page_first              7845
_journal_paper_doi               10.1039/C7NJ04354F
_journal_volume                  42
_journal_year                    2018
_chemical_formula_moiety         'C19 H12 Au Cl0 F5 P S'
_chemical_formula_sum            'C19 H12 Au Cl0 F5 P S'
_chemical_formula_weight         595.28
_space_group_IT_number           2
_space_group_name_Hall           '-P 1'
_space_group_name_H-M_alt        'P -1'
_symmetry_cell_setting           triclinic
_symmetry_Int_Tables_number      2
_symmetry_space_group_name_Hall  '-P 1'
_symmetry_space_group_name_H-M   'P -1'
_atom_sites_solution_hydrogens   geom
_audit_conform_dict_location     ftp://ftp.iucr.org/pub/cif_core.dic
_audit_conform_dict_name         cif_core.dic
_audit_conform_dict_version      2.4.3
_audit_creation_date             2017-08-31T17:31:22-00:00
_audit_creation_method           'WinGX routine CIF_UPDATE'
_audit_update_record
;
2017-11-07 deposited with the CCDC.
2018-02-12 downloaded from the CCDC.
;
_cell_angle_alpha                91.560(4)
_cell_angle_beta                 113.048(5)
_cell_angle_gamma                105.140(4)
_cell_formula_units_Z            2
_cell_length_a                   8.9864(5)
_cell_length_b                   11.0902(4)
_cell_length_c                   11.4091(6)
_cell_measurement_reflns_used    4743
_cell_measurement_temperature    130(2)
_cell_measurement_theta_max      29.4586
_cell_measurement_theta_min      3.4427
_cell_volume                     999.18(10)
_computing_cell_refinement
;
        CrysAlisPro, Agilent Technologies,
        Version 1.171.36.32 (release 02-08-2013 CrysAlis171 .NET)
        (compiled Aug  2 2013,16:46:58)
;
_computing_data_collection
;
        CrysAlisPro, Agilent Technologies,
        Version 1.171.36.32 (release 02-08-2013 CrysAlis171 .NET)
        (compiled Aug  2 2013,16:46:58)
;
_computing_data_reduction
;
        CrysAlisPro, Agilent Technologies,
        Version 1.171.36.32 (release 02-08-2013 CrysAlis171 .NET)
        (compiled Aug  2 2013,16:46:58)
;
_computing_molecular_graphics
;
          'Ortep-3 for Windows (Farrugia, 1997)'
      L. J. Farrugia, J. Appl. Crystallogr., 1997, 30, 565.
;
_computing_publication_material
;    
        'WinGX publication routines (Farrugia, 1999)'                 
    L. J. Farrugia, J. Appl. Crystallogr., 1999, 32, 837-838.
;
_computing_structure_refinement
;
      'SHELXS-2014 (Sheldrick, 2015)'
      Sheldrick, G. M. (2015). Acta Cryst. C71, 3--8.
;
_computing_structure_solution
;
      'SHELXS-2014 (Sheldrick, 2015)'
      Sheldrick, G. M. (2015). Acta Cryst. A71, 3--8.
;
_diffrn_ambient_temperature      130(2)
_diffrn_detector_area_resol_mean 10.4685
_diffrn_measured_fraction_theta_full 0.998
_diffrn_measured_fraction_theta_max 0.851
_diffrn_measurement_device_type  'Xcalibur, Atlas, Gemini'
_diffrn_measurement_method       '\w scans'
_diffrn_orient_matrix_UB_11      -0.0394489
_diffrn_orient_matrix_UB_12      0.0000511
_diffrn_orient_matrix_UB_13      0.0430341
_diffrn_orient_matrix_UB_21      -0.0274865
_diffrn_orient_matrix_UB_22      -0.0669678
_diffrn_orient_matrix_UB_23      -0.0105525
_diffrn_orient_matrix_UB_31      0.0758291
_diffrn_orient_matrix_UB_32      -0.0008122
_diffrn_orient_matrix_UB_33      0.0519663
_diffrn_radiation_monochromator  graphite
_diffrn_radiation_type           MoK\a
_diffrn_radiation_wavelength     0.71073
_diffrn_reflns_av_R_equivalents  0.0423
_diffrn_reflns_av_unetI/netI     0.0646
_diffrn_reflns_Laue_measured_fraction_full 0.998
_diffrn_reflns_Laue_measured_fraction_max 0.851
_diffrn_reflns_limit_h_max       11
_diffrn_reflns_limit_h_min       -11
_diffrn_reflns_limit_k_max       14
_diffrn_reflns_limit_k_min       -14
_diffrn_reflns_limit_l_max       15
_diffrn_reflns_limit_l_min       -14
_diffrn_reflns_number            10918
_diffrn_reflns_point_group_measured_fraction_full 0.998
_diffrn_reflns_point_group_measured_fraction_max 0.851
_diffrn_reflns_theta_full        25.242
_diffrn_reflns_theta_max         29.459
_diffrn_reflns_theta_min         3.443
_exptl_absorpt_coefficient_mu    7.591
_exptl_absorpt_correction_T_max  0.632
_exptl_absorpt_correction_T_min  0.054
_exptl_absorpt_correction_type   analytical
_exptl_absorpt_process_details
;
        CrysAlisPro, Agilent Technologies,
        Version 1.171.36.32 (release 02-08-2013 CrysAlis171 .NET)
        (compiled Aug  2 2013,16:46:58)
Analytical numeric absorption correction using a multifaceted crystal
                        model based on expressions derived by R.C. Clark & J.S.
        (Clark, R. C. & Reid, J. S. (1995). Acta Cryst. A51, 887-897)
;
_exptl_crystal_colour            colourless
_exptl_crystal_density_diffrn    1.979
_exptl_crystal_description       plate
_exptl_crystal_F_000             562
_exptl_crystal_size_max          0.56
_exptl_crystal_size_mid          0.3
_exptl_crystal_size_min          0.06
_refine_diff_density_max         1.627
_refine_diff_density_min         -1.332
_refine_diff_density_rms         0.169
_refine_ls_extinction_method     none
_refine_ls_goodness_of_fit_ref   1.018
_refine_ls_hydrogen_treatment    constr
_refine_ls_matrix_type           full
_refine_ls_number_parameters     244
_refine_ls_number_reflns         4715
_refine_ls_number_restraints     0
_refine_ls_restrained_S_all      1.018
_refine_ls_R_factor_all          0.0354
_refine_ls_R_factor_gt           0.029
_refine_ls_shift/su_max          0.001
_refine_ls_shift/su_mean         0
_refine_ls_structure_factor_coef Fsqd
_refine_ls_weighting_details
'w=1/[\s^2^(Fo^2^)+(0.0204P)^2^] where P=(Fo^2^+2Fc^2^)/3'
_refine_ls_weighting_scheme      calc
_refine_ls_wR_factor_gt          0.0569
_refine_ls_wR_factor_ref         0.0605
_reflns_Friedel_coverage         0
_reflns_number_gt                4236
_reflns_number_total             4715
_reflns_threshold_expression     'I > 2\s(I)'
_cod_data_source_file            c7nj04354f2.cif
_cod_data_source_block           1-gmeauf5-216-sq
_cod_depositor_comments
'Adding full bibliography for 7057004--7057010.cif.'
_cod_original_cell_volume        999.18(9)
_cod_database_code               7057004
_shelx_estimated_absorpt_t_min   0.1
_shelx_estimated_absorpt_t_max   0.659
_shelx_fab_file
;
    0    0    2     17.86      0.00
    0    0    3     -8.45      0.00
    0    0    4    -15.67      0.00
    0    0    5    -10.34      0.00
    0    0    6     -0.73      0.00
    0    0    7      5.85      0.00
    0    0    8      5.80      0.00
    0    0    9      1.25      0.00
    0    0   10     -3.70      0.00
    0    0   11     -5.91      0.00
    0    0   12     -4.25      0.00
    0    0   13     -0.98      0.00
    0    0   14      0.72      0.00
    0   -1   14     -1.40      0.00
    0   -1   13     -0.48      0.00
    0   -1   12      1.21      0.00
    0   -1   11      1.17      0.00
    0   -1   10     -1.19      0.00
    0   -1    9     -4.03      0.00
    0   -1    8     -4.50      0.00
    0   -1    7      0.57      0.00
    0   -1    6     11.01      0.00
    0   -1    5     20.71      0.00
    0   -1    4     22.33      0.00
    0   -1    3     10.13      0.00
    0   -1    2    -17.75      0.00
    0    1    2     -6.15      0.00
    0    1    3      7.93      0.00
    0    1    4      5.93      0.00
    0    1    5     -3.40      0.00
    0    1    6    -12.05      0.00
    0    1    7    -14.09      0.00
    0    1    8     -8.70      0.00
    0    1    9     -0.35      0.00
    0    1   10      5.95      0.00
    0    1   11      7.49      0.00
    0    1   12      4.86      0.00
    0    1   13      1.54      0.00
    0   -2   14      0.64      0.00
    0   -2   13      0.68      0.00
    0   -2   12      1.30      0.00
    0   -2   11      3.44      0.00
    0   -2   10      6.19      0.00
    0   -2    9      7.79      0.00
    0   -2    8      5.98      0.00
    0   -2    7     -1.55      0.00
    0   -2    6    -12.63      0.00
    0   -2    5    -20.04      0.00
    0   -2    4    -18.50      0.00
    0   -2    3     -6.83      0.00
    0   -2    2     12.36      0.00
    0   -2    1     27.25      0.00
    0    2    0     23.45      0.00
    0    2    1      4.24      0.00
    0    2    2    -11.04      0.00
    0    2    3    -11.25      0.00
    0    2    4     -0.79      0.00
    0    2    5     11.88      0.00
    0    2    6     19.76      0.00
    0    2    7     18.50      0.00
    0    2    8      9.91      0.00
    0    2    9      0.35      0.00
    0    2   10     -5.02      0.00
    0    2   11     -5.05      0.00
    0    2   12     -2.44      0.00
    0   -3   14      1.39      0.00
    0   -3   13      0.94      0.00
    0   -3   12     -1.44      0.00
    0   -3   11     -5.20      0.00
    0   -3   10     -8.52      0.00
    0   -3    9     -9.96      0.00
    0   -3    8     -7.92      0.00
    0   -3    7     -1.18      0.00
    0   -3    6      7.00      0.00
    0   -3    5     10.11      0.00
    0   -3    4      5.79      0.00
    0   -3    3     -3.21      0.00
    0   -3    2    -11.73      0.00
    0   -3    1    -11.82      0.00
    0    3    0      0.63      0.00
    0    3    1     16.58      0.00
    0    3    2     22.28      0.00
    0    3    3     14.66      0.00
    0    3    4      0.34      0.00
    0    3    5    -13.03      0.00
    0    3    6    -19.22      0.00
    0    3    7    -15.81      0.00
    0    3    8     -6.96      0.00
    0    3    9      0.49      0.00
    0    3   10      2.77      0.00
    0    3   11      1.09      0.00
    0    3   12     -0.62      0.00
    0   -4   14     -2.65      0.00
    0   -4   13     -2.48      0.00
    0   -4   12      0.08      0.00
    0   -4   11      3.99      0.00
    0   -4   10      7.23      0.00
    0   -4    9      8.58      0.00
    0   -4    8      7.15      0.00
    0   -4    7      2.90      0.00
    0   -4    6     -0.77      0.00
    0   -4    5      0.74      0.00
    0   -4    4      7.38      0.00
    0   -4    3     14.37      0.00
    0   -4    2     15.91      0.00
    0   -4    1      7.79      0.00
    0    4    0     -7.74      0.00
    0    4    1    -20.52      0.00
    0    4    2    -21.88      0.00
    0    4    3    -12.76      0.00
    0    4    4      0.13      0.00
    0    4    5      9.99      0.00
    0    4    6     12.29      0.00
    0    4    7      7.33      0.00
    0    4    8      0.34      0.00
    0    4    9     -3.19      0.00
    0    4   10     -1.88      0.00
    0    4   11      1.08      0.00
    0   -5   13      2.49      0.00
    0   -5   12      1.06      0.00
    0   -5   11     -1.63      0.00
    0   -5   10     -3.83      0.00
    0   -5    9     -4.34      0.00
    0   -5    8     -3.06      0.00
    0   -5    7     -1.14      0.00
    0   -5    6     -1.42      0.00
    0   -5    5     -6.27      0.00
    0   -5    4    -13.95      0.00
    0   -5    3    -19.26      0.00
    0   -5    2    -17.48      0.00
    0   -5    1     -7.75      0.00
    0    5    0      5.10      0.00
    0    5    1     13.02      0.00
    0    5    2     11.87      0.00
    0    5    3      4.45      0.00
    0    5    4     -3.32      0.00
    0    5    5     -6.72      0.00
    0    5    6     -4.30      0.00
    0    5    7      1.49      0.00
    0    5    8      6.13      0.00
    0    5    9      6.35      0.00
    0    5   10      2.70      0.00
    0    5   11     -0.81      0.00
    0   -6   12     -1.20      0.00
    0   -6   11      0.07      0.00
    0   -6   10      0.82      0.00
    0   -6    9     -0.12      0.00
    0   -6    8     -2.00      0.00
    0   -6    7     -2.82      0.00
    0   -6    6     -0.55      0.00
    0   -6    5      5.33      0.00
    0   -6    4     12.18      0.00
    0   -6    3     15.50      0.00
    0   -6    2     12.92      0.00
    0   -6    1      6.11      0.00
    0    6    0     -0.45      0.00
    0    6    1     -2.51      0.00
    0    6    2      0.66      0.00
    0    6    3      5.57      0.00
    0    6    4      7.75      0.00
    0    6    5      5.40      0.00
    0    6    6      0.04      0.00
    0    6    7     -5.38      0.00
    0    6    8     -8.14      0.00
    0    6    9     -6.83      0.00
    0    6   10     -2.87      0.00
    0   -7   12      0.43      0.00
    0   -7   11     -0.21      0.00
    0   -7   10     -0.01      0.00
    0   -7    9      2.12      0.00
    0   -7    8      4.86      0.00
    0   -7    7      5.91      0.00
    0   -7    6      3.92      0.00
    0   -7    5     -0.72      0.00
    0   -7    4     -5.31      0.00
    0   -7    3     -6.80      0.00
    0   -7    2     -5.16      0.00
    0   -7    1     -2.76      0.00
    0    7    0     -1.88      0.00
    0    7    1     -3.87      0.00
    0    7    2     -8.09      0.00
    0    7    3    -11.13      0.00
    0    7    4     -9.88      0.00
    0    7    5     -4.98      0.00
    0    7    6      0.43      0.00
    0    7    7      4.14      0.00
    0    7    8      5.28      0.00
    0    7    9      3.78      0.00
    0    7   10      1.22      0.00
    0   -8   11      1.55      0.00
    0   -8   10      1.47      0.00
    0   -8    9     -0.75      0.00
    0   -8    8     -3.79      0.00
    0   -8    7     -5.61      0.00
    0   -8    6     -5.09      0.00
    0   -8    5     -2.73      0.00
    0   -8    4     -0.82      0.00
    0   -8    3     -0.82      0.00
    0   -8    2     -1.41      0.00
    0   -8    1     -1.06      0.00
    0    8    0      0.52      0.00
    0    8    1      3.78      0.00
    0    8    2      8.06      0.00
    0    8    3     10.06      0.00
    0    8    4      7.70      0.00
    0    8    5      3.21      0.00
    0    8    6     -0.13      0.00
    0    8    7     -1.41      0.00
    0    8    8     -1.17      0.00
    0    8    9     -0.16      0.00
    0   -9   11     -2.49      0.00
    0   -9   10     -3.34      0.00
    0   -9    9     -2.21      0.00
    0   -9    8      0.16      0.00
    0   -9    7      2.21      0.00
    0   -9    6      2.70      0.00
    0   -9    5      2.08      0.00
    0   -9    4      2.27      0.00
    0   -9    3      3.58      0.00
    0   -9    2      4.15      0.00
    0   -9    1      3.43      0.00
    0    9    0      1.95      0.00
    0    9    1     -0.84      0.00
    0    9    2     -4.18      0.00
    0    9    3     -5.06      0.00
    0    9    4     -2.84      0.00
    0    9    5     -0.41      0.00
    0    9    6      0.28      0.00
    0    9    7     -0.19      0.00
    0    9    8     -0.88      0.00
    0  -10   10      3.49      0.00
    0  -10    9      3.69      0.00
    0  -10    8      2.50      0.00
    0  -10    7      1.02      0.00
    0  -10    6      0.67      0.00
    0  -10    5      0.99      0.00
    0  -10    4      0.08      0.00
    0  -10    3     -1.82      0.00
    0  -10    2     -2.81      0.00
    0  -10    1     -2.81      0.00
    0   10    0     -2.32      0.00
    0   10    1     -0.82      0.00
    0   10    2      0.67      0.00
    0   10    3      0.22      0.00
    0   10    4     -1.15      0.00
    0   10    5     -1.22      0.00
    0   10    6     -0.26      0.00
    0   10    7      0.46      0.00
    0   10    8      0.77      0.00
    0  -11    9     -2.53      0.00
    0  -11    8     -2.14      0.00
    0  -11    7     -1.43      0.00
    0  -11    6     -1.93      0.00
    0  -11    5     -3.01      0.00
    0  -11    4     -2.68      0.00
    0  -11    3     -1.29      0.00
    0  -11    2     -0.34      0.00
    0  -11    1      0.29      0.00
    0   11    0      0.72      0.00
    0   11    1      0.58      0.00
    0   11    2      0.86      0.00
    0   11    3      2.07      0.00
    0   11    4      2.40      0.00
    0   11    5      1.19      0.00
    0   11    6      0.12      0.00
    0   11    7     -0.11      0.00
    0  -12    8      0.21      0.00
    0  -12    7     -0.06      0.00
    0  -12    6      1.03      0.00
    0  -12    5      2.64      0.00
    0  -12    4      3.02      0.00
    0  -12    3      2.60      0.00
    0  -12    2      2.30      0.00
    0  -12    1      1.74      0.00
    0   12    0      1.00      0.00
    0   12    1      0.42      0.00
    0   12    2     -0.66      0.00
    0   12    3     -1.83      0.00
    0   12    4     -1.65      0.00
    0   12    5     -0.60      0.00
    0   12    6     -0.16      0.00
    0  -13    7      0.96      0.00
    0  -13    6      0.14      0.00
    0  -13    5     -0.90      0.00
    0  -13    4     -1.23      0.00
    0  -13    3     -1.57      0.00
    0  -13    2     -2.19      0.00
    0  -13    1     -2.25      0.00
    0   13    0     -1.74      0.00
    0   13    1     -1.02      0.00
    0   13    2      0.03      0.00
    0   13    3      0.76      0.00
    0  -14    6     -0.49      0.00
    0  -14    3      0.10      0.00
    0  -14    2      1.21      0.00
    0  -14    1      1.64      0.00
    1  -14    1      0.14      0.00
    1  -14    2      0.61      0.00
    1  -14    6      1.39      0.00
   -1   13    3     -0.04      0.00
   -1   13    2      1.25      0.00
   -1   13    1      1.62      0.00
   -1   13    0      1.28      0.00
    1  -13    1      1.04      0.00
    1  -13    2      0.92      0.00
    1  -13    3      0.84      0.00
    1  -13    4      0.45      0.00
    1  -13    5     -0.87      0.00
    1  -13    6     -2.24      0.00
    1  -13    7     -2.10      0.00
   -1   12    7      0.69      0.00
   -1   12    6      1.02      0.00
   -1   12    5      1.93      0.00
   -1   12    4      2.24      0.00
   -1   12    3      0.79      0.00
   -1   12    2     -1.08      0.00
   -1   12    1     -1.79      0.00
   -1   12    0     -1.93      0.00
    1  -12    1     -2.35      0.00
    1  -12    2     -2.93      0.00
    1  -12    3     -3.36      0.00
    1  -12    4     -2.75      0.00
    1  -12    5     -0.61      0.00
    1  -12    6      1.26      0.00
    1  -12    7      1.14      0.00
    1  -12    8      0.22      0.00
   -1   11    8     -0.51      0.00
   -1   11    7     -1.02      0.00
   -1   11    6     -2.03      0.00
   -1   11    5     -3.32      0.00
   -1   11    4     -3.31      0.00
   -1   11    3     -1.61      0.00
   -1   11    2     -0.06      0.00
   -1   11    1      0.44      0.00
   -1   11    0      0.81      0.00
    1  -11    1      1.54      0.00
    1  -11    2      2.64      0.00
    1  -11    3      3.93      0.00
    1  -11    4      4.04      0.00
    1  -11    5      2.37      0.00
    1  -11    6      0.99      0.00
    1  -11    7      1.29      0.00
    1  -11    8      1.85      0.00
    1  -11    9      1.45      0.00
   -1   10    9     -0.36      0.00
   -1   10    8      0.23      0.00
   -1   10    7      1.28      0.00
   -1   10    6      2.41      0.00
   -1   10    5      2.82      0.00
   -1   10    4      1.94      0.00
   -1   10    3      0.89      0.00
   -1   10    2      1.02      0.00
   -1   10    1      1.70      0.00
   -1   10    0      1.93      0.00
    1  -10    1      1.69      0.00
    1  -10    2      0.58      0.00
    1  -10    3     -1.42      0.00
    1  -10    4     -2.52      0.00
    1  -10    5     -1.97      0.00
    1  -10    6     -1.72      0.00
    1  -10    7     -2.71      0.00
    1  -10    8     -3.57      0.00
    1  -10    9     -3.43      0.00
    1  -10   10     -2.44      0.00
   -1    9    9      0.74      0.00
   -1    9    8     -0.10      0.00
   -1    9    7     -1.00      0.00
   -1    9    6     -0.91      0.00
   -1    9    5      0.67      0.00
   -1    9    4      2.44      0.00
   -1    9    3      2.20      0.00
   -1    9    2     -0.10      0.00
   -1    9    1     -2.45      0.00
   -1    9    0     -3.96      0.00
    1   -9    1     -4.70      0.00
    1   -9    2     -3.97      0.00
    1   -9    3     -2.13      0.00
    1   -9    4     -1.21      0.00
    1   -9    5     -1.48      0.00
    1   -9    6     -0.93      0.00
    1   -9    7      0.96      0.00
    1   -9    8      2.95      0.00
    1   -9    9      4.12      0.00
    1   -9   10      3.83      0.00
   -1    8   10     -0.20      0.00
   -1    8    9      0.38      0.00
   -1    8    8      0.91      0.00
   -1    8    7      0.42      0.00
   -1    8    6     -1.99      0.00
   -1    8    5     -5.79      0.00
   -1    8    4     -8.18      0.00
   -1    8    3     -6.87      0.00
   -1    8    2     -3.04      0.00
   -1    8    1      0.64      0.00
   -1    8    0      3.06      0.00
    1   -8    1      3.96      0.00
    1   -8    2      3.30      0.00
    1   -8    3      2.58      0.00
    1   -8    4      3.59      0.00
    1   -8    5      5.28      0.00
    1   -8    6      5.24      0.00
    1   -8    7      3.11      0.00
    1   -8    8      0.10      0.00
    1   -8    9     -2.47      0.00
    1   -8   10     -3.16      0.00
    1   -8   11     -1.85      0.00
   -1    7   10     -2.43      0.00
   -1    7    9     -3.81      0.00
   -1    7    8     -3.40      0.00
   -1    7    7     -0.72      0.00
   -1    7    6      4.13      0.00
   -1    7    5      9.32      0.00
   -1    7    4     11.48      0.00
   -1    7    3      9.25      0.00
   -1    7    2      4.89      0.00
   -1    7    1      1.53      0.00
   -1    7    0      0.71      0.00
    1   -7    1      2.10      0.00
    1   -7    2      3.63      0.00
    1   -7    3      2.56      0.00
    1   -7    4     -1.55      0.00
    1   -7    5     -5.84      0.00
    1   -7    6     -7.38      0.00
    1   -7    7     -5.96      0.00
    1   -7    8     -2.92      0.00
    1   -7    9     -0.01      0.00
    1   -7   10      1.00      0.00
    1   -7   11      0.12      0.00
   -1    6   11      2.22      0.00
   -1    6   10      5.76      0.00
   -1    6    9      7.60      0.00
   -1    6    8      5.91      0.00
   -1    6    7      1.22      0.00
   -1    6    6     -4.64      0.00
   -1    6    5     -8.62      0.00
   -1    6    4     -8.26      0.00
   -1    6    3     -4.43      0.00
   -1    6    2     -0.80      0.00
   -1    6    1     -0.86      0.00
   -1    6    0     -5.43      0.00
    1   -6    1    -11.49      0.00
    1   -6    2    -14.10      0.00
    1   -6    3    -10.77      0.00
    1   -6    4     -3.60      0.00
    1   -6    5      2.78      0.00
    1   -6    6      5.39      0.00
    1   -6    7      4.63      0.00
    1   -6    8      2.43      0.00
    1   -6    9      0.58      0.00
    1   -6   10      0.41      0.00
    1   -6   11      1.61      0.00
    1   -6   12      2.15      0.00
   -1    5   11     -2.62      0.00
   -1    5   10     -6.80      0.00
   -1    5    9     -7.77      0.00
   -1    5    8     -4.31      0.00
   -1    5    7      1.24      0.00
   -1    5    6      5.06      0.00
   -1    5    5      4.06      0.00
   -1    5    4     -1.38      0.00
   -1    5    3     -7.41      0.00
   -1    5    2     -9.16      0.00
   -1    5    1     -3.37      0.00
   -1    5    0      8.39      0.00
    1   -5    1     18.95      0.00
    1   -5    2     21.59      0.00
    1   -5    3     15.97      0.00
    1   -5    4      7.07      0.00
    1   -5    5      0.61      0.00
    1   -5    6     -0.97      0.00
    1   -5    7      0.47      0.00
    1   -5    8      1.89      0.00
    1   -5    9      1.95      0.00
    1   -5   10      0.33      0.00
    1   -5   11     -2.25      0.00
    1   -5   12     -3.63      0.00
    1   -5   13     -2.68      0.00
   -1    4   12     -1.23      0.00
   -1    4   11      2.03      0.00
   -1    4   10      4.66      0.00
   -1    4    9      2.75      0.00
   -1    4    8     -2.96      0.00
   -1    4    7     -7.84      0.00
   -1    4    6     -6.98      0.00
   -1    4    5      0.82      0.00
   -1    4    4     11.72      0.00
   -1    4    3     19.73      0.00
   -1    4    2     19.47      0.00
   -1    4    1      8.48      0.00
   -1    4    0     -8.16      0.00
    1   -4    1    -19.69      0.00
    1   -4    2    -20.20      0.00
    1   -4    3    -12.81      0.00
    1   -4    4     -4.31      0.00
    1   -4    5     -0.34      0.00
    1   -4    6     -2.27      0.00
    1   -4    7     -6.13      0.00
    1   -4    8     -7.61      0.00
    1   -4    9     -6.15      0.00
    1   -4   10     -2.73      0.00
    1   -4   11      1.47      0.00
    1   -4   12      3.98      0.00
    1   -4   13      3.41      0.00
   -1    3   12     -0.12      0.00
   -1    3   11     -2.34      0.00
   -1    3   10     -1.51      0.00
   -1    3    9      4.30      0.00
   -1    3    8     11.86      0.00
   -1    3    7     15.19      0.00
   -1    3    6      9.94      0.00
   -1    3    5     -2.64      0.00
   -1    3    4    -16.44      0.00
   -1    3    3    -24.62      0.00
   -1    3    2    -21.59      0.00
   -1    3    1     -7.08      0.00
   -1    3    0      8.98      0.00
    1   -3    1     14.66      0.00
    1   -3    2      9.12      0.00
    1   -3    3      0.08      0.00
    1   -3    4     -5.86      0.00
    1   -3    5     -5.02      0.00
    1   -3    6      1.95      0.00
    1   -3    7      8.99      0.00
    1   -3    8     11.19      0.00
    1   -3    9      9.16      0.00
    1   -3   10      4.94      0.00
    1   -3   11      0.24      0.00
    1   -3   12     -2.40      0.00
    1   -3   13     -2.13      0.00
   -1    2   13      1.66      0.00
   -1    2   12      3.66      0.00
   -1    2   11      4.02      0.00
   -1    2   10     -0.39      0.00
   -1    2    9     -8.80      0.00
   -1    2    8    -16.62      0.00
   -1    2    7    -18.33      0.00
   -1    2    6    -11.11      0.00
   -1    2    5      2.08      0.00
   -1    2    4     14.06      0.00
   -1    2    3     17.36      0.00
   -1    2    2      7.47      0.00
   -1    2    1     -9.94      0.00
   -1    2    0    -18.81      0.00
    1   -2    1    -10.53      0.00
    1   -2    2      5.49      0.00
    1   -2    3     16.45      0.00
    1   -2    4     18.38      0.00
    1   -2    5     11.94      0.00
    1   -2    6      0.68      0.00
    1   -2    7     -8.16      0.00
    1   -2    8    -10.54      0.00
    1   -2    9     -8.43      0.00
    1   -2   10     -4.55      0.00
    1   -2   11     -1.00      0.00
    1   -2   12      0.26      0.00
    1   -2   13     -0.19      0.00
   -1    1   14     -1.73      0.00
   -1    1   13     -4.33      0.00
   -1    1   12     -6.68      0.00
   -1    1   11     -5.38      0.00
   -1    1   10      0.69      0.00
   -1    1    9      8.77      0.00
   -1    1    8     14.56      0.00
   -1    1    7     14.14      0.00
   -1    1    6      6.56      0.00
   -1    1    5     -3.62      0.00
   -1    1    4     -8.40      0.00
   -1    1    3     -0.45      0.00
   -1    1    2     20.41      0.00
    1   -1    1     11.42      0.00
    1   -1    2    -14.34      0.00
    1   -1    3    -25.69      0.00
    1   -1    4    -23.56      0.00
    1   -1    5    -13.42      0.00
    1   -1    6     -1.27      0.00
    1   -1    7      6.04      0.00
    1   -1    8      6.62      0.00
    1   -1    9      3.79      0.00
    1   -1   10      0.62      0.00
    1   -1   11     -0.83      0.00
    1   -1   12      0.16      0.00
    1   -1   13      1.35      0.00
   -1    0   14      1.33      0.00
   -1    0   13      4.43      0.00
   -1    0   12      6.52      0.00
   -1    0   11      4.64      0.00
   -1    0   10     -0.55      0.00
   -1    0    9     -5.66      0.00
   -1    0    8     -7.33      0.00
   -1    0    7     -3.45      0.00
   -1    0    6      4.42      0.00
   -1    0    5      9.87      0.00
   -1    0    4      5.01      0.00
   -1    0    3    -14.82      0.00
   -1    0    2    -43.48      0.00
    1    0    1    -12.72      0.00
    1    0    2     13.81      0.00
    1    0    3     21.54      0.00
    1    0    4     16.23      0.00
    1    0    5      5.73      0.00
    1    0    6     -3.37      0.00
    1    0    7     -5.86      0.00
    1    0    8     -2.56      0.00
    1    0    9      1.96      0.00
    1    0   10      4.58      0.00
    1    0   11      3.91      0.00
    1    0   12      1.01      0.00
    1    0   13     -0.88      0.00
   -1   -1   14      0.27      0.00
   -1   -1   13     -1.92      0.00
   -1   -1   12     -3.02      0.00
   -1   -1   11     -1.32      0.00
   -1   -1   10      1.70      0.00
   -1   -1    9      3.00      0.00
   -1   -1    8      0.01      0.00
   -1   -1    7     -7.68      0.00
   -1   -1    6    -15.82      0.00
   -1   -1    5    -16.99      0.00
   -1   -1    4     -5.75      0.00
   -1   -1    3     18.03      0.00
   -1   -1    2     44.28      0.00
   -1   -1    1     53.28      0.00
    1    1    0     35.51      0.00
    1    1    1      6.99      0.00
    1    1    2     -9.70      0.00
    1    1    3     -9.94      0.00
    1    1    4     -1.86      0.00
    1    1    5      7.22      0.00
    1    1    6     11.47      0.00
    1    1    7      8.09      0.00
    1    1    8      0.65      0.00
    1    1    9     -5.34      0.00
    1    1   10     -7.19      0.00
    1    1   11     -5.04      0.00
    1    1   12     -1.57      0.00
   -1   -2   14     -1.15      0.00
   -1   -2   13     -0.90      0.00
   -1   -2   12     -1.59      0.00
   -1   -2   11     -3.39      0.00
   -1   -2   10     -4.77      0.00
   -1   -2    9     -3.45      0.00
   -1   -2    8      2.50      0.00
   -1   -2    7     12.09      0.00
   -1   -2    6     19.42      0.00
   -1   -2    5     18.01      0.00
   -1   -2    4      6.26      0.00
   -1   -2    3    -12.13      0.00
   -1   -2    2    -27.44      0.00
   -1   -2    1    -27.17      0.00
    1    2    0    -10.72      0.00
    1    2    1      5.93      0.00
    1    2    2      9.22      0.00
    1    2    3      1.19      0.00
    1    2    4     -9.81      0.00
    1    2    5    -17.57      0.00
    1    2    6    -17.61      0.00
    1    2    7    -10.00      0.00
    1    2    8     -0.61      0.00
    1    2    9      5.08      0.00
    1    2   10      5.71      0.00
    1    2   11      3.16      0.00
    1    2   12      0.71      0.00
   -1   -3   14      0.31      0.00
   -1   -3   13      1.91      0.00
   -1   -3   12      4.44      0.00
   -1   -3   11      6.87      0.00
   -1   -3   10      7.88      0.00
   -1   -3    9      5.92      0.00
   -1   -3    8     -0.24      0.00
   -1   -3    7     -8.65      0.00
   -1   -3    6    -13.45      0.00
   -1   -3    5    -10.42      0.00
   -1   -3    4     -1.23      0.00
   -1   -3    3      8.47      0.00
   -1   -3    2     11.46      0.00
   -1   -3    1      3.00      0.00
    1    3    0    -11.31      0.00
    1    3    1    -18.28      0.00
    1    3    2    -12.11      0.00
    1    3    3      1.35      0.00
    1    3    4     13.92      0.00
    1    3    5     20.05      0.00
    1    3    6     17.25      0.00
    1    3    7      8.52      0.00
    1    3    8      0.44      0.00
    1    3    9     -2.95      0.00
    1    3   10     -2.17      0.00
    1    3   11     -0.24      0.00
   -1   -4   14      1.11      0.00
   -1   -4   13     -1.02      0.00
   -1   -4   12     -4.21      0.00
   -1   -4   11     -7.02      0.00
   -1   -4   10     -8.25      0.00
   -1   -4    9     -6.80      0.00
   -1   -4    8     -2.40      0.00
   -1   -4    7      2.51      0.00
   -1   -4    6      3.42      0.00
   -1   -4    5     -1.38      0.00
   -1   -4    4     -8.17      0.00
   -1   -4    3    -10.91      0.00
   -1   -4    2     -5.21      0.00
   -1   -4    1      8.04      0.00
    1    4    0     20.42      0.00
    1    4    1     22.27      0.00
    1    4    2     12.62      0.00
    1    4    3     -1.25      0.00
    1    4    4    -11.76      0.00
    1    4    5    -14.74      0.00
    1    4    6    -10.31      0.00
    1    4    7     -3.06      0.00
    1    4    8      1.56      0.00
    1    4    9      1.70      0.00
    1    4   10     -0.46      0.00
    1    4   11     -1.59      0.00
   -1   -5   14     -1.54      0.00
   -1   -5   13     -0.29      0.00
   -1   -5   12      2.03      0.00
   -1   -5   11      4.32      0.00
   -1   -5   10      5.35      0.00
   -1   -5    9      4.37      0.00
   -1   -5    8      2.18      0.00
   -1   -5    7      1.27      0.00
   -1   -5    6      4.18      0.00
   -1   -5    5     10.37      0.00
   -1   -5    4     15.25      0.00
   -1   -5    3     13.77      0.00
   -1   -5    2      4.57      0.00
   -1   -5    1     -8.32      0.00
    1    5    0    -17.12      0.00
    1    5    1    -16.22      0.00
    1    5    2     -7.44      0.00
    1    5    3      2.34      0.00
    1    5    4      7.49      0.00
    1    5    5      6.45      0.00
    1    5    6      1.35      0.00
    1    5    7     -3.53      0.00
    1    5    8     -4.71      0.00
    1    5    9     -2.09      0.00
    1    5   10      1.12      0.00
   -1   -6   13      0.81      0.00
   -1   -6   12     -0.08      0.00
   -1   -6   11     -1.22      0.00
   -1   -6   10     -1.33      0.00
   -1   -6    9     -0.12      0.00
   -1   -6    8      0.68      0.00
   -1   -6    7     -1.07      0.00
   -1   -6    6     -6.04      0.00
   -1   -6    5    -12.23      0.00
   -1   -6    4    -15.36      0.00
   -1   -6    3    -12.43      0.00
   -1   -6    2     -4.62      0.00
   -1   -6    1      3.68      0.00
    1    6    0      7.59      0.00
    1    6    1      5.00      0.00
    1    6    2     -1.16      0.00
    1    6    3     -5.44      0.00
    1    6    4     -4.91      0.00
    1    6    5     -0.75      0.00
    1    6    6      4.14      0.00
    1    6    7      6.95      0.00
    1    6    8      5.99      0.00
    1    6    9      2.24      0.00
    1    6   10     -0.84      0.00
   -1   -7   12     -0.41      0.00
   -1   -7   11     -0.18      0.00
   -1   -7   10     -1.20      0.00
   -1   -7    9     -3.26      0.00
   -1   -7    8     -4.03      0.00
   -1   -7    7     -1.84      0.00
   -1   -7    6      2.91      0.00
   -1   -7    5      7.81      0.00
   -1   -7    4      9.68      0.00
   -1   -7    3      7.57      0.00
   -1   -7    2      3.57      0.00
   -1   -7    1      0.46      0.00
    1    7    0      0.43      0.00
    1    7    1      3.97      0.00
    1    7    2      8.02      0.00
    1    7    3      8.27      0.00
    1    7    4      4.25      0.00
    1    7    5     -0.89      0.00
    1    7    6     -4.44      0.00
    1    7    7     -5.40      0.00
    1    7    8     -3.66      0.00
    1    7    9     -0.77      0.00
   -1   -8   12     -0.36      0.00
   -1   -8   11     -0.54      0.00
   -1   -8   10      1.02      0.00
   -1   -8    9      3.78      0.00
   -1   -8    8      5.25      0.00
   -1   -8    7      4.10      0.00
   -1   -8    6      0.99      0.00
   -1   -8    5     -1.94      0.00
   -1   -8    4     -2.72      0.00
   -1   -8    3     -1.73      0.00
   -1   -8    2     -0.71      0.00
   -1   -8    1     -0.67      0.00
    1    8    0     -2.60      0.00
    1    8    1     -6.64      0.00
    1    8    2     -9.52      0.00
    1    8    3     -7.80      0.00
    1    8    4     -3.06      0.00
    1    8    5      0.68      0.00
    1    8    6      1.96      0.00
    1    8    7      1.45      0.00
    1    8    8      0.03      0.00
   -1   -9   11      2.07      0.00
   -1   -9   10      1.01      0.00
   -1   -9    9     -1.42      0.00
   -1   -9    8     -3.13      0.00
   -1   -9    7     -3.07      0.00
   -1   -9    6     -1.73      0.00
   -1   -9    5     -0.82      0.00
   -1   -9    4     -1.40      0.00
   -1   -9    3     -2.33      0.00
   -1   -9    2     -2.39      0.00
   -1   -9    1     -1.54      0.00
    1    9    0      0.86      0.00
    1    9    1      4.58      0.00
    1    9    2      6.27      0.00
    1    9    3      4.03      0.00
    1    9    4      0.84      0.00
    1    9    5     -0.23      0.00
    1    9    6      0.31      0.00
    1    9    7      1.10      0.00
    1    9    8      1.58      0.00
   -1  -10   11     -2.47      0.00
   -1  -10   10     -2.44      0.00
   -1  -10    9     -1.30      0.00
   -1  -10    8     -0.19      0.00
   -1  -10    7      0.04      0.00
   -1  -10    6     -0.45      0.00
   -1  -10    5     -0.21      0.00
   -1  -10    4      1.33      0.00
   -1  -10    3      2.73      0.00
   -1  -10    2      3.08      0.00
   -1  -10    1      2.62      0.00
    1   10    0      0.85      0.00
    1   10    1     -1.54      0.00
    1   10    2     -1.90      0.00
    1   10    3     -0.21      0.00
    1   10    4      0.54      0.00
    1   10    5     -0.36      0.00
    1   10    6     -1.12      0.00
    1   10    7     -1.18      0.00
    1   10    8     -0.96      0.00
   -1  -11   10      1.80      0.00
   -1  -11    9      1.81      0.00
   -1  -11    8      1.52      0.00
   -1  -11    7      1.71      0.00
   -1  -11    6      2.49      0.00
   -1  -11    5      2.41      0.00
   -1  -11    4      0.95      0.00
   -1  -11    3     -0.54      0.00
   -1  -11    2     -1.43      0.00
   -1  -11    1     -1.81      0.00
    1   11    0     -1.15      0.00
    1   11    1     -0.20      0.00
    1   11    2     -0.56      0.00
    1   11    3     -1.26      0.00
    1   11    4     -0.51      0.00
    1   11    5      0.64      0.00
    1   11    6      0.73      0.00
   -1  -12    8     -0.69      0.00
   -1  -12    7     -1.38      0.00
   -1  -12    6     -2.68      0.00
   -1  -12    5     -3.14      0.00
   -1  -12    4     -2.36      0.00
   -1  -12    3     -1.41      0.00
   -1  -12    2     -0.49      0.00
   -1  -12    1      0.35      0.00
    1   12    0      0.46      0.00
    1   12    1      0.33      0.00
    1   12    2      0.79      0.00
    1   12    3      0.91      0.00
   -1  -13    7      0.44      0.00
   -1  -13    6      1.49      0.00
   -1  -13    5      1.92      0.00
   -1  -13    4      1.82      0.00
   -1  -13    3      1.85      0.00
   -1  -13    2      1.59      0.00
   -1  -13    1      0.84      0.00
    1   13    0      0.36      0.00
    1   13    1      0.11      0.00
    1   13    2     -0.21      0.00
   -1  -14    3     -1.34      0.00
   -1  -14    2     -1.63      0.00
    2  -14    1     -1.24      0.00
    2  -14    5     -1.81      0.00
    2  -14    6     -2.00      0.00
   -2   13    4      0.04      0.00
   -2   13    3     -0.80      0.00
   -2   13    2     -0.74      0.00
   -2   13    1      0.31      0.00
   -2   13    0      0.70      0.00
    2  -13    1     -0.02      0.00
    2  -13    2     -0.61      0.00
    2  -13    3     -0.07      0.00
    2  -13    4      1.63      0.00
    2  -13    5      3.33      0.00
    2  -13    6      3.40      0.00
    2  -13    7      1.86      0.00
   -2   12    8     -0.48      0.00
   -2   12    7     -0.51      0.00
   -2   12    6     -1.19      0.00
   -2   12    5     -1.76      0.00
   -2   12    4     -0.85      0.00
   -2   12    3      0.90      0.00
   -2   12    2      1.54      0.00
   -2   12    1      1.21      0.00
   -2   12    0      1.59      0.00
    2  -12    1      2.81      0.00
    2  -12    2      3.45      0.00
    2  -12    3      2.35      0.00
    2  -12    4     -0.35      0.00
    2  -12    5     -2.75      0.00
    2  -12    6     -2.96      0.00
    2  -12    7     -1.64      0.00
    2  -12    8     -0.62      0.00
   -2   11    9      0.68      0.00
   -2   11    8      1.27      0.00
   -2   11    7      2.16      0.00
   -2   11    6      3.35      0.00
   -2   11    5      3.69      0.00
   -2   11    4      2.27      0.00
   -2   11    3      0.27      0.00
   -2   11    2     -0.78      0.00
   -2   11    1     -1.28      0.00
   -2   11    0     -2.32      0.00
    2  -11    1     -3.85      0.00
    2  -11    2     -4.92      0.00
    2  -11    3     -4.36      0.00
    2  -11    4     -2.01      0.00
    2  -11    5      0.17      0.00
    2  -11    6      0.52      0.00
    2  -11    7     -0.03      0.00
    2  -11    8     -0.18      0.00
   -2   10    9     -0.73      0.00
   -2   10    8     -2.12      0.00
   -2   10    7     -3.40      0.00
   -2   10    6     -4.06      0.00
   -2   10    5     -3.68      0.00
   -2   10    4     -2.65      0.00
   -2   10    3     -1.92      0.00
   -2   10    2     -1.67      0.00
   -2   10    1     -1.24      0.00
   -2   10    0     -0.31      0.00
    2  -10    1      1.26      0.00
    2  -10    2      3.10      0.00
    2  -10    3      3.77      0.00
    2  -10    4      2.74      0.00
    2  -10    5      1.72      0.00
    2  -10    6      1.96      0.00
    2  -10    7      2.42      0.00
    2  -10    8      2.37      0.00
    2  -10    9      2.18      0.00
   -2    9   10     -0.58      0.00
   -2    9    9      0.66      0.00
   -2    9    8      2.10      0.00
   -2    9    7      2.54      0.00
   -2    9    6      1.64      0.00
   -2    9    5      0.46      0.00
   -2    9    4      0.59      0.00
   -2    9    3      2.14      0.00
   -2    9    2      3.72      0.00
   -2    9    1      4.53      0.00
   -2    9    0      4.45      0.00
    2   -9    1      3.10      0.00
    2   -9    2      0.99      0.00
    2   -9    3     -0.11      0.00
    2   -9    4      0.07      0.00
    2   -9    5     -0.33      0.00
    2   -9    6     -1.98      0.00
    2   -9    7     -3.57      0.00
    2   -9    8     -4.45      0.00
    2   -9    9     -4.56      0.00
    2   -9   10     -3.32      0.00
   -2    8   10      0.27      0.00
   -2    8    9     -0.92      0.00
   -2    8    8     -1.37      0.00
   -2    8    7      0.08      0.00
   -2    8    6      3.09      0.00
   -2    8    5      5.13      0.00
   -2    8    4      3.89      0.00
   -2    8    3      0.28      0.00
   -2    8    2     -3.24      0.00
   -2    8    1     -5.42      0.00
   -2    8    0     -5.91      0.00
    2   -8    1     -4.76      0.00
    2   -8    2     -3.51      0.00
    2   -8    3     -3.85      0.00
    2   -8    4     -4.81      0.00
    2   -8    5     -4.04      0.00
    2   -8    6     -1.35      0.00
    2   -8    7      1.68      0.00
    2   -8    8      4.02      0.00
    2   -8    9      4.88      0.00
    2   -8   10      3.64      0.00
   -2    7   11      0.38      0.00
   -2    7   10      1.99      0.00
   -2    7    9      2.75      0.00
   -2    7    8      1.43      0.00
   -2    7    7     -2.50      0.00
   -2    7    6     -7.53      0.00
   -2    7    5     -9.95      0.00
   -2    7    4     -7.70      0.00
   -2    7    3     -2.94      0.00
   -2    7    2      1.01      0.00
   -2    7    1      2.46      0.00
   -2    7    0      1.46      0.00
    2   -7    1     -0.09      0.00
    2   -7    2      0.64      0.00
    2   -7    3      4.11      0.00
    2   -7    4      7.47      0.00
    2   -7    5      7.97      0.00
    2   -7    6      5.64      0.00
    2   -7    7      2.16      0.00
    2   -7    8     -1.02      0.00
    2   -7    9     -2.52      0.00
    2   -7   10     -1.81      0.00
    2   -7   11     -0.45      0.00
   -2    6   11     -3.38      0.00
   -2    6   10     -5.86      0.00
   -2    6    9     -5.66      0.00
   -2    6    8     -2.21      0.00
   -2    6    7      3.55      0.00
   -2    6    6      8.62      0.00
   -2    6    5      9.31      0.00
   -2    6    4      5.51      0.00
   -2    6    3      1.09      0.00
   -2    6    2     -0.19      0.00
   -2    6    1      2.86      0.00
   -2    6    0      8.03      0.00
    2   -6    1     10.53      0.00
    2   -6    2      7.22      0.00
    2   -6    3      0.19      0.00
    2   -6    4     -5.81      0.00
    2   -6    5     -7.98      0.00
    2   -6    6     -6.74      0.00
    2   -6    7     -3.98      0.00
    2   -6    8     -1.39      0.00
    2   -6    9     -0.32      0.00
    2   -6   10     -0.96      0.00
    2   -6   11     -1.65      0.00
   -2    5   12      1.78      0.00
   -2    5   11      5.82      0.00
   -2    5   10      7.92      0.00
   -2    5    9      5.93      0.00
   -2    5    8      1.07      0.00
   -2    5    7     -3.76      0.00
   -2    5    6     -5.06      0.00
   -2    5    5     -1.30      0.00
   -2    5    4      4.40      0.00
   -2    5    3      6.93      0.00
   -2    5    2      2.98      0.00
   -2    5    1     -6.96      0.00
   -2    5    0    -17.29      0.00
    2   -5    1    -20.49      0.00
    2   -5    2    -14.69      0.00
    2   -5    3     -5.18      0.00
    2   -5    4      1.83      0.00
    2   -5    5      3.96      0.00
    2   -5    6      2.71      0.00
    2   -5    7      0.91      0.00
    2   -5    8      0.26      0.00
    2   -5    9      1.12      0.00
    2   -5   10      2.97      0.00
    2   -5   11      3.88      0.00
    2   -5   12      2.46      0.00
   -2    4   12     -1.90      0.00
   -2    4   11     -5.25      0.00
   -2    4   10     -4.99      0.00
   -2    4    9     -0.85      0.00
   -2    4    8      3.65      0.00
   -2    4    7      4.51      0.00
   -2    4    6     -0.55      0.00
   -2    4    5     -9.62      0.00
   -2    4    4    -16.98      0.00
   -2    4    3    -17.35      0.00
   -2    4    2     -8.38      0.00
   -2    4    1      7.24      0.00
   -2    4    0     20.44      0.00
    2   -4    1     22.70      0.00
    2   -4    2     14.97      0.00
    2   -4    3      5.22      0.00
    2   -4    4      0.03      0.00
    2   -4    5      0.80      0.00
    2   -4    6      4.19      0.00
    2   -4    7      5.75      0.00
    2   -4    8      4.21      0.00
    2   -4    9      0.79      0.00
    2   -4   10     -2.95      0.00
    2   -4   11     -4.63      0.00
    2   -4   12     -2.98      0.00
    2   -4   13     -0.30      0.00
   -2    3   13     -0.48      0.00
   -2    3   12      1.69      0.00
   -2    3   11      2.18      0.00
   -2    3   10     -1.59      0.00
   -2    3    9     -7.29      0.00
   -2    3    8    -10.21      0.00
   -2    3    7     -6.71      0.00
   -2    3    6      3.65      0.00
   -2    3    5     16.37      0.00
   -2    3    4     24.48      0.00
   -2    3    3     22.93      0.00
   -2    3    2     10.82      0.00
   -2    3    1     -5.93      0.00
   -2    3    0    -16.05      0.00
    2   -3    1    -13.75      0.00
    2   -3    2     -4.48      0.00
    2   -3    3      2.78      0.00
    2   -3    4      3.18      0.00
    2   -3    5     -2.72      0.00
    2   -3    6     -9.51      0.00
    2   -3    7    -11.67      0.00
    2   -3    8     -8.92      0.00
    2   -3    9     -3.92      0.00
    2   -3   10      0.92      0.00
    2   -3   11      2.95      0.00
    2   -3   12      1.50      0.00
    2   -3   13     -0.38      0.00
   -2    2   13     -1.82      0.00
   -2    2   12     -2.30      0.00
   -2    2   11      0.78      0.00
   -2    2   10      7.30      0.00
   -2    2    9     13.37      0.00
   -2    2    8     14.87      0.00
   -2    2    7      9.20      0.00
   -2    2    6     -2.94      0.00
   -2    2    5    -15.68      0.00
   -2    2    4    -21.41      0.00
   -2    2    3    -16.05      0.00
   -2    2    2     -2.30      0.00
   -2    2    1      9.38      0.00
   -2    2    0      8.78      0.00
    2   -2    1     -2.26      0.00
    2   -2    2    -12.81      0.00
    2   -2    3    -15.55      0.00
    2   -2    4     -9.78      0.00
    2   -2    5      1.13      0.00
    2   -2    6     10.40      0.00
    2   -2    7     12.96      0.00
    2   -2    8     10.07      0.00
    2   -2    9      5.20      0.00
    2   -2   10      0.95      0.00
    2   -2   11     -0.29      0.00
    2   -2   12      1.00      0.00
   -2    1   14      3.10      0.00
   -2    1   13      4.70      0.00
   -2    1   12      3.57      0.00
   -2    1   11     -1.75      0.00
   -2    1   10     -8.83      0.00
   -2    1    9    -13.77      0.00
   -2    1    8    -14.00      0.00
   -2    1    7     -8.14      0.00
   -2    1    6      2.02      0.00
   -2    1    5      9.78      0.00
   -2    1    4      8.03      0.00
   -2    1    3     -4.09      0.00
   -2    1    2    -17.97      0.00
   -2    1    1    -19.84      0.00
   -2    1    0     -5.00      0.00
    2   -1    1     14.94      0.00
    2   -1    2     25.70      0.00
    2   -1    3     23.98      0.00
    2   -1    4     13.74      0.00
    2   -1    5      0.77      0.00
    2   -1    6     -7.93      0.00
    2   -1    7     -9.20      0.00
    2   -1    8     -6.11      0.00
    2   -1    9     -2.32      0.00
    2   -1   10     -0.03      0.00
    2   -1   11     -0.62      0.00
    2   -1   12     -2.27      0.00
    2   -1   13     -1.91      0.00
   -2    0   15     -1.67      0.00
   -2    0   14     -4.19      0.00
   -2    0   13     -6.00      0.00
   -2    0   12     -4.26      0.00
   -2    0   11      0.94      0.00
   -2    0   10      6.13      0.00
   -2    0    9      8.26      0.00
   -2    0    8      6.36      0.00
   -2    0    7      0.80      0.00
   -2    0    6     -4.91      0.00
   -2    0    5     -4.13      0.00
   -2    0    4      7.34      0.00
   -2    0    3     25.41      0.00
   -2    0    2     37.02      0.00
   -2    0    1     29.49      0.00
    2    0    0      5.66      0.00
    2    0    1    -16.92      0.00
    2    0    2    -25.43      0.00
    2    0    3    -20.91      0.00
    2    0    4     -9.75      0.00
    2    0    5      1.27      0.00
    2    0    6      5.93      0.00
    2    0    7      3.77      0.00
    2    0    8     -0.43      0.00
    2    0    9     -3.17      0.00
    2    0   10     -3.18      0.00
    2    0   11     -0.62      0.00
    2    0   12      1.58      0.00
   -2   -1   15      0.83      0.00
   -2   -1   14      3.10      0.00
   -2   -1   13      4.49      0.00
   -2   -1   12      3.03      0.00
   -2   -1   11     -0.29      0.00
   -2   -1   10     -2.22      0.00
   -2   -1    9     -0.65      0.00
   -2   -1    8      4.15      0.00
   -2   -1    7      9.68      0.00
   -2   -1    6     10.92      0.00
   -2   -1    5      2.92      0.00
   -2   -1    4    -14.16      0.00
   -2   -1    3    -32.57      0.00
   -2   -1    2    -39.55      0.00
   -2   -1    1    -27.63      0.00
    2    1    0     -4.97      0.00
    2    1    1     11.77      0.00
    2    1    2     14.96      0.00
    2    1    3      8.45      0.00
    2    1    4     -1.30      0.00
    2    1    5     -7.83      0.00
    2    1    6     -6.72      0.00
    2    1    7     -0.42      0.00
    2    1    8      5.10      0.00
    2    1    9      7.00      0.00
    2    1   10      5.31      0.00
    2    1   11      1.78      0.00
   -2   -2   14     -0.73      0.00
   -2   -2   13     -0.78      0.00
   -2   -2   12      0.51      0.00
   -2   -2   11      1.85      0.00
   -2   -2   10      0.94      0.00
   -2   -2    9     -3.55      0.00
   -2   -2    8    -10.54      0.00
   -2   -2    7    -16.05      0.00
   -2   -2    6    -14.81      0.00
   -2   -2    5     -4.51      0.00
   -2   -2    4     11.25      0.00
   -2   -2    3     24.03      0.00
   -2   -2    2     25.04      0.00
   -2   -2    1     13.01      0.00
    2    2    0     -2.00      0.00
    2    2    1     -8.33      0.00
    2    2    2     -4.21      0.00
    2    2    3      4.82      0.00
    2    2    4     12.81      0.00
    2    2    5     14.56      0.00
    2    2    6      8.60      0.00
    2    2    7     -0.15      0.00
    2    2    8     -5.85      0.00
    2    2    9     -6.86      0.00
    2    2   10     -4.48      0.00
    2    2   11     -1.38      0.00
   -2   -3   14     -1.05      0.00
   -2   -3   13     -2.78      0.00
   -2   -3   12     -4.50      0.00
   -2   -3   11     -5.01      0.00
   -2   -3   10     -2.93      0.00
   -2   -3    9      2.46      0.00
   -2   -3    8      9.60      0.00
   -2   -3    7     14.21      0.00
   -2   -3    6     12.07      0.00
   -2   -3    5      3.23      0.00
   -2   -3    4     -6.96      0.00
   -2   -3    3    -11.36      0.00
   -2   -3    2     -6.09      0.00
   -2   -3    1      5.10      0.00
    2    3    0     12.37      0.00
    2    3    1      9.38      0.00
    2    3    2     -1.08      0.00
    2    3    3    -12.09      0.00
    2    3    4    -18.15      0.00
    2    3    5    -16.30      0.00
    2    3    6     -8.28      0.00
    2    3    7      0.01      0.00
    2    3    8      4.18      0.00
    2    3    9      4.09      0.00
    2    3   10      1.90      0.00
   -2   -4   15     -0.59      0.00
   -2   -4   14      1.08      0.00
   -2   -4   13      3.76      0.00
   -2   -4   12      5.97      0.00
   -2   -4   11      6.70      0.00
   -2   -4   10      5.01      0.00
   -2   -4    9      0.71      0.00
   -2   -4    8     -4.29      0.00
   -2   -4    7     -6.42      0.00
   -2   -4    6     -3.37      0.00
   -2   -4    5      2.97      0.00
   -2   -4    4      6.93      0.00
   -2   -4    3      3.67      0.00
   -2   -4    2     -6.33      0.00
   -2   -4    1    -16.44      0.00
    2    4    0    -18.61      0.00
    2    4    1    -10.71      0.00
    2    4    2      1.91      0.00
    2    4    3     12.06      0.00
    2    4    4     15.45      0.00
    2    4    5     11.72      0.00
    2    4    6      4.49      0.00
    2    4    7     -1.09      0.00
    2    4    8     -2.56      0.00
    2    4    9     -1.12      0.00
    2    4   10      0.51      0.00
   -2   -5   14      0.04      0.00
   -2   -5   13     -2.07      0.00
   -2   -5   12     -4.11      0.00
   -2   -5   11     -5.22      0.00
   -2   -5   10     -4.50      0.00
   -2   -5    9     -2.26      0.00
   -2   -5    8     -0.63      0.00
   -2   -5    7     -1.79      0.00
   -2   -5    6     -5.92      0.00
   -2   -5    5     -9.94      0.00
   -2   -5    4     -9.13      0.00
   -2   -5    3     -1.56      0.00
   -2   -5    2      9.33      0.00
   -2   -5    1     17.00      0.00
    2    5    0     16.53      0.00
    2    5    1      8.48      0.00
    2    5    2     -1.61      0.00
    2    5    3     -7.95      0.00
    2    5    4     -8.27      0.00
    2    5    5     -4.06      0.00
    2    5    6      0.97      0.00
    2    5    7      3.25      0.00
    2    5    8      1.95      0.00
    2    5    9     -0.65      0.00
   -2   -6   13     -0.10      0.00
   -2   -6   12      1.17      0.00
   -2   -6   11      2.13      0.00
   -2   -6   10      1.80      0.00
   -2   -6    9      1.14      0.00
   -2   -6    8      2.24      0.00
   -2   -6    7      5.78      0.00
   -2   -6    6     10.38      0.00
   -2   -6    5     12.78      0.00
   -2   -6    4      9.98      0.00
   -2   -6    3      2.52      0.00
   -2   -6    2     -5.50      0.00
   -2   -6    1     -9.81      0.00
    2    6    0     -8.40      0.00
    2    6    1     -2.71      0.00
    2    6    2      2.85      0.00
    2    6    3      4.47      0.00
    2    6    4      2.02      0.00
    2    6    5     -1.99      0.00
    2    6    6     -4.76      0.00
    2    6    7     -4.47      0.00
    2    6    8     -1.59      0.00
    2    6    9      1.07      0.00
   -2   -7   13      0.87      0.00
   -2   -7   12      0.32      0.00
   -2   -7   11      0.21      0.00
   -2   -7   10      1.29      0.00
   -2   -7    9      1.77      0.00
   -2   -7    8     -0.25      0.00
   -2   -7    7     -4.39      0.00
   -2   -7    6     -8.64      0.00
   -2   -7    5    -10.38      0.00
   -2   -7    4     -8.14      0.00
   -2   -7    3     -3.52      0.00
   -2   -7    2      0.42      0.00
   -2   -7    1      1.76      0.00
    2    7    0     -0.12      0.00
    2    7    1     -3.79      0.00
    2    7    2     -5.56      0.00
    2    7    3     -3.41      0.00
    2    7    4      0.70      0.00
    2    7    5      3.84      0.00
    2    7    6      4.66      0.00
    2    7    7      3.11      0.00
    2    7    8      0.55      0.00
   -2   -8   12      0.02      0.00
   -2   -8   11     -0.82      0.00
   -2   -8   10     -3.01      0.00
   -2   -8    9     -4.09      0.00
   -2   -8    8     -2.55      0.00
   -2   -8    7      0.67      0.00
   -2   -8    6      3.81      0.00
   -2   -8    5      5.06      0.00
   -2   -8    4      3.89      0.00
   -2   -8    3      2.02      0.00
   -2   -8    2      1.19      0.00
   -2   -8    1      2.01      0.00
    2    8    0      4.60      0.00
    2    8    1      7.23      0.00
    2    8    2      6.68      0.00
    2    8    3      2.84      0.00
    2    8    4     -0.86      0.00
    2    8    5     -2.21      0.00
    2    8    6     -1.68      0.00
    2    8    7     -0.29      0.00
    2    8    8      0.70      0.00
   -2   -9   12     -0.97      0.00
   -2   -9   11      0.04      0.00
   -2   -9   10      2.23      0.00
   -2   -9    9      3.32      0.00
   -2   -9    8      2.64      0.00
   -2   -9    7      1.07      0.00
   -2   -9    6     -0.37      0.00
   -2   -9    5     -0.56      0.00
   -2   -9    4      0.45      0.00
   -2   -9    3      1.06      0.00
   -2   -9    2      0.32      0.00
   -2   -9    1     -1.63      0.00
    2    9    0     -4.41      0.00
    2    9    1     -6.02      0.00
    2    9    2     -4.45      0.00
    2    9    3     -1.38      0.00
    2    9    4      0.01      0.00
    2    9    5     -0.38      0.00
    2    9    6     -1.03      0.00
    2    9    7     -1.32      0.00
    2    9    8     -0.97      0.00
   -2  -10   11      0.86      0.00
   -2  -10   10      0.02      0.00
   -2  -10    9     -0.24      0.00
   -2  -10    8     -0.11      0.00
   -2  -10    7      0.14      0.00
   -2  -10    6      0.29      0.00
   -2  -10    5     -0.50      0.00
   -2  -10    4     -1.98      0.00
   -2  -10    3     -2.57      0.00
   -2  -10    2     -1.71      0.00
   -2  -10    1      0.10      0.00
    2   10    0      2.07      0.00
    2   10    1      2.56      0.00
    2   10    2      1.14      0.00
    2   10    3      0.18      0.00
    2   10    4      0.94      0.00
    2   10    5      1.76      0.00
    2   10    6      1.53      0.00
    2   10    7      0.90      0.00
   -2  -11   10     -1.15      0.00
   -2  -11    9     -1.71      0.00
   -2  -11    8     -1.83      0.00
   -2  -11    7     -1.93      0.00
   -2  -11    6     -2.01      0.00
   -2  -11    5     -0.99      0.00
   -2  -11    4      0.83      0.00
   -2  -11    3      1.89      0.00
   -2  -11    2      1.70      0.00
   -2  -11    1      0.69      0.00
    2   11    0     -0.33      0.00
    2   11    1     -0.25      0.00
    2   11    2      0.48      0.00
    2   11    3      0.07      0.00
    2   11    4     -1.15      0.00
   -2  -12    9      1.26      0.00
   -2  -12    8      1.66      0.00
   -2  -12    7      2.32      0.00
   -2  -12    6      2.85      0.00
   -2  -12    5      2.07      0.00
   -2  -12    4      0.44      0.00
   -2  -12    3     -0.67      0.00
   -2  -12    2     -0.90      0.00
   -2  -12    1     -0.49      0.00
    2   12    0      0.01      0.00
    2   12    1     -0.16      0.00
   -2  -13    7     -1.50      0.00
   -2  -13    6     -2.03      0.00
   -2  -13    5     -1.55      0.00
   -2  -13    4     -0.71      0.00
   -2  -13    3     -0.26      0.00
   -2  -13    2     -0.07      0.00
   -2  -13    1     -0.11      0.00
    2   13    0     -0.25      0.00
    3  -14    5      1.89      0.00
    3  -14    6      1.40      0.00
   -3   13    4      0.37      0.00
   -3   13    3      0.42      0.00
   -3   13    2     -0.63      0.00
   -3   13    1     -1.39      0.00
   -3   13    0     -0.67      0.00
    3  -13    1      0.29      0.00
    3  -13    2     -0.27      0.00
    3  -13    3     -2.13      0.00
    3  -13    4     -3.79      0.00
    3  -13    5     -4.04      0.00
    3  -13    6     -2.80      0.00
   -3   12    8     -0.16      0.00
   -3   12    7      0.47      0.00
   -3   12    6      1.20      0.00
   -3   12    5      0.82      0.00
   -3   12    4     -0.63      0.00
   -3   12    3     -1.52      0.00
   -3   12    2     -1.22      0.00
   -3   12    1     -1.19      0.00
   -3   12    0     -2.23      0.00
    3  -12    1     -2.76      0.00
    3  -12    2     -1.22      0.00
    3  -12    3      1.75      0.00
    3  -12    4      4.14      0.00
    3  -12    5      4.59      0.00
    3  -12    6      3.46      0.00
    3  -12    7      2.06      0.00
   -3   11    9     -0.88      0.00
   -3   11    8     -1.80      0.00
   -3   11    7     -2.97      0.00
   -3   11    6     -3.54      0.00
   -3   11    5     -2.50      0.00
   -3   11    4     -0.34      0.00
   -3   11    3      1.36      0.00
   -3   11    2      2.12      0.00
   -3   11    1      2.91      0.00
   -3   11    0      4.12      0.00
    3  -11    1      4.61      0.00
    3  -11    2      3.25      0.00
    3  -11    3      0.53      0.00
    3  -11    4     -1.82      0.00
    3  -11    5     -2.63      0.00
    3  -11    6     -2.33      0.00
    3  -11    7     -1.78      0.00
    3  -11    8     -1.01      0.00
   -3   10   10      0.84      0.00
   -3   10    9      2.36      0.00
   -3   10    8      3.74      0.00
   -3   10    7      4.65      0.00
   -3   10    6      4.70      0.00
   -3   10    5      3.74      0.00
   -3   10    4      2.31      0.00
   -3   10    3      1.08      0.00
   -3   10    2      0.16      0.00
   -3   10    1     -0.94      0.00
   -3   10    0     -2.47      0.00
    3  -10    1     -3.78      0.00
    3  -10    2     -3.74      0.00
    3  -10    3     -2.34      0.00
    3  -10    4     -0.97      0.00
    3  -10    5     -0.58      0.00
    3  -10    6     -0.62      0.00
    3  -10    7     -0.62      0.00
    3  -10    8     -0.85      0.00
   -3    9   10     -1.26      0.00
   -3    9    9     -2.81      0.00
   -3    9    8     -3.52      0.00
   -3    9    7     -3.32      0.00
   -3    9    6     -2.77      0.00
   -3    9    5     -2.74      0.00
   -3    9    4     -3.44      0.00
   -3    9    3     -4.23      0.00
   -3    9    2     -4.49      0.00
   -3    9    1     -3.85      0.00
   -3    9    0     -2.04      0.00
    3   -9    1      0.10      0.00
    3   -9    2      1.06      0.00
    3   -9    3      0.92      0.00
    3   -9    4      1.25      0.00
    3   -9    5      2.54      0.00
    3   -9    6      3.70      0.00
    3   -9    7      4.08      0.00
    3   -9    8      3.88      0.00
    3   -9    9      2.98      0.00
   -3    8   11     -0.07      0.00
   -3    8   10      1.43      0.00
   -3    8    9      2.13      0.00
   -3    8    8      1.23      0.00
   -3    8    7     -0.82      0.00
   -3    8    6     -2.26      0.00
   -3    8    5     -1.22      0.00
   -3    8    4      1.98      0.00
   -3    8    3      5.29      0.00
   -3    8    2      7.28      0.00
   -3    8    1      7.38      0.00
   -3    8    0      5.72      0.00
    3   -8    1      3.97      0.00
    3   -8    2      3.63      0.00
    3   -8    3      3.66      0.00
    3   -8    4      2.09      0.00
    3   -8    5     -0.98      0.00
    3   -8    6     -3.89      0.00
    3   -8    7     -5.52      0.00
    3   -8    8     -5.61      0.00
    3   -8    9     -4.22      0.00
    3   -8   10     -2.14      0.00
   -3    7   11     -1.26      0.00
   -3    7   10     -2.61      0.00
   -3    7    9     -1.81      0.00
   -3    7    8      1.46      0.00
   -3    7    7      5.81      0.00
   -3    7    6      8.06      0.00
   -3    7    5      5.91      0.00
   -3    7    4      0.90      0.00
   -3    7    3     -3.57      0.00
   -3    7    2     -5.69      0.00
   -3    7    1     -5.32      0.00
   -3    7    0     -3.93      0.00
    3   -7    1     -4.08      0.00
    3   -7    2     -6.29      0.00
    3   -7    3     -7.99      0.00
    3   -7    4     -6.99      0.00
    3   -7    5     -3.71      0.00
    3   -7    6      0.18      0.00
    3   -7    7      3.16      0.00
    3   -7    8      4.19      0.00
    3   -7    9      3.27      0.00
    3   -7   10      1.69      0.00
   -3    6   12      1.85      0.00
   -3    6   11      4.56      0.00
   -3    6   10      5.16      0.00
   -3    6    9      2.24      0.00
   -3    6    8     -3.30      0.00
   -3    6    7     -8.62      0.00
   -3    6    6     -9.89      0.00
   -3    6    5     -6.13      0.00
   -3    6    4     -1.01      0.00
   -3    6    3      1.45      0.00
   -3    6    2      0.25      0.00
   -3    6    1     -3.00      0.00
   -3    6    0     -4.69      0.00
    3   -6    1     -1.85      0.00
    3   -6    2      3.98      0.00
    3   -6    3      8.48      0.00
    3   -6    4      9.43      0.00
    3   -6    5      7.38      0.00
    3   -6    6      3.85      0.00
    3   -6    7      0.70      0.00
    3   -6    8     -0.60      0.00
    3   -6    9     -0.13      0.00
    3   -6   10      0.60      0.00
   -3    5   12     -4.82      0.00
   -3    5   11     -7.48      0.00
   -3    5   10     -6.36      0.00
   -3    5    9     -1.71      0.00
   -3    5    8      3.80      0.00
   -3    5    7      6.60      0.00
   -3    5    6      4.24      0.00
   -3    5    5     -1.26      0.00
   -3    5    4     -4.44      0.00
   -3    5    3     -1.99      0.00
   -3    5    2      5.20      0.00
   -3    5    1     13.00      0.00
   -3    5    0     15.51      0.00
    3   -5    1     10.18      0.00
    3   -5    2      1.32      0.00
    3   -5    3     -5.08      0.00
    3   -5    4     -7.06      0.00
    3   -5    5     -5.78      0.00
    3   -5    6     -3.35      0.00
    3   -5    7     -1.86      0.00
    3   -5    8     -2.16      0.00
    3   -5    9     -3.37      0.00
    3   -5   10     -3.69      0.00
    3   -5   11     -2.07      0.00
   -3    4   13      2.17      0.00
   -3    4   12      5.53      0.00
   -3    4   11      6.43      0.00
   -3    4   10      3.31      0.00
   -3    4    9     -1.23      0.00
   -3    4    8     -3.53      0.00
   -3    4    7     -0.95      0.00
   -3    4    6      6.20      0.00
   -3    4    5     12.94      0.00
   -3    4    4     13.34      0.00
   -3    4    3      5.74      0.00
   -3    4    2     -6.95      0.00
   -3    4    1    -18.18      0.00
   -3    4    0    -20.65      0.00
    3   -4    1    -13.52      0.00
    3   -4    2     -3.87      0.00
    3   -4    3      1.52      0.00
    3   -4    4      1.63      0.00
    3   -4    5     -0.87      0.00
    3   -4    6     -2.51      0.00
    3   -4    7     -1.37      0.00
    3   -4    8      1.79      0.00
    3   -4    9      4.77      0.00
    3   -4   10      5.35      0.00
    3   -4   11      2.79      0.00
    3   -4   12     -0.42      0.00
   -3    3   13     -1.83      0.00
   -3    3   12     -3.19      0.00
   -3    3   11     -1.17      0.00
   -3    3   10      3.24      0.00
   -3    3    9      6.10      0.00
   -3    3    8      4.24      0.00
   -3    3    7     -3.45      0.00
   -3    3    6    -14.35      0.00
   -3    3    5    -21.68      0.00
   -3    3    4    -19.85      0.00
   -3    3    3     -9.06      0.00
   -3    3    2      5.51      0.00
   -3    3    1     15.62      0.00
   -3    3    0     15.11      0.00
    3   -3    1      6.66      0.00
    3   -3    2     -0.83      0.00
    3   -3    3     -1.82      0.00
    3   -3    4      2.69      0.00
    3   -3    5      8.08      0.00
    3   -3    6      9.80      0.00
    3   -3    7      6.77      0.00
    3   -3    8      1.47      0.00
    3   -3    9     -3.02      0.00
    3   -3   10     -4.13      0.00
    3   -3   11     -1.57      0.00
    3   -3   12      1.11      0.00
   -3    2   13      1.62      0.00
   -3    2   12     -0.05      0.00
   -3    2   11     -4.80      0.00
   -3    2   10     -9.61      0.00
   -3    2    9    -10.80      0.00
   -3    2    8     -6.48      0.00
   -3    2    7      3.60      0.00
   -3    2    6     15.59      0.00
   -3    2    5     21.81      0.00
   -3    2    4     17.61      0.00
   -3    2    3      5.86      0.00
   -3    2    2     -5.45      0.00
   -3    2    1     -8.30      0.00
   -3    2    0     -1.23      0.00
    3   -2    1      8.32      0.00
    3   -2    2     11.64      0.00
    3   -2    3      6.55      0.00
    3   -2    4     -3.11      0.00
    3   -2    5    -11.23      0.00
    3   -2    6    -13.34      0.00
    3   -2    7     -9.89      0.00
    3   -2    8     -4.37      0.00
    3   -2    9      0.12      0.00
    3   -2   10      1.17      0.00
    3   -2   11     -0.88      0.00
    3   -2   12     -2.09      0.00
   -3    1   14     -2.80      0.00
   -3    1   13     -2.27      0.00
   -3    1   12      1.79      0.00
   -3    1   11      7.84      0.00
   -3    1   10     12.03      0.00
   -3    1    9     12.09      0.00
   -3    1    8      7.37      0.00
   -3    1    7     -1.73      0.00
   -3    1    6    -10.75      0.00
   -3    1    5    -12.40      0.00
   -3    1    4     -4.51      0.00
   -3    1    3      6.39      0.00
   -3    1    2     10.40      0.00
   -3    1    1      2.59      0.00
   -3    1    0    -11.93      0.00
    3   -1    1    -22.12      0.00
    3   -1    2    -21.42      0.00
    3   -1    3    -11.59      0.00
    3   -1    4      1.00      0.00
    3   -1    5      9.52      0.00
    3   -1    6     10.84      0.00
    3   -1    7      7.49      0.00
    3   -1    8      3.25      0.00
    3   -1    9      0.41      0.00
    3   -1   10      0.59      0.00
    3   -1   11      2.59      0.00
   -3    0   15      2.85      0.00
   -3    0   14      4.43      0.00
   -3    0   13      3.23      0.00
   -3    0   12     -1.35      0.00
   -3    0   11     -6.49      0.00
   -3    0   10     -8.78      0.00
   -3    0    9     -7.49      0.00
   -3    0    8     -3.41      0.00
   -3    0    7      2.02      0.00
   -3    0    6      4.39      0.00
   -3    0    5     -1.20      0.00
   -3    0    4    -12.97      0.00
   -3    0    3    -21.60      0.00
   -3    0    2    -18.02      0.00
   -3    0    1     -2.07      0.00
    3    0    0     16.31      0.00
    3    0    1     25.69      0.00
    3    0    2     22.48      0.00
    3    0    3     11.09      0.00
    3    0    4     -0.74      0.00
    3    0    5     -6.32      0.00
    3    0    6     -4.84      0.00
    3    0    7     -0.92      0.00
    3    0    8      1.80      0.00
    3    0    9      2.26      0.00
    3    0   10      0.20      0.00
    3    0   11     -2.25      0.00
   -3   -1   15     -3.02      0.00
   -3   -1   14     -4.30      0.00
   -3   -1   13     -3.19      0.00
   -3   -1   12     -0.05      0.00
   -3   -1   11      2.38      0.00
   -3   -1   10      1.82      0.00
   -3   -1    9     -1.22      0.00
   -3   -1    8     -4.62      0.00
   -3   -1    7     -5.80      0.00
   -3   -1    6     -1.27      0.00
   -3   -1    5     10.28      0.00
   -3   -1    4     23.59      0.00
   -3   -1    3     29.07      0.00
   -3   -1    2     20.99      0.00
   -3   -1    1      3.38      0.00
    3    1    0    -12.74      0.00
    3    1    1    -18.63      0.00
    3    1    2    -13.57      0.00
    3    1    3     -3.12      0.00
    3    1    4      4.89      0.00
    3    1    5      5.27      0.00
    3    1    6     -0.01      0.00
    3    1    7     -4.98      0.00
    3    1    8     -6.67      0.00
    3    1    9     -5.24      0.00
    3    1   10     -1.83      0.00
   -3   -2   15      1.61      0.00
   -3   -2   14      1.84      0.00
   -3   -2   13      1.06      0.00
   -3   -2   12      0.11      0.00
   -3   -2   11      0.65      0.00
   -3   -2   10      3.80      0.00
   -3   -2    9      8.39      0.00
   -3   -2    8     11.57      0.00
   -3   -2    7     10.22      0.00
   -3   -2    6      2.20      0.00
   -3   -2    5    -10.85      0.00
   -3   -2    4    -22.06      0.00
   -3   -2    3    -23.71      0.00
   -3   -2    2    -14.33      0.00
   -3   -2    1     -0.55      0.00
    3    2    0      8.41      0.00
    3    2    1      8.06      0.00
    3    2    2      0.63      0.00
    3    2    3     -7.83      0.00
    3    2    4    -10.89      0.00
    3    2    5     -6.27      0.00
    3    2    6      1.68      0.00
    3    2    7      7.05      0.00
    3    2    8      8.01      0.00
    3    2    9      5.65      0.00
    3    2   10      2.08      0.00
   -3   -3   15      0.44      0.00
   -3   -3   14      1.69      0.00
   -3   -3   13      2.51      0.00
   -3   -3   12      2.01      0.00
   -3   -3   11     -0.28      0.00
   -3   -3   10     -4.67      0.00
   -3   -3    9     -9.82      0.00
   -3   -3    8    -12.82      0.00
   -3   -3    7    -10.87      0.00
   -3   -3    6     -3.18      0.00
   -3   -3    5      6.99      0.00
   -3   -3    4     12.97      0.00
   -3   -3    3     10.17      0.00
   -3   -3    2      1.06      0.00
   -3   -3    1     -6.79      0.00
    3    3    0     -7.33      0.00
    3    3    1     -0.51      0.00
    3    3    2      8.90      0.00
    3    3    3     14.98      0.00
    3    3    4     13.86      0.00
    3    3    5      6.52      0.00
    3    3    6     -1.65      0.00
    3    3    7     -6.01      0.00
    3    3    8     -6.01      0.00
    3    3    9     -3.47      0.00
   -3   -4   15     -1.48      0.00
   -3   -4   14     -3.70      0.00
   -3   -4   13     -4.78      0.00
   -3   -4   12     -4.15      0.00
   -3   -4   11     -1.89      0.00
   -3   -4   10      2.00      0.00
   -3   -4    9      6.14      0.00
   -3   -4    8      8.00      0.00
   -3   -4    7      5.96      0.00
   -3   -4    6      0.58      0.00
   -3   -4    5     -4.42      0.00
   -3   -4    4     -4.09      0.00
   -3   -4    3      2.51      0.00
   -3   -4    2     10.37      0.00
   -3   -4    1     13.01      0.00
    3    4    0      7.90      0.00
    3    4    1     -2.12      0.00
    3    4    2    -11.39      0.00
    3    4    3    -15.04      0.00
    3    4    4    -11.70      0.00
    3    4    5     -4.39      0.00
    3    4    6      1.83      0.00
    3    4    7      3.95      0.00
    3    4    8      2.66      0.00
    3    4    9      0.48      0.00
   -3   -5   14      2.84      0.00
   -3   -5   13      3.97      0.00
   -3   -5   12      4.11      0.00
   -3   -5   11      3.09      0.00
   -3   -5   10      0.90      0.00
   -3   -5    9     -0.92      0.00
   -3   -5    8     -0.68      0.00
   -3   -5    7      1.70      0.00
   -3   -5    6      4.54      0.00
   -3   -5    5      4.73      0.00
   -3   -5    4     -0.09      0.00
   -3   -5    3     -7.95      0.00
   -3   -5    2    -13.70      0.00
   -3   -5    1    -13.56      0.00
    3    5    0     -7.41      0.00
    3    5    1      1.54      0.00
    3    5    2      8.49      0.00
    3    5    3      9.93      0.00
    3    5    4      6.10      0.00
    3    5    5      0.56      0.00
    3    5    6     -2.67      0.00
    3    5    7     -2.17      0.00
    3    5    8      0.17      0.00
   -3   -6   14     -0.67      0.00
   -3   -6   13     -1.57      0.00
   -3   -6   12     -2.39      0.00
   -3   -6   11     -2.36      0.00
   -3   -6   10     -1.68      0.00
   -3   -6    9     -2.13      0.00
   -3   -6    8     -4.40      0.00
   -3   -6    7     -7.16      0.00
   -3   -6    6     -8.48      0.00
   -3   -6    5     -6.33      0.00
   -3   -6    4     -0.52      0.00
   -3   -6    3      5.93      0.00
   -3   -6    2      9.46      0.00
   -3   -6    1      8.79      0.00
    3    6    0      4.49      0.00
    3    6    1     -1.25      0.00
    3    6    2     -4.79      0.00
    3    6    3     -3.97      0.00
    3    6    4     -0.22      0.00
    3    6    5      3.09      0.00
    3    6    6      3.45      0.00
    3    6    7      1.10      0.00
    3    6    8     -1.27      0.00
   -3   -7   13      0.13      0.00
   -3   -7   12      0.68      0.00
   -3   -7   11      0.18      0.00
   -3   -7   10     -0.27      0.00
   -3   -7    9      1.34      0.00
   -3   -7    8      4.62      0.00
   -3   -7    7      7.60      0.00
   -3   -7    6      8.67      0.00
   -3   -7    5      6.73      0.00
   -3   -7    4      2.48      0.00
   -3   -7    3     -1.30      0.00
   -3   -7    2     -2.78      0.00
   -3   -7    1     -1.99      0.00
    3    7    0      0.58      0.00
    3    7    1      3.22      0.00
    3    7    2      3.23      0.00
    3    7    3      0.22      0.00
    3    7    4     -3.25      0.00
    3    7    5     -4.59      0.00
    3    7    6     -3.16      0.00
    3    7    7     -0.54      0.00
    3    7    8      0.83      0.00
   -3   -8   13     -0.12      0.00
   -3   -8   12      0.35      0.00
   -3   -8   11      2.14      0.00
   -3   -8   10      3.04      0.00
   -3   -8    9      1.35      0.00
   -3   -8    8     -1.62      0.00
   -3   -8    7     -4.11      0.00
   -3   -8    6     -5.26      0.00
   -3   -8    5     -4.34      0.00
   -3   -8    4     -2.16      0.00
   -3   -8    3     -0.99      0.00
   -3   -8    2     -1.59      0.00
   -3   -8    1     -3.20      0.00
    3    8    0     -4.97      0.00
    3    8    1     -5.34      0.00
    3    8    2     -2.99      0.00
    3    8    3      0.72      0.00
    3    8    4      3.15      0.00
    3    8    5      3.21      0.00
    3    8    6      1.59      0.00
    3    8    7      0.03      0.00
   -3   -9   12     -0.59      0.00
   -3   -9   11     -2.61      0.00
   -3   -9   10     -3.33      0.00
   -3   -9    9     -2.17      0.00
   -3   -9    8     -0.74      0.00
   -3   -9    7      0.39      0.00
   -3   -9    6      1.15      0.00
   -3   -9    5      0.69      0.00
   -3   -9    4     -0.24      0.00
   -3   -9    3      0.35      0.00
   -3   -9    2      2.43      0.00
   -3   -9    1      4.52      0.00
    3    9    0      5.53      0.00
    3    9    1      4.71      0.00
    3    9    2      2.34      0.00
    3    9    3      0.16      0.00
    3    9    4     -0.71      0.00
    3    9    5     -0.56      0.00
    3    9    6      0.02      0.00
    3    9    7      0.32      0.00
   -3  -10   11      0.95      0.00
   -3  -10   10      0.75      0.00
   -3  -10    9      0.31      0.00
   -3  -10    8      0.59      0.00
   -3  -10    7      0.66      0.00
   -3  -10    6      0.41      0.00
   -3  -10    5      1.08      0.00
   -3  -10    4      1.86      0.00
   -3  -10    3      0.90      0.00
   -3  -10    2     -1.27      0.00
   -3  -10    1     -2.80      0.00
    3   10    0     -2.94      0.00
    3   10    1     -2.10      0.00
    3   10    2     -1.33      0.00
    3   10    3     -1.30      0.00
    3   10    4     -1.34      0.00
   -3  -11   10      1.42      0.00
   -3  -11    9      1.47      0.00
   -3  -11    8      0.68      0.00
   -3  -11    7      0.55      0.00
   -3  -11    6      0.63      0.00
   -3  -11    5     -0.54      0.00
   -3  -11    4     -1.78      0.00
   -3  -11    3     -1.31      0.00
   -3  -11    2      0.12      0.00
   -3  -11    1      0.83      0.00
    3   11    0      0.56      0.00
    3   11    1      0.18      0.00
   -3  -12    9     -1.34      0.00
   -3  -12    8     -1.11      0.00
   -3  -12    7     -1.51      0.00
   -3  -12    6     -1.53      0.00
   -3  -12    5     -0.15      0.00
   -3  -12    4      1.14      0.00
   -3  -12    3      0.96      0.00
   -3  -12    2      0.14      0.00
   -3  -12    1     -0.13      0.00
    4  -14    4     -1.54      0.00
    4  -14    5     -1.45      0.00
   -4   13    4     -0.21      0.00
   -4   13    3      0.34      0.00
   -4   13    2      1.13      0.00
   -4   13    1      0.94      0.00
   -4   13    0      0.07      0.00
    4  -13    1      0.40      0.00
    4  -13    2      2.27      0.00
    4  -13    3      3.95      0.00
    4  -13    4      4.29      0.00
    4  -13    5      3.52      0.00
    4  -13    6      2.17      0.00
   -4   12    9      0.17      0.00
   -4   12    8     -0.47      0.00
   -4   12    7     -0.94      0.00
   -4   12    6     -0.61      0.00
   -4   12    5      0.46      0.00
   -4   12    4      1.44      0.00
   -4   12    3      1.59      0.00
   -4   12    2      1.31      0.00
   -4   12    1      1.53      0.00
   -4   12    0      1.56      0.00
    4  -12    1     -0.15      0.00
    4  -12    2     -3.16      0.00
    4  -12    3     -5.38      0.00
    4  -12    4     -5.83      0.00
    4  -12    5     -5.05      0.00
    4  -12    6     -3.59      0.00
   -4   11   10      0.49      0.00
   -4   11    9      1.49      0.00
   -4   11    8      2.55      0.00
   -4   11    7      2.91      0.00
   -4   11    6      1.97      0.00
   -4   11    5     -0.04      0.00
   -4   11    4     -2.13      0.00
   -4   11    3     -3.31      0.00
   -4   11    2     -3.66      0.00
   -4   11    1     -3.82      0.00
   -4   11    0     -3.38      0.00
    4  -11    1     -1.38      0.00
    4  -11    2      1.57      0.00
    4  -11    3      3.75      0.00
    4  -11    4      4.58      0.00
    4  -11    5      4.49      0.00
    4  -11    6      3.59      0.00
    4  -11    7      2.07      0.00
   -4   10   10     -2.09      0.00
   -4   10    9     -3.47      0.00
   -4   10    8     -4.50      0.00
   -4   10    7     -4.66      0.00
   -4   10    6     -3.60      0.00
   -4   10    5     -1.63      0.00
   -4   10    4      0.43      0.00
   -4   10    3      1.81      0.00
   -4   10    2      2.59      0.00
   -4   10    1      3.37      0.00
   -4   10    0      3.79      0.00
    4  -10    1      2.82      0.00
    4  -10    2      0.84      0.00
    4  -10    3     -0.67      0.00
    4  -10    4     -1.29      0.00
    4  -10    5     -1.48      0.00
    4  -10    6     -1.22      0.00
    4  -10    7     -0.55      0.00
    4  -10    8     -0.06      0.00
   -4    9   11      1.51      0.00
   -4    9   10      2.82      0.00
   -4    9    9      3.70      0.00
   -4    9    8      4.13      0.00
   -4    9    7      4.07      0.00
   -4    9    6      3.62      0.00
   -4    9    5      3.22      0.00
   -4    9    4      3.03      0.00
   -4    9    3      2.86      0.00
   -4    9    2      2.13      0.00
   -4    9    1      0.36      0.00
   -4    9    0     -1.44      0.00
    4   -9    1     -1.68      0.00
    4   -9    2     -0.93      0.00
    4   -9    3     -0.99      0.00
    4   -9    4     -1.92      0.00
    4   -9    5     -2.67      0.00
    4   -9    6     -2.85      0.00
    4   -9    7     -2.41      0.00
    4   -9    8     -1.37      0.00
   -4    8   11     -1.79      0.00
   -4    8   10     -2.37      0.00
   -4    8    9     -1.92      0.00
   -4    8    8     -0.93      0.00
   -4    8    7     -0.11      0.00
   -4    8    6     -0.55      0.00
   -4    8    5     -2.69      0.00
   -4    8    4     -5.49      0.00
   -4    8    3     -7.39      0.00
   -4    8    2     -7.28      0.00
   -4    8    1     -5.19      0.00
   -4    8    0     -3.07      0.00
    4   -8    1     -2.61      0.00
    4   -8    2     -2.49      0.00
    4   -8    3     -0.67      0.00
    4   -8    4      2.30      0.00
    4   -8    5      4.74      0.00
    4   -8    6      5.82      0.00
    4   -8    7      5.15      0.00
    4   -8    8      3.15      0.00
    4   -8    9      1.25      0.00
   -4    7   12      1.39      0.00
   -4    7   11      2.68      0.00
   -4    7   10      1.99      0.00
   -4    7    9     -0.71      0.00
   -4    7    8     -4.03      0.00
   -4    7    7     -5.92      0.00
   -4    7    6     -4.42      0.00
   -4    7    5      0.13      0.00
   -4    7    4      5.03      0.00
   -4    7    3      7.94      0.00
   -4    7    2      8.13      0.00
   -4    7    1      6.58      0.00
   -4    7    0      5.82      0.00
    4   -7    1      6.86      0.00
    4   -7    2      7.33      0.00
    4   -7    3      5.26      0.00
    4   -7    4      1.55      0.00
    4   -7    5     -2.23      0.00
    4   -7    6     -4.90      0.00
    4   -7    7     -5.26      0.00
    4   -7    8     -3.58      0.00
    4   -7    9     -1.75      0.00
   -4    6   12     -3.97      0.00
   -4    6   11     -4.86      0.00
   -4    6   10     -2.18      0.00
   -4    6    9      3.06      0.00
   -4    6    8      8.06      0.00
   -4    6    7      9.77      0.00
   -4    6    6      6.76      0.00
   -4    6    5      1.36      0.00
   -4    6    4     -2.57      0.00
   -4    6    3     -3.45      0.00
   -4    6    2     -2.14      0.00
   -4    6    1     -0.97      0.00
   -4    6    0     -2.66      0.00
    4   -6    1     -6.85      0.00
    4   -6    2     -9.83      0.00
    4   -6    3     -9.54      0.00
    4   -6    4     -6.81      0.00
    4   -6    5     -2.84      0.00
    4   -6    6      0.78      0.00
    4   -6    7      2.07      0.00
    4   -6    8      1.18      0.00
    4   -6    9      0.17      0.00
    4   -6   10      0.03      0.00
   -4    5   13      3.99      0.00
   -4    5   12      6.92      0.00
   -4    5   11      6.54      0.00
   -4    5   10      1.99      0.00
   -4    5    9     -3.98      0.00
   -4    5    8     -7.74      0.00
   -4    5    7     -6.91      0.00
   -4    5    6     -2.36      0.00
   -4    5    5      1.53      0.00
   -4    5    4      1.19      0.00
   -4    5    3     -2.84      0.00
   -4    5    2     -7.59      0.00
   -4    5    1     -9.26      0.00
   -4    5    0     -5.20      0.00
    4   -5    1      2.32      0.00
    4   -5    2      8.01      0.00
    4   -5    3      9.65      0.00
    4   -5    4      8.23      0.00
    4   -5    5      5.18      0.00
    4   -5    6      2.54      0.00
    4   -5    7      2.07      0.00
    4   -5    8      2.97      0.00
    4   -5    9      3.10      0.00
    4   -5   10      1.79      0.00
   -4    4   13     -5.15      0.00
   -4    4   12     -7.12      0.00
   -4    4   11     -5.14      0.00
   -4    4   10     -0.44      0.00
   -4    4    9      3.13      0.00
   -4    4    8      2.67      0.00
   -4    4    7     -2.08      0.00
   -4    4    6     -7.66      0.00
   -4    4    5     -8.65      0.00
   -4    4    4     -3.05      0.00
   -4    4    3      6.21      0.00
   -4    4    2     14.30      0.00
   -4    4    1     16.45      0.00
   -4    4    0     10.91      0.00
    4   -4    1      2.05      0.00
    4   -4    2     -3.87      0.00
    4   -4    3     -5.15      0.00
    4   -4    4     -3.72      0.00
    4   -4    5     -1.90      0.00
    4   -4    6     -1.73      0.00
    4   -4    7     -3.71      0.00
    4   -4    8     -5.80      0.00
    4   -4    9     -5.72      0.00
    4   -4   10     -3.19      0.00
    4   -4   11     -0.22      0.00
   -4    3   13      3.78      0.00
   -4    3   12      3.56      0.00
   -4    3   11      0.40      0.00
   -4    3   10     -2.69      0.00
   -4    3    9     -2.25      0.00
   -4    3    8      2.95      0.00
   -4    3    7     11.19      0.00
   -4    3    6     17.26      0.00
   -4    3    5     15.66      0.00
   -4    3    4      6.35      0.00
   -4    3    3     -5.46      0.00
   -4    3    2    -13.78      0.00
   -4    3    1    -14.49      0.00
   -4    3    0     -8.13      0.00
    4   -3    1     -0.87      0.00
    4   -3    2      1.70      0.00
    4   -3    3     -0.34      0.00
    4   -3    4     -3.58      0.00
    4   -3    5     -4.93      0.00
    4   -3    6     -2.88      0.00
    4   -3    7      1.49      0.00
    4   -3    8      5.19      0.00
    4   -3    9      5.77      0.00
    4   -3   10      3.13      0.00
    4   -3   11      0.12      0.00
   -4    2   14     -1.53      0.00
   -4    2   13     -1.29      0.00
   -4    2   12      1.57      0.00
   -4    2   11      5.41      0.00
   -4    2   10      6.61      0.00
   -4    2    9      3.08      0.00
   -4    2    8     -4.94      0.00
   -4    2    7    -14.72      0.00
   -4    2    6    -20.27      0.00
   -4    2    5    -16.68      0.00
   -4    2    4     -6.17      0.00
   -4    2    3      3.97      0.00
   -4    2    2      7.82      0.00
   -4    2    1      4.06      0.00
   -4    2    0     -3.18      0.00
    4   -2    1     -6.96      0.00
    4   -2    2     -4.02      0.00
    4   -2    3      2.84      0.00
    4   -2    4      8.72      0.00
    4   -2    5     10.36      0.00
    4   -2    6      7.44      0.00
    4   -2    7      2.22      0.00
    4   -2    8     -2.21      0.00
    4   -2    9     -3.43      0.00
    4   -2   10     -1.46      0.00
    4   -2   11      0.50      0.00
   -4    1   15      1.48      0.00
   -4    1   14      1.85      0.00
   -4    1   13     -0.53      0.00
   -4    1   12     -5.27      0.00
   -4    1   11     -9.09      0.00
   -4    1   10     -8.90      0.00
   -4    1    9     -4.27      0.00
   -4    1    8      3.58      0.00
   -4    1    7     11.69      0.00
   -4    1    6     14.47      0.00
   -4    1    5      8.74      0.00
   -4    1    4     -0.78      0.00
   -4    1    3     -5.65      0.00
   -4    1    2     -1.78      0.00
   -4    1    1      7.99      0.00
   -4    1    0     16.29      0.00
    4   -1    1     16.63      0.00
    4   -1    2      8.73      0.00
    4   -1    3     -1.88      0.00
    4   -1    4     -9.12      0.00
    4   -1    5    -10.51      0.00
    4   -1    6     -7.53      0.00
    4   -1    7     -3.15      0.00
    4   -1    8      0.24      0.00
    4   -1    9      0.92      0.00
    4   -1   10     -0.70      0.00
   -4    0   15     -2.51      0.00
   -4    0   14     -2.30      0.00
   -4    0   13      0.92      0.00
   -4    0   12      5.59      0.00
   -4    0   11      8.20      0.00
   -4    0   10      6.90      0.00
   -4    0    9      2.79      0.00
   -4    0    8     -2.20      0.00
   -4    0    7     -5.47      0.00
   -4    0    6     -3.21      0.00
   -4    0    5      4.91      0.00
   -4    0    4     12.15      0.00
   -4    0    3     10.73      0.00
   -4    0    2     -0.27      0.00
   -4    0    1    -14.40      0.00
    4    0    0    -22.90      0.00
    4    0    1    -20.81      0.00
    4    0    2    -10.47      0.00
    4    0    3      0.69      0.00
    4    0    4      6.38      0.00
    4    0    5      5.81      0.00
    4    0    6      2.53      0.00
    4    0    7     -0.26      0.00
    4    0    8     -1.39      0.00
    4    0    9     -0.38      0.00
    4    0   10      1.59      0.00
   -4   -1   15      2.60      0.00
   -4   -1   14      2.25      0.00
   -4   -1   13      0.01      0.00
   -4   -1   12     -2.60      0.00
   -4   -1   11     -3.07      0.00
   -4   -1   10     -0.79      0.00
   -4   -1    9      2.15      0.00
   -4   -1    8      3.35      0.00
   -4   -1    7      0.95      0.00
   -4   -1    6     -6.44      0.00
   -4   -1    5    -16.24      0.00
   -4   -1    4    -20.88      0.00
   -4   -1    3    -14.83      0.00
   -4   -1    2     -0.63      0.00
   -4   -1    1     13.50      0.00
    4    1    0     19.79      0.00
    4    1    1     15.79      0.00
    4    1    2      5.76      0.00
    4    1    3     -2.52      0.00
    4    1    4     -4.07      0.00
    4    1    5     -0.40      0.00
    4    1    6      3.60      0.00
    4    1    7      5.15      0.00
    4    1    8      4.20      0.00
    4    1    9      1.52      0.00
   -4   -2   15     -1.28      0.00
   -4   -2   14     -1.20      0.00
   -4   -2   13     -0.98      0.00
   -4   -2   12     -1.14      0.00
   -4   -2   11     -2.78      0.00
   -4   -2   10     -5.82      0.00
   -4   -2    9     -7.90      0.00
   -4   -2    8     -6.56      0.00
   -4   -2    7     -0.62      0.00
   -4   -2    6      9.33      0.00
   -4   -2    5     18.78      0.00
   -4   -2    4     20.68      0.00
   -4   -2    3     12.61      0.00
   -4   -2    2     -0.08      0.00
   -4   -2    1     -9.42      0.00
    4    2    0    -10.74      0.00
    4    2    1     -4.76      0.00
    4    2    2      3.19      0.00
    4    2    3      6.76      0.00
    4    2    4      3.71      0.00
    4    2    5     -2.49      0.00
    4    2    6     -6.96      0.00
    4    2    7     -7.74      0.00
    4    2    8     -5.55      0.00
    4    2    9     -2.13      0.00
   -4   -3   15     -1.15      0.00
   -4   -3   14     -0.95      0.00
   -4   -3   13      0.57      0.00
   -4   -3   12      2.72      0.00
   -4   -3   11      5.59      0.00
   -4   -3   10      8.97      0.00
   -4   -3    9     10.69      0.00
   -4   -3    8      8.64      0.00
   -4   -3    7      2.36      0.00
   -4   -3    6     -6.43      0.00
   -4   -3    5    -12.76      0.00
   -4   -3    4    -11.50      0.00
   -4   -3    3     -3.56      0.00
   -4   -3    2      4.33      0.00
   -4   -3    1      6.45      0.00
    4    3    0      2.09      0.00
    4    3    1     -5.34      0.00
    4    3    2    -10.61      0.00
    4    3    3     -9.91      0.00
    4    3    4     -3.85      0.00
    4    3    5      3.14      0.00
    4    3    6      7.02      0.00
    4    3    7      6.84      0.00
    4    3    8      4.07      0.00
   -4   -4   15      3.13      0.00
   -4   -4   14      2.85      0.00
   -4   -4   13      0.79      0.00
   -4   -4   12     -1.68      0.00
   -4   -4   11     -4.47      0.00
   -4   -4   10     -7.36      0.00
   -4   -4    9     -8.51      0.00
   -4   -4    8     -6.65      0.00
   -4   -4    7     -2.25      0.00
   -4   -4    6      2.58      0.00
   -4   -4    5      4.03      0.00
   -4   -4    4     -0.15      0.00
   -4   -4    3     -6.54      0.00
   -4   -4    2     -9.17      0.00
   -4   -4    1     -5.58      0.00
    4    4    0      2.12      0.00
    4    4    1      9.65      0.00
    4    4    2     12.73      0.00
    4    4    3      9.67      0.00
    4    4    4      2.90      0.00
    4    4    5     -3.04      0.00
    4    4    6     -5.12      0.00
    4    4    7     -3.62      0.00
    4    4    8     -0.99      0.00
   -4   -5   15     -3.07      0.00
   -4   -5   14     -2.89      0.00
   -4   -5   13     -1.60      0.00
   -4   -5   12     -0.27      0.00
   -4   -5   11      1.37      0.00
   -4   -5   10      2.89      0.00
   -4   -5    9      2.83      0.00
   -4   -5    8      1.16      0.00
   -4   -5    7     -0.79      0.00
   -4   -5    6     -1.40      0.00
   -4   -5    5      1.28      0.00
   -4   -5    4      6.89      0.00
   -4   -5    3     11.35      0.00
   -4   -5    2     10.90      0.00
   -4   -5    1      5.58      0.00
    4    5    0     -2.01      0.00
    4    5    1     -8.31      0.00
    4    5    2     -9.93      0.00
    4    5    3     -6.30      0.00
    4    5    4     -0.63      0.00
    4    5    5      2.91      0.00
    4    5    6      2.61      0.00
    4    5    7      0.18      0.00
    4    5    8     -1.39      0.00
   -4   -6   14      1.50      0.00
   -4   -6   13      1.38      0.00
   -4   -6   12      1.27      0.00
   -4   -6   11      0.73      0.00
   -4   -6   10      0.77      0.00
   -4   -6    9      2.32      0.00
   -4   -6    8      4.11      0.00
   -4   -6    7      4.56      0.00
   -4   -6    6      2.89      0.00
   -4   -6    5     -1.38      0.00
   -4   -6    4     -6.72      0.00
   -4   -6    3     -9.70      0.00
   -4   -6    2     -8.65      0.00
   -4   -6    1     -4.50      0.00
    4    6    0      0.92      0.00
    4    6    1      4.95      0.00
    4    6    2      4.93      0.00
    4    6    3      1.28      0.00
    4    6    4     -2.45      0.00
    4    6    5     -3.13      0.00
    4    6    6     -0.85      0.00
    4    6    7      1.55      0.00
    4    6    8      1.79      0.00
   -4   -7   14     -0.40      0.00
   -4   -7   13     -0.61      0.00
   -4   -7   12     -0.36      0.00
   -4   -7   11      0.06      0.00
   -4   -7   10     -1.11      0.00
   -4   -7    9     -3.82      0.00
   -4   -7    8     -5.87      0.00
   -4   -7    7     -6.08      0.00
   -4   -7    6     -4.38      0.00
   -4   -7    5     -0.69      0.00
   -4   -7    4      3.29      0.00
   -4   -7    3      4.90      0.00
   -4   -7    2      3.71      0.00
   -4   -7    1      1.00      0.00
    4    7    0     -1.84      0.00
    4    7    1     -2.82      0.00
    4    7    2     -0.57      0.00
    4    7    3      3.18      0.00
    4    7    4      5.03      0.00
    4    7    5      3.52      0.00
    4    7    6      0.41      0.00
    4    7    7     -1.33      0.00
   -4   -8   13     -0.37      0.00
   -4   -8   12     -1.69      0.00
   -4   -8   11     -2.42      0.00
   -4   -8   10     -0.76      0.00
   -4   -8    9      2.04      0.00
   -4   -8    8      3.75      0.00
   -4   -8    7      4.21      0.00
   -4   -8    6      3.52      0.00
   -4   -8    5      1.29      0.00
   -4   -8    4     -0.80      0.00
   -4   -8    3     -0.56      0.00
   -4   -8    2      1.46      0.00
   -4   -8    1      3.38      0.00
    4    8    0      4.01      0.00
    4    8    1      2.40      0.00
    4    8    2     -1.26      0.00
    4    8    3     -4.62      0.00
    4    8    4     -5.26      0.00
    4    8    5     -3.09      0.00
    4    8    6     -0.39      0.00
   -4   -9   12      2.56      0.00
   -4   -9   11      3.08      0.00
   -4   -9   10      1.66      0.00
   -4   -9    9      0.20      0.00
   -4   -9    8     -0.30      0.00
   -4   -9    7     -0.88      0.00
   -4   -9    6     -1.12      0.00
   -4   -9    5     -0.12      0.00
   -4   -9    4      0.36      0.00
   -4   -9    3     -1.46      0.00
   -4   -9    2     -4.05      0.00
   -4   -9    1     -5.22      0.00
    4    9    0     -4.56      0.00
    4    9    1     -2.40      0.00
    4    9    2      0.53      0.00
    4    9    3      2.75      0.00
    4    9    4      3.04      0.00
   -4  -10   10     -0.53      0.00
   -4  -10    9     -0.83      0.00
   -4  -10    8     -1.38      0.00
   -4  -10    7     -0.72      0.00
   -4  -10    6     -0.18      0.00
   -4  -10    5     -0.93      0.00
   -4  -10    4     -0.87      0.00
   -4  -10    3      1.25      0.00
   -4  -10    2      3.33      0.00
   -4  -10    1      3.64      0.00
    4   10    0      2.86      0.00
    4   10    1      1.90      0.00
    4   10    2      0.82      0.00
   -4  -11    9      0.20      0.00
   -4  -11    8      0.72      0.00
   -4  -11    7     -0.07      0.00
   -4  -11    6     -0.19      0.00
   -4  -11    5      1.03      0.00
   -4  -11    4      1.22      0.00
   -4  -11    3     -0.29      0.00
   -4  -11    2     -1.37      0.00
    5  -14    4      0.79      0.00
   -5   13    4     -1.08      0.00
   -5   13    3     -1.19      0.00
   -5   13    2     -0.97      0.00
   -5   13    1     -0.38      0.00
   -5   13    0     -0.42      0.00
    5  -13    1     -1.92      0.00
    5  -13    2     -3.55      0.00
    5  -13    3     -3.77      0.00
    5  -13    4     -2.99      0.00
    5  -13    5     -1.98      0.00
   -5   12    9      0.44      0.00
   -5   12    8      0.54      0.00
   -5   12    7      0.14      0.00
   -5   12    6     -0.12      0.00
   -5   12    5     -0.21      0.00
   -5   12    4     -0.49      0.00
   -5   12    3     -0.71      0.00
   -5   12    2     -0.58      0.00
   -5   12    1     -0.08      0.00
   -5   12    0      1.41      0.00
    5  -12    1      3.94      0.00
    5  -12    2      5.81      0.00
    5  -12    3      5.92      0.00
    5  -12    4      5.07      0.00
    5  -12    5      3.74      0.00
    5  -12    6      1.86      0.00
   -5   11   10     -0.89      0.00
   -5   11    9     -1.63      0.00
   -5   11    8     -1.60      0.00
   -5   11    7     -0.76      0.00
   -5   11    6      0.40      0.00
   -5   11    5      1.76      0.00
   -5   11    4      3.10      0.00
   -5   11    3      3.58      0.00
   -5   11    2      2.92      0.00
   -5   11    1      1.58      0.00
   -5   11    0     -0.60      0.00
    5  -11    1     -3.35      0.00
    5  -11    2     -5.17      0.00
    5  -11    3     -5.53      0.00
    5  -11    4     -5.22      0.00
    5  -11    5     -4.18      0.00
    5  -11    6     -2.20      0.00
   -5   10   10      2.40      0.00
   -5   10    9      3.40      0.00
   -5   10    8      3.44      0.00
   -5   10    7      2.31      0.00
   -5   10    6      0.49      0.00
   -5   10    5     -1.59      0.00
   -5   10    4     -3.34      0.00
   -5   10    3     -4.05      0.00
   -5   10    2     -3.86      0.00
   -5   10    1     -3.16      0.00
   -5   10    0     -1.46      0.00
    5  -10    1      0.99      0.00
    5  -10    2      2.54      0.00
    5  -10    3      2.82      0.00
    5  -10    4      2.78      0.00
    5  -10    5      2.30      0.00
    5  -10    6      1.22      0.00
    5  -10    7      0.65      0.00
   -5    9   11     -1.88      0.00
   -5    9   10     -3.08      0.00
   -5    9    9     -4.14      0.00
   -5    9    8     -4.28      0.00
   -5    9    7     -3.32      0.00
   -5    9    6     -2.06      0.00
   -5    9    5     -1.06      0.00
   -5    9    4     -0.27      0.00
   -5    9    3      0.52      0.00
   -5    9    2      1.65      0.00
   -5    9    1      2.53      0.00
   -5    9    0      1.82      0.00
    5   -9    1      0.15      0.00
    5   -9    2     -0.24      0.00
    5   -9    3      0.72      0.00
    5   -9    4      1.40      0.00
    5   -9    5      1.51      0.00
    5   -9    6      1.17      0.00
    5   -9    7     -0.10      0.00
   -5    8   11      1.75      0.00
   -5    8   10      2.29      0.00
   -5    8    9      2.51      0.00
   -5    8    8      2.12      0.00
   -5    8    7      1.71      0.00
   -5    8    6      2.47      0.00
   -5    8    5      4.26      0.00
   -5    8    4      5.59      0.00
   -5    8    3      5.26      0.00
   -5    8    2      3.30      0.00
   -5    8    1      1.38      0.00
   -5    8    0      1.27      0.00
    5   -8    1      1.72      0.00
    5   -8    2      0.23      0.00
    5   -8    3     -2.62      0.00
    5   -8    4     -4.60      0.00
    5   -8    5     -5.17      0.00
    5   -8    6     -4.20      0.00
    5   -8    7     -1.62      0.00
    5   -8    8      0.74      0.00
   -5    7   12     -1.66      0.00
   -5    7   11     -1.63      0.00
   -5    7   10     -0.33      0.00
   -5    7    9      1.58      0.00
   -5    7    8      3.07      0.00
   -5    7    7      2.55      0.00
   -5    7    6     -0.84      0.00
   -5    7    5     -5.44      0.00
   -5    7    4     -8.54      0.00
   -5    7    3     -8.88      0.00
   -5    7    2     -7.17      0.00
   -5    7    1     -5.66      0.00
   -5    7    0     -5.90      0.00
    5   -7    1     -5.97      0.00
    5   -7    2     -3.51      0.00
    5   -7    3      0.44      0.00
    5   -7    4      3.75      0.00
    5   -7    5      5.77      0.00
    5   -7    6      5.64      0.00
    5   -7    7      3.17      0.00
    5   -7    8      0.66      0.00
    5   -7    9     -0.11      0.00
   -5    6   12      3.55      0.00
   -5    6   11      1.92      0.00
   -5    6   10     -2.04      0.00
   -5    6    9     -6.13      0.00
   -5    6    8     -8.04      0.00
   -5    6    7     -6.21      0.00
   -5    6    6     -1.27      0.00
   -5    6    5      3.73      0.00
   -5    6    4      6.25      0.00
   -5    6    3      6.14      0.00
   -5    6    2      4.99      0.00
   -5    6    1      5.32      0.00
   -5    6    0      7.86      0.00
    5   -6    1      9.75      0.00
    5   -6    2      8.39      0.00
    5   -6    3      4.80      0.00
    5   -6    4      0.82      0.00
    5   -6    5     -2.53      0.00
    5   -6    6     -3.61      0.00
    5   -6    7     -2.15      0.00
    5   -6    8     -0.52      0.00
    5   -6    9     -0.14      0.00
   -5    5   13     -5.04      0.00
   -5    5   12     -5.61      0.00
   -5    5   11     -2.21      0.00
   -5    5   10      3.35      0.00
   -5    5    9      7.52      0.00
   -5    5    8      8.09      0.00
   -5    5    7      5.05      0.00
   -5    5    6      0.84      0.00
   -5    5    5     -1.26      0.00
   -5    5    4     -0.25      0.00
   -5    5    3      2.19      0.00
   -5    5    2      3.40      0.00
   -5    5    1      0.85      0.00
   -5    5    0     -5.03      0.00
    5   -5    1     -9.91      0.00
    5   -5    2    -10.67      0.00
    5   -5    3     -8.34      0.00
    5   -5    4     -4.88      0.00
    5   -5    5     -1.77      0.00
    5   -5    6     -0.72      0.00
    5   -5    7     -1.45      0.00
    5   -5    8     -1.76      0.00
    5   -5    9     -0.97      0.00
   -5    4   13      5.99      0.00
   -5    4   12      5.70      0.00
   -5    4   11      1.79      0.00
   -5    4   10     -2.56      0.00
   -5    4    9     -3.95      0.00
   -5    4    8     -1.72      0.00
   -5    4    7      2.08      0.00
   -5    4    6      3.89      0.00
   -5    4    5      1.29      0.00
   -5    4    4     -4.47      0.00
   -5    4    3     -9.94      0.00
   -5    4    2    -11.74      0.00
   -5    4    1     -7.77      0.00
   -5    4    0      0.07      0.00
    5   -4    1      6.37      0.00
    5   -4    2      8.10      0.00
    5   -4    3      6.73      0.00
    5   -4    4      4.55      0.00
    5   -4    5      3.22      0.00
    5   -4    6      3.73      0.00
    5   -4    7      4.85      0.00
    5   -4    8      4.48      0.00
   -5    3   13     -4.11      0.00
   -5    3   12     -2.87      0.00
   -5    3   11     -0.04      0.00
   -5    3   10      0.90      0.00
   -5    3    9     -1.92      0.00
   -5    3    8     -7.17      0.00
   -5    3    7    -11.40      0.00
   -5    3    6    -10.74      0.00
   -5    3    5     -4.18      0.00
   -5    3    4      4.87      0.00
   -5    3    3     11.71      0.00
   -5    3    2     13.20      0.00
   -5    3    1      8.75      0.00
   -5    3    0      1.64      0.00
    5   -3    1     -2.84      0.00
    5   -3    2     -2.95      0.00
    5   -3    3     -1.04      0.00
    5   -3    4      0.32      0.00
    5   -3    5     -0.32      0.00
    5   -3    6     -2.99      0.00
    5   -3    7     -5.57      0.00
    5   -3    8     -5.75      0.00
    5   -3    9     -3.66      0.00
    5   -3   10     -1.28      0.00
   -5    2   14      1.40      0.00
   -5    2   13      0.52      0.00
   -5    2   12     -1.79      0.00
   -5    2   11     -2.99      0.00
   -5    2   10     -0.47      0.00
   -5    2    9      5.64      0.00
   -5    2    8     12.67      0.00
   -5    2    7     16.74      0.00
   -5    2    6     14.40      0.00
   -5    2    5      6.14      0.00
   -5    2    4     -2.86      0.00
   -5    2    3     -7.55      0.00
   -5    2    2     -6.48      0.00
   -5    2    1     -1.54      0.00
   -5    2    0      2.89      0.00
    5   -2    1      2.91      0.00
    5   -2    2     -0.90      0.00
    5   -2    3     -4.91      0.00
    5   -2    4     -6.38      0.00
    5   -2    5     -4.52      0.00
    5   -2    6     -0.26      0.00
    5   -2    7      3.68      0.00
    5   -2    8      4.85      0.00
    5   -2    9      3.29      0.00
    5   -2   10      1.25      0.00
   -5    1   15     -1.31      0.00
   -5    1   14     -0.34      0.00
   -5    1   13      2.70      0.00
   -5    1   12      5.75      0.00
   -5    1   11      5.66      0.00
   -5    1   10      1.28      0.00
   -5    1    9     -5.55      0.00
   -5    1    8    -11.85      0.00
   -5    1    7    -14.39      0.00
   -5    1    6    -10.86      0.00
   -5    1    5     -3.31      0.00
   -5    1    4      2.17      0.00
   -5    1    3      1.52      0.00
   -5    1    2     -3.99      0.00
   -5    1    1     -9.85      0.00
   -5    1    0    -11.18      0.00
    5   -1    1     -6.21      0.00
    5   -1    2      1.75      0.00
    5   -1    3      7.66      0.00
    5   -1    4      9.16      0.00
    5   -1    5      6.74      0.00
    5   -1    6      2.34      0.00
    5   -1    7     -1.42      0.00
    5   -1    8     -2.55      0.00
    5   -1    9     -1.39      0.00
   -5    0   15      1.56      0.00
   -5    0   14     -0.26      0.00
   -5    0   13     -3.91      0.00
   -5    0   12     -6.62      0.00
   -5    0   11     -5.67      0.00
   -5    0   10     -1.32      0.00
   -5    0    9      3.60      0.00
   -5    0    8      6.60      0.00
   -5    0    7      5.99      0.00
   -5    0    6      1.25      0.00
   -5    0    5     -4.19      0.00
   -5    0    4     -4.49      0.00
   -5    0    3      2.23      0.00
   -5    0    2     11.84      0.00
   -5    0    1     18.16      0.00
    5    0    0     16.93      0.00
    5    0    1      8.75      0.00
    5    0    2     -0.89      0.00
    5    0    3     -6.44      0.00
    5    0    4     -6.78      0.00
    5    0    5     -4.08      0.00
    5    0    6     -0.81      0.00
    5    0    7      1.13      0.00
    5    0    8      0.87      0.00
    5    0    9     -0.49      0.00
   -5   -1   14      0.08      0.00
   -5   -1   13      2.49      0.00
   -5   -1   12      3.82      0.00
   -5   -1   11      2.27      0.00
   -5   -1   10     -0.98      0.00
   -5   -1    9     -2.84      0.00
   -5   -1    8     -1.60      0.00
   -5   -1    7      2.76      0.00
   -5   -1    6      8.84      0.00
   -5   -1    5     12.18      0.00
   -5   -1    4      8.08      0.00
   -5   -1    3     -2.48      0.00
   -5   -1    2    -13.29      0.00
   -5   -1    1    -18.36      0.00
    5    1    0    -15.35      0.00
    5    1    1     -6.88      0.00
    5    1    2      0.92      0.00
    5    1    3      3.63      0.00
    5    1    4      1.85      0.00
    5    1    5     -1.24      0.00
    5    1    6     -3.22      0.00
    5    1    7     -3.02      0.00
    5    1    8     -1.01      0.00
   -5   -2   14      0.91      0.00
   -5   -2   13      0.60      0.00
   -5   -2   12      0.86      0.00
   -5   -2   11      2.82      0.00
   -5   -2   10      5.03      0.00
   -5   -2    9      4.50      0.00
   -5   -2    8      0.17      0.00
   -5   -2    7     -6.79      0.00
   -5   -2    6    -13.51      0.00
   -5   -2    5    -15.13      0.00
   -5   -2    4     -8.84      0.00
   -5   -2    3      1.68      0.00
   -5   -2    2      9.72      0.00
   -5   -2    1     11.46      0.00
    5    2    0      7.27      0.00
    5    2    1      0.83      0.00
    5    2    2     -2.96      0.00
    5    2    3     -1.92      0.00
    5    2    4      1.99      0.00
    5    2    5      5.51      0.00
    5    2    6      6.61      0.00
    5    2    7      4.88      0.00
    5    2    8      1.71      0.00
   -5   -3   14     -1.79      0.00
   -5   -3   13     -3.14      0.00
   -5   -3   12     -4.43      0.00
   -5   -3   11     -6.57      0.00
   -5   -3   10     -8.20      0.00
   -5   -3    9     -6.67      0.00
   -5   -3    8     -1.55      0.00
   -5   -3    7      5.34      0.00
   -5   -3    6     10.69      0.00
   -5   -3    5     10.42      0.00
   -5   -3    4      4.13      0.00
   -5   -3    3     -2.91      0.00
   -5   -3    2     -5.47      0.00
   -5   -3    1     -2.99      0.00
    5    3    0      1.89      0.00
    5    3    1      5.69      0.00
    5    3    2      5.57      0.00
    5    3    3      1.52      0.00
    5    3    4     -3.68      0.00
    5    3    5     -7.08      0.00
    5    3    6     -7.20      0.00
    5    3    7     -4.49      0.00
    5    3    8     -1.29      0.00
   -5   -4   14      1.72      0.00
   -5   -4   13      3.46      0.00
   -5   -4   12      4.80      0.00
   -5   -4   11      6.69      0.00
   -5   -4   10      7.84      0.00
   -5   -4    9      6.30      0.00
   -5   -4    8      2.47      0.00
   -5   -4    7     -1.70      0.00
   -5   -4    6     -3.71      0.00
   -5   -4    5     -1.39      0.00
   -5   -4    4      3.57      0.00
   -5   -4    3      6.05      0.00
   -5   -4    2      3.48      0.00
   -5   -4    1     -2.03      0.00
    5    4    0     -7.10      0.00
    5    4    1     -9.06      0.00
    5    4    2     -6.65      0.00
    5    4    3     -1.23      0.00
    5    4    4      3.92      0.00
    5    4    5      6.15      0.00
    5    4    6      4.95      0.00
    5    4    7      2.06      0.00
   -5   -5   14     -0.85      0.00
   -5   -5   13     -1.77      0.00
   -5   -5   12     -2.43      0.00
   -5   -5   11     -3.63      0.00
   -5   -5   10     -4.05      0.00
   -5   -5    9     -2.75      0.00
   -5   -5    8     -1.01      0.00
   -5   -5    7     -0.29      0.00
   -5   -5    6     -1.61      0.00
   -5   -5    5     -5.34      0.00
   -5   -5    4     -8.87      0.00
   -5   -5    3     -8.36      0.00
   -5   -5    2     -3.52      0.00
   -5   -5    1      2.64      0.00
    5    5    0      7.23      0.00
    5    5    1      8.31      0.00
    5    5    2      5.32      0.00
    5    5    3      0.33      0.00
    5    5    4     -3.28      0.00
    5    5    5     -3.63      0.00
    5    5    6     -1.59      0.00
    5    5    7      0.32      0.00
   -5   -6   14     -0.01      0.00
   -5   -6   13     -0.07      0.00
   -5   -6   12      0.05      0.00
   -5   -6   11      0.45      0.00
   -5   -6   10     -0.19      0.00
   -5   -6    9     -1.54      0.00
   -5   -6    8     -1.83      0.00
   -5   -6    7     -0.48      0.00
   -5   -6    6      2.45      0.00
   -5   -6    5      6.55      0.00
   -5   -6    4      9.25      0.00
   -5   -6    3      7.95      0.00
   -5   -6    2      3.47      0.00
   -5   -6    1     -1.40      0.00
    5    6    0     -4.58      0.00
    5    6    1     -4.71      0.00
    5    6    2     -1.91      0.00
    5    6    3      1.46      0.00
    5    6    4      2.67      0.00
    5    6    5      1.29      0.00
    5    6    6     -0.69      0.00
    5    6    7     -1.15      0.00
   -5   -7   12      0.05      0.00
   -5   -7   11      0.42      0.00
   -5   -7   10      2.16      0.00
   -5   -7    9      3.73      0.00
   -5   -7    8      3.52      0.00
   -5   -7    7      1.94      0.00
   -5   -7    6     -0.81      0.00
   -5   -7    5     -4.40      0.00
   -5   -7    4     -6.41      0.00
   -5   -7    3     -4.96      0.00
   -5   -7    2     -1.54      0.00
   -5   -7    1      1.25      0.00
    5    7    0      2.07      0.00
    5    7    1      0.62      0.00
    5    7    2     -2.08      0.00
    5    7    3     -3.72      0.00
    5    7    4     -2.83      0.00
    5    7    5     -0.42      0.00
   -5   -8   10     -1.68      0.00
   -5   -8    9     -2.83      0.00
   -5   -8    8     -2.56      0.00
   -5   -8    7     -1.84      0.00
   -5   -8    6     -0.26      0.00
   -5   -8    5      2.17      0.00
   -5   -8    4      2.97      0.00
   -5   -8    3      0.89      0.00
   -5   -8    2     -1.75      0.00
   -5   -8    1     -2.52      0.00
    5    8    0     -1.12      0.00
    5    8    1      1.59      0.00
    5    8    2      4.12      0.00
    5    8    3      4.71      0.00
    5    8    4      2.93      0.00
   -5   -9   10      0.30      0.00
   -5   -9    9      0.30      0.00
   -5   -9    8      0.11      0.00
   -5   -9    7      0.55      0.00
   -5   -9    6      0.18      0.00
   -5   -9    5     -1.03      0.00
   -5   -9    4     -0.53      0.00
   -5   -9    3      2.06      0.00
   -5   -9    2      3.92      0.00
   -5   -9    1      3.38      0.00
    5    9    0      1.27      0.00
    5    9    1     -1.20      0.00
   -5  -10    9      1.31      0.00
   -5  -10    8      1.19      0.00
   -5  -10    7      0.09      0.00
   -5  -10    6      0.06      0.00
   -5  -10    5      0.74      0.00
   -5  -10    4     -0.26      0.00
   -5  -10    3     -2.53      0.00
   -5  -10    2     -3.46      0.00
   -5  -11    9     -0.96      0.00
   -6   13    4      1.50      0.00
   -6   13    3      0.65      0.00
   -6   13    2      0.18      0.00
   -6   13    1      0.22      0.00
   -6   13    0      1.08      0.00
    6  -13    1      2.26      0.00
   -6   12    7     -0.03      0.00
   -6   12    6     -1.10      0.00
   -6   12    5     -1.40      0.00
   -6   12    4     -0.59      0.00
   -6   12    3     -0.16      0.00
   -6   12    2     -0.75      0.00
   -6   12    1     -1.89      0.00
   -6   12    0     -3.45      0.00
    6  -12    1     -4.74      0.00
    6  -12    2     -4.68      0.00
    6  -12    3     -3.69      0.00
   -6   11   10      0.42      0.00
   -6   11    9      0.25      0.00
   -6   11    8     -0.34      0.00
   -6   11    7     -0.59      0.00
   -6   11    6     -0.62      0.00
   -6   11    5     -1.41      0.00
   -6   11    4     -2.34      0.00
   -6   11    3     -1.87      0.00
   -6   11    2     -0.18      0.00
   -6   11    1      1.73      0.00
   -6   11    0      3.72      0.00
    6  -11    1      5.22      0.00
    6  -11    2      5.38      0.00
    6  -11    3      4.77      0.00
    6  -11    4      3.81      0.00
    6  -11    5      2.05      0.00
   -6   10   10     -1.91      0.00
   -6   10    9     -1.99      0.00
   -6   10    8     -0.92      0.00
   -6   10    7      0.50      0.00
   -6   10    6      1.89      0.00
   -6   10    5      3.49      0.00
   -6   10    4      4.47      0.00
   -6   10    3      3.90      0.00
   -6   10    2      2.35      0.00
   -6   10    1      0.44      0.00
   -6   10    0     -1.85      0.00
    6  -10    1     -3.55      0.00
    6  -10    2     -3.76      0.00
    6  -10    3     -3.36      0.00
    6  -10    4     -2.86      0.00
    6  -10    5     -1.77      0.00
    6  -10    6     -0.93      0.00
   -6    9   11      2.12      0.00
   -6    9   10      3.75      0.00
   -6    9    9      4.04      0.00
   -6    9    8      2.61      0.00
   -6    9    7      0.75      0.00
   -6    9    6     -0.68      0.00
   -6    9    5     -1.96      0.00
   -6    9    4     -2.99      0.00
   -6    9    3     -3.32      0.00
   -6    9    2     -3.02      0.00
   -6    9    1     -1.85      0.00
   -6    9    0      0.07      0.00
    6   -9    1      1.05      0.00
    6   -9    2      0.35      0.00
    6   -9    3     -0.37      0.00
    6   -9    4     -0.29      0.00
    6   -9    5      0.10      0.00
    6   -9    6      1.17      0.00
    6   -9    7      2.60      0.00
    6   -9    8      2.47      0.00
   -6    8   11     -2.48      0.00
   -6    8   10     -3.96      0.00
   -6    8    9     -3.86      0.00
   -6    8    8     -2.56      0.00
   -6    8    7     -1.90      0.00
   -6    8    6     -2.41      0.00
   -6    8    5     -2.76      0.00
   -6    8    4     -2.15      0.00
   -6    8    3     -0.93      0.00
   -6    8    2      0.17      0.00
   -6    8    1      0.23      0.00
   -6    8    0     -0.36      0.00
    6   -8    1      0.41      0.00
    6   -8    2      2.69      0.00
    6   -8    3      4.26      0.00
    6   -8    4      4.17      0.00
    6   -8    5      2.83      0.00
    6   -8    6      0.14      0.00
    6   -8    7     -2.57      0.00
    6   -8    8     -2.86      0.00
   -6    7   12      0.73      0.00
   -6    7   11      1.38      0.00
   -6    7   10      1.22      0.00
   -6    7    9      0.20      0.00
   -6    7    8     -0.25      0.00
   -6    7    7      1.51      0.00
   -6    7    6      4.82      0.00
   -6    7    5      7.22      0.00
   -6    7    4      7.44      0.00
   -6    7    3      6.10      0.00
   -6    7    2      4.49      0.00
   -6    7    1      3.81      0.00
   -6    7    0      3.42      0.00
    6   -7    1      1.29      0.00
    6   -7    2     -2.36      0.00
    6   -7    3     -5.16      0.00
    6   -7    4     -6.12      0.00
    6   -7    5     -5.20      0.00
    6   -7    6     -2.23      0.00
    6   -7    7      0.87      0.00
    6   -7    8      1.56      0.00
   -6    6   12     -0.89      0.00
   -6    6   11      0.81      0.00
   -6    6   10      3.26      0.00
   -6    6    9      4.91      0.00
   -6    6    8      4.13      0.00
   -6    6    7      0.40      0.00
   -6    6    6     -4.39      0.00
   -6    6    5     -7.43      0.00
   -6    6    4     -7.94      0.00
   -6    6    3     -7.04      0.00
   -6    6    2     -6.43      0.00
   -6    6    1     -7.14      0.00
   -6    6    0     -7.77      0.00
    6   -6    1     -5.81      0.00
    6   -6    2     -1.65      0.00
    6   -6    3      2.14      0.00
    6   -6    4      4.33      0.00
    6   -6    5      4.44      0.00
    6   -6    6      2.39      0.00
    6   -6    7      0.22      0.00
    6   -6    8     -0.16      0.00
   -6    5   13      2.97      0.00
   -6    5   12      1.38      0.00
   -6    5   11     -2.47      0.00
   -6    5   10     -6.09      0.00
   -6    5    9     -7.30      0.00
   -6    5    8     -5.55      0.00
   -6    5    7     -1.80      0.00
   -6    5    6      1.63      0.00
   -6    5    5      2.81      0.00
   -6    5    4      2.14      0.00
   -6    5    3      1.55      0.00
   -6    5    2      2.95      0.00
   -6    5    1      6.60      0.00
   -6    5    0      9.75      0.00
    6   -5    1      9.24      0.00
    6   -5    2      5.73      0.00
    6   -5    3      2.13      0.00
    6   -5    4     -0.13      0.00
    6   -5    5     -0.65      0.00
    6   -5    6      0.25      0.00
    6   -5    7      0.78      0.00
    6   -5    8      0.13      0.00
   -6    4   13     -4.12      0.00
   -6    4   12     -1.84      0.00
   -6    4   11      2.16      0.00
   -6    4   10      4.63      0.00
   -6    4    9      4.18      0.00
   -6    4    8      1.97      0.00
   -6    4    7      0.01      0.00
   -6    4    6      0.13      0.00
   -6    4    5      2.64      0.00
   -6    4    4      5.62      0.00
   -6    4    3      6.43      0.00
   -6    4    2      3.47      0.00
   -6    4    1     -2.47      0.00
   -6    4    0     -7.53      0.00
    6   -4    1     -8.43      0.00
    6   -4    2     -6.23      0.00
    6   -4    3     -3.90      0.00
    6   -4    4     -2.74      0.00
    6   -4    5     -2.87      0.00
    6   -4    6     -3.49      0.00
    6   -4    7     -2.96      0.00
    6   -4    8     -1.28      0.00
    6   -4    9     -0.08      0.00
   -6    3   13      3.19      0.00
   -6    3   12      1.37      0.00
   -6    3   11     -0.52      0.00
   -6    3   10      0.13      0.00
   -6    3    9      2.95      0.00
   -6    3    8      5.37      0.00
   -6    3    7      5.13      0.00
   -6    3    6      1.34      0.00
   -6    3    5     -4.64      0.00
   -6    3    4     -9.53      0.00
   -6    3    3    -10.56      0.00
   -6    3    2     -7.07      0.00
   -6    3    1     -0.97      0.00
   -6    3    0      3.68      0.00
    6   -3    1      4.34      0.00
    6   -3    2      2.63      0.00
    6   -3    3      1.35      0.00
    6   -3    4      1.63      0.00
    6   -3    5      3.34      0.00
    6   -3    6      5.07      0.00
    6   -3    7      4.79      0.00
    6   -3    8      2.69      0.00
   -6    2   14     -0.90      0.00
   -6    2   13     -0.27      0.00
   -6    2   12      0.57      0.00
   -6    2   11     -0.50      0.00
   -6    2   10     -4.43      0.00
   -6    2    9     -9.14      0.00
   -6    2    8    -11.58      0.00
   -6    2    7     -9.91      0.00
   -6    2    6     -4.14      0.00
   -6    2    5      3.08      0.00
   -6    2    4      7.73      0.00
   -6    2    3      7.76      0.00
   -6    2    2      4.09      0.00
   -6    2    1     -0.31      0.00
   -6    2    0     -1.97      0.00
    6   -2    1      0.01      0.00
    6   -2    2      2.93      0.00
    6   -2    3      3.99      0.00
    6   -2    4      2.40      0.00
    6   -2    5     -1.19      0.00
    6   -2    6     -4.57      0.00
    6   -2    7     -5.19      0.00
    6   -2    8     -3.23      0.00
   -6    1   14     -1.19      0.00
   -6    1   13     -2.94      0.00
   -6    1   12     -3.05      0.00
   -6    1   11      0.02      0.00
   -6    1   10      5.44      0.00
   -6    1    9     10.30      0.00
   -6    1    8     12.16      0.00
   -6    1    7     10.03      0.00
   -6    1    6      4.60      0.00
   -6    1    5     -0.86      0.00
   -6    1    4     -2.53      0.00
   -6    1    3      0.07      0.00
   -6    1    2      4.10      0.00
   -6    1    1      5.89      0.00
   -6    1    0      3.22      0.00
    6   -1    1     -2.48      0.00
    6   -1    2     -7.09      0.00
    6   -1    3     -8.01      0.00
    6   -1    4     -5.46      0.00
    6   -1    5     -0.93      0.00
    6   -1    6      2.95      0.00
    6   -1    7      3.76      0.00
    6   -1    8      2.10      0.00
   -6    0   14      2.35      0.00
   -6    0   13      4.50      0.00
   -6    0   12      4.25      0.00
   -6    0   11      0.88      0.00
   -6    0   10     -3.69      0.00
   -6    0    9     -6.70      0.00
   -6    0    8     -7.02      0.00
   -6    0    7     -4.74      0.00
   -6    0    6     -1.11      0.00
   -6    0    5      0.61      0.00
   -6    0    4     -2.18      0.00
   -6    0    3     -7.84      0.00
   -6    0    2    -12.08      0.00
   -6    0    1    -11.43      0.00
    6    0    0     -5.42      0.00
    6    0    1      2.42      0.00
    6    0    2      7.25      0.00
    6    0    3      7.48      0.00
    6    0    4      4.62      0.00
    6    0    5      0.74      0.00
    6    0    6     -1.87      0.00
    6    0    7     -1.71      0.00
    6    0    8     -0.14      0.00
   -6   -1   14     -2.02      0.00
   -6   -1   13     -3.55      0.00
   -6   -1   12     -3.02      0.00
   -6   -1   11     -0.39      0.00
   -6   -1   10      2.01      0.00
   -6   -1    9      2.08      0.00
   -6   -1    8      0.01      0.00
   -6   -1    7     -2.98      0.00
   -6   -1    6     -4.95      0.00
   -6   -1    5     -3.02      0.00
   -6   -1    4      3.45      0.00
   -6   -1    3     10.84      0.00
   -6   -1    2     14.57      0.00
   -6   -1    1     12.51      0.00
    6    1    0      5.83      0.00
    6    1    1     -1.16      0.00
    6    1    2     -4.31      0.00
    6    1    3     -3.37      0.00
    6    1    4     -0.62      0.00
    6    1    5      1.91      0.00
    6    1    6      2.55      0.00
    6    1    7      0.92      0.00
    6    1    8     -0.87      0.00
   -6   -2   14      0.36      0.00
   -6   -2   13      0.77      0.00
   -6   -2   12     -0.17      0.00
   -6   -2   11     -2.05      0.00
   -6   -2   10     -2.42      0.00
   -6   -2    9      0.22      0.00
   -6   -2    8      4.63      0.00
   -6   -2    7      8.63      0.00
   -6   -2    6      9.72      0.00
   -6   -2    5      5.78      0.00
   -6   -2    4     -1.82      0.00
   -6   -2    3     -8.39      0.00
   -6   -2    2    -10.52      0.00
   -6   -2    1     -8.02      0.00
    6    2    0     -2.94      0.00
    6    2    1      1.10      0.00
    6    2    2      1.50      0.00
    6    2    3     -0.91      0.00
    6    2    4     -3.75      0.00
    6    2    5     -5.22      0.00
    6    2    6     -4.19      0.00
    6    2    7     -1.38      0.00
   -6   -3   14      1.61      0.00
   -6   -3   13      2.03      0.00
   -6   -3   12      3.29      0.00
   -6   -3   11      4.77      0.00
   -6   -3   10      4.03      0.00
   -6   -3    9      0.15      0.00
   -6   -3    8     -4.97      0.00
   -6   -3    7     -8.82      0.00
   -6   -3    6     -9.13      0.00
   -6   -3    5     -4.98      0.00
   -6   -3    4      0.85      0.00
   -6   -3    3      4.11      0.00
   -6   -3    2      3.61      0.00
   -6   -3    1      0.86      0.00
    6    3    0     -2.04      0.00
    6    3    1     -2.79      0.00
    6    3    2     -0.40      0.00
    6    3    3      3.47      0.00
    6    3    4      6.39      0.00
    6    3    5      6.84      0.00
    6    3    6      4.62      0.00
    6    3    7      1.49      0.00
   -6   -4   14     -2.41      0.00
   -6   -4   13     -2.86      0.00
   -6   -4   12     -4.08      0.00
   -6   -4   11     -5.37      0.00
   -6   -4   10     -4.48      0.00
   -6   -4    9     -1.25      0.00
   -6   -4    8      2.20      0.00
   -6   -4    7      4.06      0.00
   -6   -4    6      3.21      0.00
   -6   -4    5     -0.01      0.00
   -6   -4    4     -2.55      0.00
   -6   -4    3     -1.77      0.00
   -6   -4    2      1.37      0.00
   -6   -4    1      4.48      0.00
    6    4    0      5.89      0.00
    6    4    1      4.40      0.00
    6    4    2      0.26      0.00
    6    4    3     -4.16      0.00
    6    4    4     -6.42      0.00
    6    4    5     -5.72      0.00
    6    4    6     -3.07      0.00
    6    4    7     -0.73      0.00
   -6   -5   14      1.47      0.00
   -6   -5   13      1.49      0.00
   -6   -5   12      2.47      0.00
   -6   -5   11      3.49      0.00
   -6   -5   10      2.80      0.00
   -6   -5    9      1.13      0.00
   -6   -5    8      0.38      0.00
   -6   -5    7      1.06      0.00
   -6   -5    6      2.98      0.00
   -6   -5    5      5.14      0.00
   -6   -5    4      5.08      0.00
   -6   -5    3      1.81      0.00
   -6   -5    2     -2.57      0.00
   -6   -5    1     -5.66      0.00
    6    5    0     -6.39      0.00
    6    5    1     -4.31      0.00
    6    5    2     -0.29      0.00
    6    5    3      3.20      0.00
    6    5    4      4.21      0.00
    6    5    5      2.89      0.00
    6    5    6      0.96      0.00
   -6   -6   14     -0.01      0.00
   -6   -6   13      0.12      0.00
   -6   -6   12     -0.62      0.00
   -6   -6   11     -1.00      0.00
   -6   -6   10     -0.10      0.00
   -6   -6    9      0.47      0.00
   -6   -6    8     -0.62      0.00
   -6   -6    7     -2.74      0.00
   -6   -6    6     -5.12      0.00
   -6   -6    5     -6.79      0.00
   -6   -6    4     -5.88      0.00
   -6   -6    3     -2.30      0.00
   -6   -6    2      1.54      0.00
   -6   -6    1      3.79      0.00
    6    6    0      4.08      0.00
    6    6    1      2.52      0.00
    6    6    2      0.02      0.00
    6    6    3     -1.67      0.00
    6    6    4     -1.58      0.00
   -6   -7   12      0.06      0.00
   -6   -7   11     -0.45      0.00
   -6   -7   10     -1.76      0.00
   -6   -7    9     -1.94      0.00
   -6   -7    8     -0.47      0.00
   -6   -7    7      1.61      0.00
   -6   -7    6      3.86      0.00
   -6   -7    5      5.43      0.00
   -6   -7    4      4.60      0.00
   -6   -7    3      1.72      0.00
   -6   -7    2     -0.73      0.00
   -6   -7    1     -1.46      0.00
    6    7    0     -1.01      0.00
    6    7    1     -0.03      0.00
    6    7    2      0.90      0.00
    6    7    3      1.05      0.00
   -6   -8   10      1.71      0.00
   -6   -8    9      1.62      0.00
   -6   -8    8      0.73      0.00
   -6   -8    7     -0.38      0.00
   -6   -8    6     -2.03      0.00
   -6   -8    5     -3.29      0.00
   -6   -8    4     -2.38      0.00
   -6   -8    3     -0.10      0.00
   -6   -8    2      0.96      0.00
   -6   -8    1      0.24      0.00
    6    8    0     -0.90      0.00
    6    8    1     -1.59      0.00
   -6   -9    9      0.06      0.00
   -6   -9    8      0.02      0.00
   -6   -9    7     -0.03      0.00
   -6   -9    6      0.86      0.00
   -6   -9    5      1.54      0.00
   -6   -9    4      0.37      0.00
   -6   -9    3     -1.38      0.00
   -6   -9    2     -1.45      0.00
   -6  -10    9     -1.10      0.00
   -6  -10    8     -0.42      0.00
   -6  -10    7      0.17      0.00
   -7   13    3      0.44      0.00
   -7   13    2      0.29      0.00
   -7   13    1     -0.23      0.00
   -7   12    6      2.13      0.00
   -7   12    5      1.46      0.00
   -7   12    4      0.33      0.00
   -7   12    3      0.35      0.00
   -7   12    2      1.16      0.00
   -7   12    1      2.04      0.00
   -7   12    0      2.92      0.00
    7  -12    1      3.12      0.00
    7  -12    2      2.30      0.00
   -7   11   10      0.48      0.00
   -7   11    9      0.64      0.00
   -7   11    8      0.55      0.00
   -7   11    7     -0.02      0.00
   -7   11    6     -0.06      0.00
   -7   11    5      0.89      0.00
   -7   11    4      1.26      0.00
   -7   11    3      0.13      0.00
   -7   11    2     -1.43      0.00
   -7   11    1     -2.87      0.00
   -7   11    0     -4.31      0.00
    7  -11    1     -4.91      0.00
    7  -11    2     -4.20      0.00
    7  -11    3     -2.99      0.00
    7  -11    4     -1.53      0.00
   -7   10   10      1.02      0.00
   -7   10    9      0.32      0.00
   -7   10    8     -0.90      0.00
   -7   10    7     -1.82      0.00
   -7   10    6     -2.83      0.00
   -7   10    5     -3.94      0.00
   -7   10    4     -3.81      0.00
   -7   10    3     -2.21      0.00
   -7   10    2     -0.31      0.00
   -7   10    1      1.69      0.00
   -7   10    0      3.74      0.00
    7  -10    1      4.64      0.00
    7  -10    2      4.09      0.00
    7  -10    3      3.09      0.00
    7  -10    4      1.92      0.00
    7  -10    5      0.80      0.00
   -7    9   12     -1.24      0.00
   -7    9   11     -2.94      0.00
   -7    9   10     -3.53      0.00
   -7    9    9     -2.10      0.00
   -7    9    8      0.15      0.00
   -7    9    7      1.84      0.00
   -7    9    6      3.23      0.00
   -7    9    5      4.46      0.00
   -7    9    4      4.57      0.00
   -7    9    3      3.53      0.00
   -7    9    2      2.19      0.00
   -7    9    1      0.52      0.00
   -7    9    0     -1.17      0.00
    7   -9    1     -1.66      0.00
    7   -9    2     -1.16      0.00
    7   -9    3     -0.93      0.00
    7   -9    4     -1.12      0.00
    7   -9    5     -1.64      0.00
    7   -9    6     -2.44      0.00
    7   -9    7     -2.27      0.00
   -7    8   11      4.34      0.00
   -7    8   10      4.65      0.00
   -7    8    9      2.98      0.00
   -7    8    8      1.22      0.00
   -7    8    7      0.52      0.00
   -7    8    6     -0.01      0.00
   -7    8    5     -0.96      0.00
   -7    8    4     -1.60      0.00
   -7    8    3     -1.83      0.00
   -7    8    2     -2.00      0.00
   -7    8    1     -1.78      0.00
   -7    8    0     -1.48      0.00
    7   -8    1     -2.10      0.00
    7   -8    2     -3.03      0.00
    7   -8    3     -2.85      0.00
    7   -8    4     -1.43      0.00
    7   -8    5      0.91      0.00
    7   -8    6      3.20      0.00
    7   -8    7      3.40      0.00
   -7    7   12     -1.84      0.00
   -7    7   11     -2.93      0.00
   -7    7   10     -2.54      0.00
   -7    7    9     -1.55      0.00
   -7    7    8     -1.79      0.00
   -7    7    7     -3.40      0.00
   -7    7    6     -4.63      0.00
   -7    7    5     -4.47      0.00
   -7    7    4     -3.54      0.00
   -7    7    3     -2.28      0.00
   -7    7    2     -0.91      0.00
   -7    7    1      0.04      0.00
   -7    7    0      1.14      0.00
    7   -7    1      3.28      0.00
    7   -7    2      5.45      0.00
    7   -7    3      5.93      0.00
    7   -7    4      4.37      0.00
    7   -7    5      1.24      0.00
    7   -7    6     -1.82      0.00
    7   -7    7     -2.47      0.00
   -7    6   12     -0.05      0.00
   -7    6   11     -0.83      0.00
   -7    6   10     -1.83      0.00
   -7    6    9     -1.63      0.00
   -7    6    8      0.68      0.00
   -7    6    7      4.21      0.00
   -7    6    6      6.72      0.00
   -7    6    5      7.20      0.00
   -7    6    4      6.48      0.00
   -7    6    3      5.54      0.00
   -7    6    2      4.87      0.00
   -7    6    1      4.39      0.00
   -7    6    0      2.76      0.00
    7   -6    1     -0.75      0.00
    7   -6    2     -4.26      0.00
    7   -6    3     -5.67      0.00
    7   -6    4     -4.71      0.00
    7   -6    5     -2.15      0.00
    7   -6    6      0.25      0.00
    7   -6    7      0.65      0.00
   -7    5   13     -0.04      0.00
   -7    5   12      1.85      0.00
   -7    5   11      4.19      0.00
   -7    5   10      5.25      0.00
   -7    5    9      4.16      0.00
   -7    5    8      1.25      0.00
   -7    5    7     -2.10      0.00
   -7    5    6     -4.10      0.00
   -7    5    5     -4.32      0.00
   -7    5    4     -4.16      0.00
   -7    5    3     -4.87      0.00
   -7    5    2     -6.50      0.00
   -7    5    1     -7.76      0.00
   -7    5    0     -6.63      0.00
    7   -5    1     -2.94      0.00
    7   -5    2      0.64      0.00
    7   -5    3      2.08      0.00
    7   -5    4      1.62      0.00
    7   -5    5      0.32      0.00
    7   -5    6     -0.48      0.00
    7   -5    7      0.07      0.00
    7   -5    8      0.80      0.00
   -7    4   13      0.71      0.00
   -7    4   12     -2.02      0.00
   -7    4   11     -4.45      0.00
   -7    4   10     -4.75      0.00
   -7    4    9     -3.35      0.00
   -7    4    8     -1.62      0.00
   -7    4    7     -0.59      0.00
   -7    4    6     -0.94      0.00
   -7    4    5     -2.00      0.00
   -7    4    4     -1.88      0.00
   -7    4    3      0.44      0.00
   -7    4    2      4.13      0.00
   -7    4    1      7.04      0.00
   -7    4    0      7.05      0.00
    7   -4    1      4.56      0.00
    7   -4    2      2.25      0.00
    7   -4    3      1.63      0.00
    7   -4    4      2.10      0.00
    7   -4    5      2.66      0.00
    7   -4    6      2.25      0.00
    7   -4    7      0.67      0.00
    7   -4    8     -0.57      0.00
   -7    3   13     -1.17      0.00
   -7    3   12      0.72      0.00
   -7    3   11      1.44      0.00
   -7    3   10      0.15      0.00
   -7    3    9     -1.31      0.00
   -7    3    8     -1.18      0.00
   -7    3    7      0.79      0.00
   -7    3    6      4.04      0.00
   -7    3    5      6.79      0.00
   -7    3    4      6.86      0.00
   -7    3    3      3.91      0.00
   -7    3    2     -0.41      0.00
   -7    3    1     -3.70      0.00
   -7    3    0     -4.24      0.00
    7   -3    1     -2.78      0.00
    7   -3    2     -1.72      0.00
    7   -3    3     -2.16      0.00
    7   -3    4     -3.53      0.00
    7   -3    5     -4.73      0.00
    7   -3    6     -4.26      0.00
    7   -3    7     -1.97      0.00
    7   -3    8      0.07      0.00
   -7    2   13      0.53      0.00
   -7    2   12      0.51      0.00
   -7    2   11      2.34      0.00
   -7    2   10      5.35      0.00
   -7    2    9      6.92      0.00
   -7    2    8      5.53      0.00
   -7    2    7      1.59      0.00
   -7    2    6     -3.47      0.00
   -7    2    5     -7.06      0.00
   -7    2    4     -7.08      0.00
   -7    2    3     -4.14      0.00
   -7    2    2     -0.66      0.00
   -7    2    1      1.09      0.00
   -7    2    0      0.22      0.00
    7   -2    1     -1.71      0.00
    7   -2    2     -2.19      0.00
    7   -2    3     -0.47      0.00
    7   -2    4      2.55      0.00
    7   -2    5      5.20      0.00
    7   -2    6      5.32      0.00
    7   -2    7      2.79      0.00
   -7    1   13      1.03      0.00
   -7    1   12     -0.44      0.00
   -7    1   11     -3.96      0.00
   -7    1   10     -7.83      0.00
   -7    1    9     -9.43      0.00
   -7    1    8     -7.90      0.00
   -7    1    7     -3.91      0.00
   -7    1    6      0.82      0.00
   -7    1    5      3.45      0.00
   -7    1    4      2.50      0.00
   -7    1    3     -0.28      0.00
   -7    1    2     -1.90      0.00
   -7    1    1     -0.61      0.00
   -7    1    0      3.06      0.00
    7   -1    1      6.19      0.00
    7   -1    2      6.23      0.00
    7   -1    3      3.33      0.00
    7   -1    4     -0.83      0.00
    7   -1    5     -4.19      0.00
    7   -1    6     -4.57      0.00
    7   -1    7     -2.27      0.00
   -7    0   13     -2.37      0.00
   -7    0   12     -0.61      0.00
   -7    0   11      2.86      0.00
   -7    0   10      6.12      0.00
   -7    0    9      7.32      0.00
   -7    0    8      6.26      0.00
   -7    0    7      3.66      0.00
   -7    0    6      1.15      0.00
   -7    0    5      1.10      0.00
   -7    0    4      3.76      0.00
   -7    0    3      6.34      0.00
   -7    0    2      5.98      0.00
   -7    0    1      1.95      0.00
    7    0    0     -3.76      0.00
    7    0    1     -7.36      0.00
    7    0    2     -6.88      0.00
    7    0    3     -3.71      0.00
    7    0    4      0.01      0.00
    7    0    5      2.55      0.00
    7    0    6      2.49      0.00
    7    0    7      0.68      0.00
   -7   -1   14      2.13      0.00
   -7   -1   13      2.34      0.00
   -7   -1   12      1.13      0.00
   -7   -1   11     -0.95      0.00
   -7   -1   10     -2.34      0.00
   -7   -1    9     -2.25      0.00
   -7   -1    8     -1.22      0.00
   -7   -1    7     -0.14      0.00
   -7   -1    6     -0.40      0.00
   -7   -1    5     -3.32      0.00
   -7   -1    4     -7.60      0.00
   -7   -1    3    -10.04      0.00
   -7   -1    2     -8.63      0.00
   -7   -1    1     -3.71      0.00
    7    1    0      2.00      0.00
    7    1    1      4.84      0.00
    7    1    2      3.88      0.00
    7    1    3      1.31      0.00
    7    1    4     -0.92      0.00
    7    1    5     -1.83      0.00
    7    1    6     -0.91      0.00
    7    1    7      0.54      0.00
   -7   -2   14     -0.96      0.00
   -7   -2   13     -0.84      0.00
   -7   -2   12     -0.18      0.00
   -7   -2   11      0.22      0.00
   -7   -2   10     -0.70      0.00
   -7   -2    9     -2.69      0.00
   -7   -2    8     -4.42      0.00
   -7   -2    7     -4.70      0.00
   -7   -2    6     -2.46      0.00
   -7   -2    5      2.30      0.00
   -7   -2    4      7.11      0.00
   -7   -2    3      9.08      0.00
   -7   -2    2      7.46      0.00
   -7   -2    1      3.37      0.00
    7    2    0     -0.57      0.00
    7    2    1     -1.58      0.00
    7    2    2      0.19      0.00
    7    2    3      2.23      0.00
    7    2    4      3.06      0.00
    7    2    5      2.45      0.00
    7    2    6      0.73      0.00
    7    2    7     -0.58      0.00
   -7   -3   13     -0.87      0.00
   -7   -3   12     -1.37      0.00
   -7   -3   11     -0.80      0.00
   -7   -3   10      1.56      0.00
   -7   -3    9      4.67      0.00
   -7   -3    8      6.73      0.00
   -7   -3    7      6.62      0.00
   -7   -3    6      3.83      0.00
   -7   -3    5     -0.63      0.00
   -7   -3    4     -4.01      0.00
   -7   -3    3     -4.52      0.00
   -7   -3    2     -2.69      0.00
   -7   -3    1     -0.06      0.00
    7    3    0      1.30      0.00
    7    3    1     -0.15      0.00
    7    3    2     -3.10      0.00
    7    3    3     -4.87      0.00
    7    3    4     -4.60      0.00
    7    3    5     -2.94      0.00
    7    3    6     -0.94      0.00
   -7   -4   13      1.34      0.00
   -7   -4   12      2.02      0.00
   -7   -4   11      1.54      0.00
   -7   -4   10     -0.62      0.00
   -7   -4    9     -2.99      0.00
   -7   -4    8     -4.01      0.00
   -7   -4    7     -3.37      0.00
   -7   -4    6     -1.30      0.00
   -7   -4    5      1.00      0.00
   -7   -4    4      1.57      0.00
   -7   -4    3      0.03      0.00
   -7   -4    2     -2.18      0.00
   -7   -4    1     -3.53      0.00
    7    4    0     -2.70      0.00
    7    4    1      0.52      0.00
    7    4    2      3.97      0.00
    7    4    3      5.19      0.00
    7    4    4      4.09      0.00
    7    4    5      2.12      0.00
   -7   -5   13     -0.66      0.00
   -7   -5   12     -1.56      0.00
   -7   -5   11     -1.49      0.00
   -7   -5   10     -0.38      0.00
   -7   -5    9      0.11      0.00
   -7   -5    8     -0.68      0.00
   -7   -5    7     -1.87      0.00
   -7   -5    6     -2.77      0.00
   -7   -5    5     -2.76      0.00
   -7   -5    4     -1.10      0.00
   -7   -5    3      1.60      0.00
   -7   -5    2      3.77      0.00
   -7   -5    1      4.38      0.00
    7    5    0      2.90      0.00
    7    5    1     -0.20      0.00
    7    5    2     -2.82      0.00
    7    5    3     -3.27      0.00
   -7   -6   13      0.18      0.00
   -7   -6   12      0.84      0.00
   -7   -6   11      0.54      0.00
   -7   -6   10     -0.07      0.00
   -7   -6    9      0.80      0.00
   -7   -6    8      2.86      0.00
   -7   -6    7      4.32      0.00
   -7   -6    6      4.54      0.00
   -7   -6    5      3.59      0.00
   -7   -6    4      1.49      0.00
   -7   -6    3     -0.91      0.00
   -7   -6    2     -2.46      0.00
   -7   -6    1     -2.82      0.00
    7    6    0     -2.01      0.00
    7    6    1     -0.39      0.00
    7    6    2      0.89      0.00
   -7   -7   12     -0.34      0.00
   -7   -7   11      0.64      0.00
   -7   -7   10      1.39      0.00
   -7   -7    9      0.27      0.00
   -7   -7    8     -1.91      0.00
   -7   -7    7     -3.32      0.00
   -7   -7    6     -3.61      0.00
   -7   -7    5     -2.96      0.00
   -7   -7    4     -1.46      0.00
   -7   -7    3      0.08      0.00
   -7   -7    2      0.81      0.00
   -7   -7    1      0.96      0.00
    7    7    0      0.90      0.00
   -7   -8   10     -1.72      0.00
   -7   -8    9     -1.03      0.00
   -7   -8    8      0.40      0.00
   -7   -8    7      1.46      0.00
   -7   -8    6      2.04      0.00
   -7   -8    5      1.89      0.00
   -7   -8    4      0.89      0.00
   -7   -8    3      0.02      0.00
   -7   -9    9      0.59      0.00
   -7   -9    8      0.16      0.00
   -8   13    1      0.26      0.00
   -8   12    6     -1.70      0.00
   -8   12    5     -0.60      0.00
   -8   12    4      0.09      0.00
   -8   12    3     -0.32      0.00
   -8   12    2     -1.05      0.00
   -8   12    1     -1.71      0.00
   -8   12    0     -1.96      0.00
    8  -12    1     -1.28      0.00
   -8   11   10     -0.46      0.00
   -8   11    9     -0.25      0.00
   -8   11    8      0.18      0.00
   -8   11    7      0.65      0.00
   -8   11    6      0.30      0.00
   -8   11    5     -0.48      0.00
   -8   11    4     -0.28      0.00
   -8   11    3      0.96      0.00
   -8   11    2      2.36      0.00
   -8   11    1      3.68      0.00
   -8   11    0      4.29      0.00
    8  -11    1      3.31      0.00
    8  -11    2      1.42      0.00
    8  -11    3     -0.04      0.00
   -8   10   11     -0.22      0.00
   -8   10   10     -0.10      0.00
   -8   10    9      0.75      0.00
   -8   10    8      1.53      0.00
   -8   10    7      1.98      0.00
   -8   10    6      2.64      0.00
   -8   10    5      2.94      0.00
   -8   10    4      1.87      0.00
   -8   10    3     -0.09      0.00
   -8   10    2     -2.11      0.00
   -8   10    1     -4.11      0.00
   -8   10    0     -5.19      0.00
    8  -10    1     -4.29      0.00
    8  -10    2     -2.25      0.00
    8  -10    3     -0.61      0.00
    8  -10    4      0.30      0.00
   -8    9   11      2.15      0.00
   -8    9   10      1.34      0.00
   -8    9    9     -0.63      0.00
   -8    9    8     -2.39      0.00
   -8    9    7     -3.57      0.00
   -8    9    6     -4.52      0.00
   -8    9    5     -4.65      0.00
   -8    9    4     -3.44      0.00
   -8    9    3     -1.77      0.00
   -8    9    2     -0.16      0.00
   -8    9    1      1.72      0.00
   -8    9    0      3.07      0.00
    8   -9    1      2.72      0.00
    8   -9    2      1.50      0.00
    8   -9    3      0.86      0.00
    8   -9    4      0.94      0.00
    8   -9    5      1.25      0.00
   -8    8   12     -2.87      0.00
   -8    8   11     -3.48      0.00
   -8    8   10     -2.31      0.00
   -8    8    9     -0.32      0.00
   -8    8    8      1.16      0.00
   -8    8    7      2.10      0.00
   -8    8    6      2.96      0.00
   -8    8    5      3.29      0.00
   -8    8    4      2.97      0.00
   -8    8    3      2.83      0.00
   -8    8    2      2.70      0.00
   -8    8    1      1.74      0.00
   -8    8    0      0.76      0.00
    8   -8    1      0.95      0.00
    8   -8    2      1.43      0.00
    8   -8    3      0.76      0.00
    8   -8    4     -0.94      0.00
    8   -8    5     -2.50      0.00
   -8    7   11      2.63      0.00
   -8    7   10      1.81      0.00
   -8    7    9      1.17      0.00
   -8    7    8      1.40      0.00
   -8    7    7      1.79      0.00
   -8    7    6      1.51      0.00
   -8    7    5      0.78      0.00
   -8    7    4     -0.13      0.00
   -8    7    3     -1.39      0.00
   -8    7    2     -2.41      0.00
   -8    7    1     -2.58      0.00
   -8    7    0     -2.95      0.00
    8   -7    1     -4.28      0.00
    8   -7    2     -5.04      0.00
    8   -7    3     -3.71      0.00
    8   -7    4     -0.86      0.00
    8   -7    5      1.70      0.00
    8   -7    6      2.31      0.00
   -8    6   12     -0.13      0.00
   -8    6   11      0.20      0.00
   -8    6   10      0.20      0.00
   -8    6    9     -0.96      0.00
   -8    6    8     -3.09      0.00
   -8    6    7     -4.91      0.00
   -8    6    6     -5.24      0.00
   -8    6    5     -4.41      0.00
   -8    6    4     -3.34      0.00
   -8    6    3     -2.36      0.00
   -8    6    2     -1.52      0.00
   -8    6    1     -0.46      0.00
   -8    6    0      1.78      0.00
    8   -6    1      4.76      0.00
    8   -6    2      6.18      0.00
    8   -6    3      4.92      0.00
    8   -6    4      2.20      0.00
    8   -6    5     -0.11      0.00
    8   -6    6     -0.76      0.00
    8   -6    7     -0.13      0.00
   -8    5   12     -2.38      0.00
   -8    5   11     -3.04      0.00
   -8    5   10     -2.37      0.00
   -8    5    9     -0.37      0.00
   -8    5    8      2.27      0.00
   -8    5    7      4.31      0.00
   -8    5    6      4.79      0.00
   -8    5    5      4.46      0.00
   -8    5    4      4.67      0.00
   -8    5    3      5.38      0.00
   -8    5    2      5.60      0.00
   -8    5    1      4.35      0.00
   -8    5    0      1.29      0.00
    8   -5    1     -2.10      0.00
    8   -5    2     -3.54      0.00
    8   -5    3     -2.74      0.00
    8   -5    4     -1.20      0.00
    8   -5    5     -0.17      0.00
    8   -5    6     -0.15      0.00
    8   -5    7     -0.58      0.00
   -8    4   12      3.23      0.00
   -8    4   11      3.73      0.00
   -8    4   10      2.84      0.00
   -8    4    9      1.46      0.00
   -8    4    8      0.17      0.00
   -8    4    7     -0.56      0.00
   -8    4    6     -0.50      0.00
   -8    4    5     -0.79      0.00
   -8    4    4     -2.52      0.00
   -8    4    3     -4.85      0.00
   -8    4    2     -6.23      0.00
   -8    4    1     -5.78      0.00
   -8    4    0     -3.62      0.00
    8   -4    1     -1.29      0.00
    8   -4    2     -0.43      0.00
    8   -4    3     -0.84      0.00
    8   -4    4     -1.34      0.00
    8   -4    5     -1.21      0.00
    8   -4    6     -0.31      0.00
    8   -4    7      0.58      0.00
   -8    3   13     -0.83      0.00
   -8    3   12     -1.80      0.00
   -8    3   11     -1.43      0.00
   -8    3   10     -0.54      0.00
   -8    3    9     -0.55      0.00
   -8    3    8     -1.48      0.00
   -8    3    7     -2.81      0.00
   -8    3    6     -3.96      0.00
   -8    3    5     -3.58      0.00
   -8    3    4     -1.12      0.00
   -8    3    3      1.93      0.00
   -8    3    2      3.99      0.00
   -8    3    1      4.45      0.00
   -8    3    0      3.48      0.00
    8   -3    1      2.35      0.00
    8   -3    2      2.32      0.00
    8   -3    3      3.11      0.00
    8   -3    4      3.67      0.00
    8   -3    5      3.15      0.00
    8   -3    6      1.39      0.00
    8   -3    7     -0.34      0.00
   -8    2   13     -0.25      0.00
   -8    2   12     -0.83      0.00
   -8    2   11     -2.48      0.00
   -8    2   10     -3.48      0.00
   -8    2    9     -2.35      0.00
   -8    2    8      0.31      0.00
   -8    2    7      3.32      0.00
   -8    2    6      5.50      0.00
   -8    2    5      5.30      0.00
   -8    2    4      2.80      0.00
   -8    2    3      0.01      0.00
   -8    2    2     -1.54      0.00
   -8    2    1     -1.55      0.00
   -8    2    0     -0.55      0.00
    8   -2    1     -0.11      0.00
    8   -2    2     -1.31      0.00
    8   -2    3     -3.38      0.00
    8   -2    4     -4.79      0.00
    8   -2    5     -4.40      0.00
    8   -2    6     -2.14      0.00
   -8    1   13      0.69      0.00
   -8    1   12      2.64      0.00
   -8    1   11      5.30      0.00
   -8    1   10      6.52      0.00
   -8    1    9      5.12      0.00
   -8    1    8      2.03      0.00
   -8    1    7     -1.41      0.00
   -8    1    6     -3.65      0.00
   -8    1    5     -3.28      0.00
   -8    1    4     -1.10      0.00
   -8    1    3      0.51      0.00
   -8    1    2      0.26      0.00
   -8    1    1     -1.59      0.00
   -8    1    0     -3.53      0.00
    8   -1    1     -3.42      0.00
    8   -1    2     -0.86      0.00
    8   -1    3      2.31      0.00
    8   -1    4      4.25      0.00
    8   -1    5      4.02      0.00
    8   -1    6      1.93      0.00
   -8    0   13     -0.21      0.00
   -8    0   12     -2.45      0.00
   -8    0   11     -5.20      0.00
   -8    0   10     -6.47      0.00
   -8    0    9     -5.52      0.00
   -8    0    8     -3.29      0.00
   -8    0    7     -0.97      0.00
   -8    0    6      0.04      0.00
   -8    0    5     -1.06      0.00
   -8    0    4     -2.81      0.00
   -8    0    3     -2.92      0.00
   -8    0    2     -0.66      0.00
   -8    0    1      2.99      0.00
    8    0    0      5.66      0.00
    8    0    1      5.15      0.00
    8    0    2      2.09      0.00
    8    0    3     -0.90      0.00
    8    0    4     -2.39      0.00
    8    0    5     -2.18      0.00
    8    0    6     -0.84      0.00
   -8   -1   13     -0.42      0.00
   -8   -1   12      0.96      0.00
   -8   -1   11      2.66      0.00
   -8   -1   10      3.35      0.00
   -8   -1    9      2.83      0.00
   -8   -1    8      2.01      0.00
   -8   -1    7      1.77      0.00
   -8   -1    6      2.86      0.00
   -8   -1    5      5.09      0.00
   -8   -1    4      6.59      0.00
   -8   -1    3      5.71      0.00
   -8   -1    2      2.44      0.00
   -8   -1    1     -1.81      0.00
    8    1    0     -4.46      0.00
    8    1    1     -3.78      0.00
    8    1    2     -1.33      0.00
    8    1    3      0.33      0.00
    8    1    4      0.71      0.00
    8    1    5      0.33      0.00
   -8   -2   13      0.44      0.00
   -8   -2   12      0.37      0.00
   -8   -2   11      0.36      0.00
   -8   -2   10      0.92      0.00
   -8   -2    9      1.60      0.00
   -8   -2    8      1.34      0.00
   -8   -2    7     -0.36      0.00
   -8   -2    6     -3.38      0.00
   -8   -2    5     -6.48      0.00
   -8   -2    4     -7.72      0.00
   -8   -2    3     -6.40      0.00
   -8   -2    2     -3.27      0.00
   -8   -2    1      0.15      0.00
    8    2    0      1.68      0.00
    8    2    1      0.59      0.00
    8    2    2     -0.92      0.00
    8    2    3     -1.01      0.00
    8    2    4     -0.25      0.00
   -8   -3   13     -0.06      0.00
   -8   -3   12     -0.72      0.00
   -8   -3   11     -1.87      0.00
   -8   -3   10     -3.50      0.00
   -8   -3    9     -4.55      0.00
   -8   -3    8     -3.84      0.00
   -8   -3    7     -1.27      0.00
   -8   -3    6      2.23      0.00
   -8   -3    5      4.88      0.00
   -8   -3    4      5.20      0.00
   -8   -3    3      3.55      0.00
   -8   -3    2      1.31      0.00
   -8   -3    1     -0.14      0.00
    8    3    0      0.38      0.00
    8    3    1      2.21      0.00
    8    3    2      2.95      0.00
    8    3    3      1.82      0.00
   -8   -4   12      0.16      0.00
   -8   -4   11      1.19      0.00
   -8   -4   10      2.75      0.00
   -8   -4    9      3.52      0.00
   -8   -4    8      2.67      0.00
   -8   -4    7      0.65      0.00
   -8   -4    6     -1.44      0.00
   -8   -4    5     -2.27      0.00
   -8   -4    4     -1.29      0.00
   -8   -4    3      0.49      0.00
   -8   -4    2      1.55      0.00
   -8   -4    1      1.03      0.00
    8    4    0     -1.06      0.00
    8    4    1     -3.11      0.00
    8    4    2     -3.14      0.00
   -8   -5   12      0.60      0.00
   -8   -5   11      0.31      0.00
   -8   -5   10     -0.25      0.00
   -8   -5    9      0.02      0.00
   -8   -5    8      1.00      0.00
   -8   -5    7      1.69      0.00
   -8   -5    6      1.67      0.00
   -8   -5    5      0.82      0.00
   -8   -5    4     -0.71      0.00
   -8   -5    3     -2.07      0.00
   -8   -5    2     -2.32      0.00
   -8   -5    1     -1.20      0.00
    8    5    0      0.76      0.00
   -8   -6   11     -0.60      0.00
   -8   -6   10     -0.86      0.00
   -8   -6    9     -2.16      0.00
   -8   -6    8     -3.29      0.00
   -8   -6    7     -3.00      0.00
   -8   -6    6     -1.81      0.00
   -8   -6    5     -0.63      0.00
   -8   -6    4      0.40      0.00
   -8   -6    3      1.11      0.00
   -8   -6    2      1.25      0.00
   -8   -7   10     -0.11      0.00
   -8   -7    9      1.51      0.00
   -8   -7    8      2.67      0.00
   -8   -7    7      2.21      0.00
   -8   -7    6      1.17      0.00
   -8   -7    5      0.56      0.00
   -9   12    6      0.84      0.00
   -9   12    5      0.11      0.00
   -9   12    4      0.24      0.00
   -9   12    3      1.01      0.00
   -9   12    2      1.48      0.00
   -9   12    1      1.33      0.00
   -9   11    9     -0.24      0.00
   -9   11    8     -0.68      0.00
   -9   11    7     -0.87      0.00
   -9   11    6     -0.42      0.00
   -9   11    5     -0.24      0.00
   -9   11    4     -1.24      0.00
   -9   11    3     -2.75      0.00
   -9   11    2     -3.64      0.00
   -9   11    1     -3.42      0.00
   -9   11    0     -1.95      0.00
    9  -11    1      0.11      0.00
    9  -11    2      1.36      0.00
   -9   10   10     -0.47      0.00
   -9   10    9     -0.92      0.00
   -9   10    8     -1.09      0.00
   -9   10    7     -1.20      0.00
   -9   10    6     -1.34      0.00
   -9   10    5     -0.62      0.00
   -9   10    4      1.32      0.00
   -9   10    3      3.44      0.00
   -9   10    2      4.76      0.00
   -9   10    1      4.86      0.00
   -9   10    0      3.36      0.00
    9  -10    1      0.89      0.00
    9  -10    2     -0.88      0.00
    9  -10    3     -1.26      0.00
   -9    9   10      0.76      0.00
   -9    9    9      2.15      0.00
   -9    9    8      3.13      0.00
   -9    9    7      3.58      0.00
   -9    9    6      3.38      0.00
   -9    9    5      2.12      0.00
   -9    9    4      0.15      0.00
   -9    9    3     -1.61      0.00
   -9    9    2     -2.99      0.00
   -9    9    1     -3.83      0.00
   -9    9    0     -3.28      0.00
    9   -9    1     -1.48      0.00
    9   -9    2     -0.09      0.00
    9   -9    3      0.08      0.00
    9   -9    4     -0.23      0.00
   -9    8   11      0.87      0.00
   -9    8   10     -0.51      0.00
   -9    8    9     -2.15      0.00
   -9    8    8     -3.30      0.00
   -9    8    7     -3.72      0.00
   -9    8    6     -3.50      0.00
   -9    8    5     -2.81      0.00
   -9    8    4     -2.13      0.00
   -9    8    3     -1.61      0.00
   -9    8    2     -0.64      0.00
   -9    8    1      0.64      0.00
   -9    8    0      0.85      0.00
    9   -8    1     -0.05      0.00
    9   -8    2     -0.39      0.00
    9   -8    3      0.47      0.00
    9   -8    4      1.38      0.00
   -9    7   11     -0.85      0.00
   -9    7   10     -0.10      0.00
   -9    7    9      0.54      0.00
   -9    7    8      0.72      0.00
   -9    7    7      0.68      0.00
   -9    7    6      0.94      0.00
   -9    7    5      1.58      0.00
   -9    7    4      2.36      0.00
   -9    7    3      2.88      0.00
   -9    7    2      2.67      0.00
   -9    7    1      2.23      0.00
   -9    7    0      2.64      0.00
    9   -7    1      3.35      0.00
    9   -7    2      2.67      0.00
    9   -7    3      0.61      0.00
    9   -7    4     -1.12      0.00
   -9    6   11      0.08      0.00
   -9    6   10      0.52      0.00
   -9    6    9      1.48      0.00
   -9    6    8      2.66      0.00
   -9    6    7      3.17      0.00
   -9    6    6      2.44      0.00
   -9    6    5      1.18      0.00
   -9    6    4      0.26      0.00
   -9    6    3     -0.40      0.00
   -9    6    2     -1.22      0.00
   -9    6    1     -2.58      0.00
   -9    6    0     -4.43      0.00
    9   -6    1     -5.43      0.00
    9   -6    2     -4.30      0.00
    9   -6    3     -1.94      0.00
    9   -6    4     -0.14      0.00
   -9    5   11      0.95      0.00
   -9    5   10     -0.24      0.00
   -9    5    9     -1.95      0.00
   -9    5    8     -3.63      0.00
   -9    5    7     -4.32      0.00
   -9    5    6     -3.82      0.00
   -9    5    5     -3.38      0.00
   -9    5    4     -3.59      0.00
   -9    5    3     -3.38      0.00
   -9    5    2     -1.92      0.00
   -9    5    1      0.52      0.00
   -9    5    0      3.03      0.00
    9   -5    1      4.16      0.00
    9   -5    2      3.35      0.00
    9   -5    3      1.80      0.00
    9   -5    4      0.78      0.00
   -9    4   12     -1.88      0.00
   -9    4   11     -1.45      0.00
   -9    4   10     -0.55      0.00
   -9    4    9      0.43      0.00
   -9    4    8      1.39      0.00
   -9    4    7      1.86      0.00
   -9    4    6      2.03      0.00
   -9    4    5      2.98      0.00
   -9    4    4      4.50      0.00
   -9    4    3      4.99      0.00
   -9    4    2      3.97      0.00
   -9    4    1      2.09      0.00
   -9    4    0      0.12      0.00
    9   -4    1     -0.92      0.00
    9   -4    2     -0.71      0.00
    9   -4    3     -0.19      0.00
    9   -4    4     -0.09      0.00
   -9    3   12      1.11      0.00
   -9    3   11      0.70      0.00
   -9    3   10      0.73      0.00
   -9    3    9      1.29      0.00
   -9    3    8      1.72      0.00
   -9    3    7      1.88      0.00
   -9    3    6      1.37      0.00
   -9    3    5     -0.52      0.00
   -9    3    4     -2.86      0.00
   -9    3    3     -4.08      0.00
   -9    3    2     -4.09      0.00
   -9    3    1     -3.35      0.00
   -9    3    0     -2.20      0.00
    9   -3    1     -1.53      0.00
    9   -3    2     -1.72      0.00
    9   -3    3     -1.85      0.00
    9   -3    4     -1.29      0.00
   -9    2   12      0.89      0.00
   -9    2   11      1.33      0.00
   -9    2   10      0.37      0.00
   -9    2    9     -1.56      0.00
   -9    2    8     -3.23      0.00
   -9    2    7     -4.14      0.00
   -9    2    6     -3.63      0.00
   -9    2    5     -1.39      0.00
   -9    2    4      1.13      0.00
   -9    2    3      2.41      0.00
   -9    2    2      2.62      0.00
   -9    2    1      2.18      0.00
   -9    2    0      1.60      0.00
    9   -2    1      1.92      0.00
    9   -2    2      2.98      0.00
    9   -2    3      3.30      0.00
    9   -2    4      2.33      0.00
   -9    1   12     -2.94      0.00
   -9    1   11     -3.44      0.00
   -9    1   10     -1.99      0.00
   -9    1    9      0.53      0.00
   -9    1    8      2.69      0.00
   -9    1    7      3.83      0.00
   -9    1    6      3.24      0.00
   -9    1    5      1.08      0.00
   -9    1    4     -0.78      0.00
   -9    1    3     -1.03      0.00
   -9    1    2     -0.15      0.00
   -9    1    1      0.95      0.00
   -9    1    0      1.07      0.00
    9   -1    1     -0.63      0.00
    9   -1    2     -2.79      0.00
    9   -1    3     -3.35      0.00
   -9    0   12      3.57      0.00
   -9    0   11      4.06      0.00
   -9    0   10      2.70      0.00
   -9    0    9      0.59      0.00
   -9    0    8     -1.00      0.00
   -9    0    7     -1.54      0.00
   -9    0    6     -0.62      0.00
   -9    0    5      1.12      0.00
   -9    0    4      1.78      0.00
   -9    0    3      0.51      0.00
   -9    0    2     -1.85      0.00
   -9    0    1     -3.83      0.00
    9    0    0     -3.66      0.00
    9    0    1     -1.04      0.00
    9    0    2      1.54      0.00
    9    0    3      2.03      0.00
   -9   -1   12     -2.35      0.00
   -9   -1   11     -2.64      0.00
   -9   -1   10     -1.71      0.00
   -9   -1    9     -0.68      0.00
   -9   -1    8     -0.50      0.00
   -9   -1    7     -1.24      0.00
   -9   -1    6     -2.73      0.00
   -9   -1    5     -4.00      0.00
   -9   -1    4     -3.58      0.00
   -9   -1    3     -1.26      0.00
   -9   -1    2      1.94      0.00
   -9   -1    1      4.33      0.00
    9    1    0      4.07      0.00
    9    1    1      1.52      0.00
    9    1    2     -0.45      0.00
   -9   -2   11      0.12      0.00
   -9   -2   10     -0.64      0.00
   -9   -2    9     -0.67      0.00
   -9   -2    8      0.68      0.00
   -9   -2    7      2.86      0.00
   -9   -2    6      4.90      0.00
   -9   -2    5      5.69      0.00
   -9   -2    4      4.56      0.00
   -9   -2    3      2.05      0.00
   -9   -2    2     -0.76      0.00
   -9   -2    1     -2.54      0.00
    9    2    0     -2.07      0.00
    9    2    1     -0.32      0.00
   -9   -3   11      1.68      0.00
   -9   -3   10      2.74      0.00
   -9   -3    9      2.39      0.00
   -9   -3    8      0.18      0.00
   -9   -3    7     -2.66      0.00
   -9   -3    6     -4.56      0.00
   -9   -3    5     -4.60      0.00
   -9   -3    4     -3.07      0.00
   -9   -3    3     -1.23      0.00
   -9   -3    2      0.07      0.00
   -9   -3    1      0.35      0.00
    9    3    0     -0.44      0.00
   -9   -4   10     -2.78      0.00
   -9   -4    9     -2.48      0.00
   -9   -4    8     -0.52      0.00
   -9   -4    7      1.54      0.00
   -9   -4    6      2.35      0.00
   -9   -4    5      1.64      0.00
   -9   -4    4      0.28      0.00
   -9   -4    3     -0.45      0.00
   -9   -4    2     -0.18      0.00
   -9   -5   11      0.04      0.00
   -9   -5   10      0.89      0.00
   -9   -5    9      0.61      0.00
   -9   -5    8     -0.34      0.00
   -9   -5    7     -0.77      0.00
   -9   -5    6     -0.44      0.00
   -9   -5    5      0.33      0.00
   -9   -5    4      1.00      0.00
   -9   -6   10      0.72      0.00
   -9   -6    9      1.19      0.00
   -9   -6    8      1.25      0.00
   -9   -6    7      0.52      0.00
  -10   12    4     -0.94      0.00
  -10   12    3     -1.30      0.00
  -10   11    7      0.46      0.00
  -10   11    6      0.41      0.00
  -10   11    5      1.20      0.00
  -10   11    4      2.52      0.00
  -10   11    3      3.03      0.00
  -10   11    2      2.22      0.00
  -10   11    1      0.75      0.00
  -10   11    0     -0.53      0.00
  -10   10    9      0.21      0.00
  -10   10    8      0.33      0.00
  -10   10    7      0.35      0.00
  -10   10    6     -0.24      0.00
  -10   10    5     -1.81      0.00
  -10   10    4     -3.59      0.00
  -10   10    3     -4.27      0.00
  -10   10    2     -3.52      0.00
  -10   10    1     -1.93      0.00
  -10   10    0     -0.23      0.00
  -10    9    9     -1.84      0.00
  -10    9    8     -2.35      0.00
  -10    9    7     -2.01      0.00
  -10    9    6     -0.80      0.00
  -10    9    5      0.97      0.00
  -10    9    4      2.60      0.00
  -10    9    3      3.46      0.00
  -10    9    2      3.50      0.00
  -10    9    1      2.77      0.00
  -10    8   10      1.67      0.00
  -10    8    9      3.03      0.00
  -10    8    8      3.52      0.00
  -10    8    7      2.94      0.00
  -10    8    6      2.00      0.00
  -10    8    5      1.12      0.00
  -10    8    4      0.27      0.00
  -10    8    3     -0.65      0.00
  -10    8    2     -1.49      0.00
  -10    8    1     -1.69      0.00
  -10    7   10     -1.18      0.00
  -10    7    9     -1.99      0.00
  -10    7    8     -2.06      0.00
  -10    7    7     -1.85      0.00
  -10    7    6     -2.14      0.00
  -10    7    5     -2.60      0.00
  -10    7    4     -2.54      0.00
  -10    7    3     -1.98      0.00
  -10    7    2     -1.38      0.00
  -10    7    1     -1.19      0.00
  -10    7    0     -1.35      0.00
  -10    6   10     -0.43      0.00
  -10    6    9     -0.67      0.00
  -10    6    8     -0.98      0.00
  -10    6    7     -0.60      0.00
  -10    6    6      0.64      0.00
  -10    6    5      1.67      0.00
  -10    6    4      2.01      0.00
  -10    6    3      2.35      0.00
  -10    6    2      2.98      0.00
  -10    6    1      3.51      0.00
  -10    6    0      3.47      0.00
   10   -6    1      2.48      0.00
  -10    5   10      1.52      0.00
  -10    5    9      2.26      0.00
  -10    5    8      2.72      0.00
  -10    5    7      2.35      0.00
  -10    5    6      1.44      0.00
  -10    5    5      0.94      0.00
  -10    5    4      0.50      0.00
  -10    5    3     -0.73      0.00
  -10    5    2     -2.34      0.00
  -10    5    1     -3.36      0.00
  -10    5    0     -3.44      0.00
   10   -5    1     -2.57      0.00
  -10    4   11     -0.55      0.00
  -10    4   10     -1.01      0.00
  -10    4    9     -1.31      0.00
  -10    4    8     -1.70      0.00
  -10    4    7     -1.89      0.00
  -10    4    6     -2.13      0.00
  -10    4    5     -2.62      0.00
  -10    4    4     -2.44      0.00
  -10    4    3     -1.14      0.00
  -10    4    2      0.32      0.00
  -10    4    1      1.26      0.00
  -10    4    0      1.71      0.00
   10   -4    1      1.47      0.00
  -10    3   11      0.18      0.00
  -10    3   10     -0.36      0.00
  -10    3    9     -0.97      0.00
  -10    3    8     -0.95      0.00
  -10    3    7     -0.34      0.00
  -10    3    6      0.90      0.00
  -10    3    5      2.32      0.00
  -10    3    4      2.72      0.00
  -10    3    3      2.11      0.00
  -10    3    2      1.50      0.00
  -10    3    1      0.92      0.00
  -10    3    0      0.25      0.00
   10   -3    1      0.08      0.00
  -10    2   11     -0.15      0.00
  -10    2   10      1.30      0.00
  -10    2    9      2.68      0.00
  -10    2    8      3.11      0.00
  -10    2    7      2.42      0.00
  -10    2    6      0.63      0.00
  -10    2    5     -1.29      0.00
  -10    2    4     -2.01      0.00
  -10    2    3     -1.84      0.00
  -10    2    2     -1.77      0.00
  -10    2    1     -1.61      0.00
  -10    2    0     -1.36      0.00
   10   -2    1     -1.47      0.00
  -10    1   11      0.47      0.00
  -10    1   10     -1.39      0.00
  -10    1    9     -2.98      0.00
  -10    1    8     -3.52      0.00
  -10    1    7     -2.82      0.00
  -10    1    6     -0.97      0.00
  -10    1    5      0.71      0.00
  -10    1    4      0.86      0.00
  -10    1    3      0.21      0.00
  -10    1    2     -0.04      0.00
  -10    1    1      0.19      0.00
  -10    1    0      0.95      0.00
   10   -1    1      1.93      0.00
  -10    0   10      0.88      0.00
  -10    0    9      2.02      0.00
  -10    0    8      2.27      0.00
  -10    0    7      1.57      0.00
  -10    0    6      0.09      0.00
  -10    0    5     -0.72      0.00
  -10    0    4      0.26      0.00
  -10    0    3      1.97      0.00
  -10    0    2      2.89      0.00
  -10    0    1      2.44      0.00
   10    0    0      0.61      0.00
   10    0    1     -1.29      0.00
  -10   -1   10     -0.27      0.00
  -10   -1    9     -0.60      0.00
  -10   -1    8     -0.33      0.00
  -10   -1    7      0.43      0.00
  -10   -1    6      1.40      0.00
  -10   -1    5      1.29      0.00
  -10   -1    4     -0.61      0.00
  -10   -1    3     -3.06      0.00
  -10   -1    2     -4.46      0.00
  -10   -1    1     -3.93      0.00
   10    1    0     -1.64      0.00
   10    1    1      0.50      0.00
  -10   -2   10      0.27      0.00
  -10   -2    9     -0.22      0.00
  -10   -2    8     -1.20      0.00
  -10   -2    7     -2.16      0.00
  -10   -2    6     -2.68      0.00
  -10   -2    5     -1.92      0.00
  -10   -2    4      0.18      0.00
  -10   -2    3      2.39      0.00
  -10   -2    2      3.51      0.00
  -10   -2    1      2.96      0.00
   10    2    0      1.11      0.00
  -10   -3   10     -0.95      0.00
  -10   -3    9      0.12      0.00
  -10   -3    8      1.65      0.00
  -10   -3    7      2.63      0.00
  -10   -3    6      2.64      0.00
  -10   -3    5      1.59      0.00
  -10   -3    4      0.03      0.00
  -10   -3    3     -1.05      0.00
  -10   -3    2     -1.34      0.00
  -10   -4   10      1.33      0.00
  -10   -4    9      0.20      0.00
  -10   -4    8     -1.15      0.00
  -10   -4    7     -1.64      0.00
  -10   -4    6     -1.25      0.00
  -10   -4    5     -0.38      0.00
  -11    9    8      0.96      0.00
  -11    9    7      0.23      0.00
  -11    9    6     -0.73      0.00
  -11    9    5     -1.54      0.00
  -11    8    9     -2.11      0.00
  -11    8    8     -1.83      0.00
  -11    8    7     -1.04      0.00
  -11    8    6     -0.48      0.00
  -11    8    5      0.04      0.00
  -11    7    9      1.88      0.00
  -11    7    8      1.68      0.00
  -11    7    7      1.64      0.00
  -11    7    6      1.96      0.00
  -11    7    5      1.82      0.00
  -11    6   10     -0.14      0.00
  -11    6    9     -0.33      0.00
  -11    6    8     -0.52      0.00
  -11    6    7     -1.26      0.00
  -11    6    6     -2.19      0.00
  -11    6    5     -2.40      0.00
  -11    6    4     -2.14      0.00
  -11    5   10     -0.92      0.00
  -11    5    9     -0.82      0.00
  -11    5    8     -0.67      0.00
  -11    5    7     -0.01      0.00
  -11    5    6      0.83      0.00
  -11    5    5      1.34      0.00
  -11    5    4      1.82      0.00
  -11    5    3      2.37      0.00
  -11    4   10      0.58      0.00
  -11    4    9      0.49      0.00
  -11    4    8      0.83      0.00
  -11    4    7      0.97      0.00
  -11    4    6      0.71      0.00
  -11    4    5      0.13      0.00
  -11    4    4     -0.80      0.00
  -11    4    3     -1.53      0.00
  -11    3   10      0.65      0.00
  -11    3    9      0.89      0.00
  -11    3    8      0.16      0.00
  -11    3    7     -0.75      0.00
  -11    3    6     -1.21      0.00
  -11    3    5     -0.93      0.00
  -11    3    4     -0.14      0.00
  -11    3    3      0.28      0.00
  -11    3    2      0.20      0.00
  -11    2   10     -1.67      0.00
  -11    2    9     -2.10      0.00
  -11    2    8     -1.35      0.00
  -11    2    7     -0.09      0.00
  -11    2    6      0.89      0.00
  -11    2    5      0.96      0.00
  -11    2    4      0.50      0.00
  -11    2    3      0.58      0.00
  -11    2    2      0.98      0.00
  -11    1   10      1.82      0.00
  -11    1    9      2.28      0.00
  -11    1    8      1.74      0.00
  -11    1    7      0.60      0.00
  -11    1    6     -0.37      0.00
  -11    1    5     -0.35      0.00
  -11    1    4      0.16      0.00
  -11    1    3     -0.09      0.00
  -11    1    2     -0.82      0.00
  -11    0   10     -1.11      0.00
  -11    0    9     -1.48      0.00
  -11    0    8     -1.31      0.00
  -11    0    7     -0.64      0.00
  -11    0    6     -0.10      0.00
  -11    0    5     -0.66      0.00
  -11    0    4     -1.74      0.00
  -11    0    3     -1.80      0.00
  -11    0    2     -0.89      0.00
  -11   -1   10      0.18      0.00
  -11   -1    9      0.49      0.00
  -11   -1    8      0.63      0.00
  -11   -1    7      0.35      0.00
  -11   -1    6      0.25      0.00
  -11   -1    5      1.35      0.00
  -11   -1    4      2.95      0.00
  -11   -1    3      3.37      0.00
  -11   -1    2      2.41      0.00
  -11   -2    9      0.19      0.00
  -11   -2    8      0.08      0.00
  -11   -2    7      0.21      0.00
  -11   -2    6      0.07      0.00
  -11   -2    5     -1.16      0.00
  -11   -2    4     -2.66      0.00
  -11   -2    3     -2.97      0.00
  -11   -3    7     -0.67      0.00
  -11   -3    6     -0.40      0.00
  -11   -3    5      0.51      0.00
    1    0    0    -46.15      0.00
   -1    1    0     36.36      0.00
    0    1    0    -56.22      0.00
    9    4    0      1.40      0.00
    8    6    0     -0.07      0.00
  -10    8    0     -0.98      0.00
  -10    9    0      1.37      0.00
    6    9    0      0.96      0.00
    5   10    0     -1.29      0.00
    4   11    0     -0.81      0.00
    3   12    0      0.14      0.00
   -7   13    0     -0.89      0.00
   -5   14    0     -0.48      0.00
   -4   14    0     -0.59      0.00
   -3   14    0      1.54      0.00
   -2   14    0     -1.57      0.00
   -1   14    0     -0.28      0.00
    3  -14    1      0.69      0.00
    4  -14    1      0.02      0.00
    5  -14    1     -0.22      0.00
    7  -13    1     -1.05      0.00
   -4  -11    1     -1.14      0.00
   -5  -10    1     -2.59      0.00
   -6   -9    1     -0.12      0.00
   -7   -8    1      0.13      0.00
   10   -8    1     -0.22      0.00
   10   -7    1     -1.10      0.00
   -8   -6    1      0.75      0.00
   -9   -4    1      0.64      0.00
    0   -1    1    -48.19      0.00
   -1    0    1    -59.81      0.00
    0    0    1     54.24      0.00
   -1    1    1     39.37      0.00
    0    1    1    -34.88      0.00
  -11    3    1      0.39      0.00
    9    3    1     -1.14      0.00
  -11    4    1     -1.34      0.00
  -11    5    1      1.76      0.00
    8    5    1      2.06      0.00
  -11    6    1     -1.40      0.00
    7    7    1      0.53      0.00
   -5   14    1      0.27      0.00
   -4   14    1     -1.41      0.00
   -3   14    1      1.80      0.00
   -2   14    1     -1.06      0.00
   -1   14    1     -0.62      0.00
    2  -14    2     -0.78      0.00
    3  -14    2      0.44      0.00
    4  -14    2     -0.41      0.00
    6  -13    2      2.37      0.00
   -7   -8    2     -0.02      0.00
   -8   -7    2     -0.37      0.00
   10   -6    2      1.00      0.00
   -9   -5    2      0.31      0.00
   10   -5    2     -1.31      0.00
   10   -4    2      0.80      0.00
   10   -3    2      0.27      0.00
    9    2    2      0.33      0.00
  -11    4    2     -1.57      0.00
  -11    5    2      2.36      0.00
  -11    6    2     -1.94      0.00
  -11    7    2      0.27      0.00
    6    8    2     -1.72      0.00
    5    9    2     -3.06      0.00
    3   11    2      0.57      0.00
    2   12    2     -0.51      0.00
   -5   14    2      0.86      0.00
   -4   14    2     -1.21      0.00
   -3   14    2      0.99      0.00
   -2   14    2     -0.18      0.00
    1  -14    3      0.86      0.00
    2  -14    3     -0.68      0.00
    3  -14    3      0.89      0.00
    4  -14    3     -1.16      0.00
    6  -13    3      1.47      0.00
    7  -12    3      1.39      0.00
   -8   -7    3     -0.16      0.00
   -9   -5    3      0.97      0.00
  -11    6    3     -2.07      0.00
  -11    7    3      0.48      0.00
  -11    8    3      1.31      0.00
   -5   14    3      0.78      0.00
   -4   14    3     -0.42      0.00
   -3   14    3      0.21      0.00
    1  -14    4      0.73      0.00
    2  -14    4     -1.06      0.00
    6  -12    4     -2.66      0.00
   -5  -11    4     -0.03      0.00
   -6  -10    4      0.57      0.00
   -8   -7    4      0.18      0.00
  -11    7    4      1.08      0.00
  -11    8    4      0.77      0.00
    1   12    4      0.13      0.00
   -7   13    4     -0.24      0.00
   -1   13    4     -0.85      0.00
   -5  -11    5     -0.80      0.00
   -6  -10    5     -0.57      0.00
   -9   -6    5     -0.33      0.00
   -7   13    5     -1.44      0.00
   -6   13    5      1.95      0.00
   -5   13    5     -0.71      0.00
   -4   13    5     -0.07      0.00
   -3   13    5     -0.10      0.00
   -2   13    5      0.32      0.00
   -6  -10    6     -0.31      0.00
   -9   -6    6     -0.12      0.00
   -5   13    6     -0.26      0.00
   -4   13    6      0.19      0.00
    5  -11    7     -0.57      0.00
   -7   12    7      1.21      0.00
    4  -11    8      0.69      0.00
    5   -9    8     -1.44      0.00
    2  -11    9     -0.22      0.00
    3  -10    9     -1.03      0.00
    4   -9    9     -0.28      0.00
    5   -8    9      1.15      0.00
    5   -4    9      2.59      0.00
    5    1    9      0.87      0.00
    4    3    9      1.10      0.00
    3    5    9      1.47      0.00
    2    7    9     -0.76      0.00
    1    8    9     -0.98      0.00
    0    9    9     -1.15      0.00
    2  -10   10      1.55      0.00
    3   -9   10      1.38      0.00
    4   -7   10     -0.84      0.00
    4    1   10     -0.88      0.00
    3    3   10     -0.83      0.00
    3    4   10     -0.48      0.00
    2    5   10     -1.67      0.00
    1   -9   11      2.13      0.00
   -5   -8   11      0.39      0.00
    2   -8   11      1.46      0.00
    3   -7   11      0.79      0.00
    3   -6   11      0.35      0.00
   -9   -4   11     -1.51      0.00
  -10   -1   11      0.64      0.00
  -10    0   11     -0.73      0.00
    3    1   11      0.79      0.00
    2    3   11      0.19      0.00
  -10    5   11      0.69      0.00
    1    5   11      1.81      0.00
  -10    6   11     -0.27      0.00
    0    6   11      0.08      0.00
   -1    7   11     -0.71      0.00
   -2    8   11      0.89      0.00
    0   -8   12      0.61      0.00
    1   -7   12     -0.62      0.00
    2   -6   12     -0.95      0.00
   -9   -2   12      0.38      0.00
  -10    1   12      1.35      0.00
    2    1   12     -0.37      0.00
  -10    2   12     -0.58      0.00
  -10    3   12      0.00      0.00
    1    3   12      0.40      0.00
    0    4   12      1.87      0.00
   -9    5   12      1.29      0.00
   -1    5   12      0.53      0.00
   -9    6   12      0.05      0.00
   -2    6   12     -0.60      0.00
   -1    6   12      0.13      0.00
   -8    7   12      2.45      0.00
   -3    7   12      0.44      0.00
   -7    8   12      2.27      0.00
   -6    8   12     -0.75      0.00
   -5    8   12      1.05      0.00
   -4    8   12     -0.55      0.00
   -1   -7   13     -0.48      0.00
    0   -6   13     -1.50      0.00
   -9    0   13      1.94      0.00
   -9    1   13     -1.51      0.00
   -9    2   13      0.17      0.00
    0    2   13     -0.58      0.00
   -9    3   13      1.04      0.00
   -1    3   13      1.03      0.00
   -8    4   13      1.58      0.00
   -2    4   13      0.93      0.00
   -1    4   13     -1.61      0.00
   -8    5   13     -1.25      0.00
   -3    5   13     -1.41      0.00
   -2    5   13     -0.44      0.00
   -7    6   13     -0.06      0.00
   -6    6   13     -1.10      0.00
   -5    6   13      2.50      0.00
   -4    6   13     -1.47      0.00
   -7    0   14     -2.19      0.00
   -8    1   14      0.03      0.00
   -7    1   14      0.94      0.00
   -7    2   14      0.88      0.00
   -3    2   14      0.87      0.00
   -2    2   14     -0.69      0.00
   -7    3   14     -2.00      0.00
   -6    3   14      2.80      0.00
   -5    3   14     -2.70      0.00
   -4    3   14      1.78      0.00
   -3    3   14      0.07      0.00
   -7    4   14      1.69      0.00
   -6    4   14     -3.29      0.00
   -5    4   14      3.30      0.00
   -4    4   14     -1.99      0.00
    0    0    0      0.00      0.00
# SQUEEZE RESULTS (Version =  21116)
# Note: Data are Listed for all Voids in the P1 Unit Cell
# i.e. Centre of Gravity, Solvent Accessible Volume,
# Recovered number of Electrons in the Void and
# Details about the Squeezed Material
loop_
  _platon_squeeze_void_nr
  _platon_squeeze_void_average_x
  _platon_squeeze_void_average_y
  _platon_squeeze_void_average_z
  _platon_squeeze_void_volume
  _platon_squeeze_void_count_electrons
  _platon_squeeze_void_content
   1  0.500  0.500  1.000       136        66 ' '
# Missing Reflections Below sin(th)/lambda = 0.25
loop_
  _platon_missing_refln_index_h
  _platon_missing_refln_index_k
  _platon_missing_refln_index_l
  _platon_missing_refln_theta
    1    0    0     2.578
   -1    1    0     2.723
    0    1    0     1.923
    0   -1    1     2.539
   -1    0    1     2.513
    0    0    1     1.961
   -1    1    1     2.861
    0    1    1     2.940
_platon_squeeze_void_probe_radius                  1.20
_platon_squeeze_details
)
TITL gmeauf5-21P -1 R = 0.05
CELL    8.9864   11.0902   11.4091     91.56    113.05    105.14
SPGR P-1
# Solvent Accessible Volume =       137
# Electrons Found in S.A.V. =        65
# Note: Atoms in Void as Cxxx and Qxxx all others
C101 0.617 0.557 0.142 !      18.57 eA-3
C102 0.630 0.354 0.059 !      18.09 eA-3
C103 0.432 0.511 0.015 !       5.46 eA-3
Q104 0.515 0.614 0.376 !       1.78 eA-3
C105 0.527 0.477 0.067 !       1.65 eA-3
Q106 0.057 0.456 0.140 !       1.54 eA-3
Q107 0.203 0.469 0.157 !       1.49 eA-3
Q108 0.162 0.502 0.106 !       1.45 eA-3
C109 0.471 0.612 0.018 !       1.44 eA-3
Q110 0.128 0.436 0.266 !       1.42 eA-3
Q111 0.682 0.643 0.220 !       1.27 eA-3
C112 0.604 0.434 0.066 !       1.27 eA-3
Q113 0.356 0.481 0.061 !       1.20 eA-3
Q114 0.252 0.471 0.264 !       1.16 eA-3
Q115 0.615 0.663 0.204 !       1.10 eA-3
Q116 0.721 0.344 0.142 !       1.09 eA-3
Q117 0.122 0.497 0.265 !       1.05 eA-3
C118 0.716 0.502 0.185 !       1.02 eA-3
Q119 1.015 0.704 0.404 !       1.02 eA-3
Q120 0.083 0.246 0.452 !       1.00 eA-3
Q121 0.221 0.450 0.063 !       1.00 eA-3
Q122 0.659 0.467 0.193 !       1.00 eA-3
Q123 0.286 0.420 0.190 !       1.00 eA-3
Q124 0.280 0.344 0.216 !       0.99 eA-3
C125 0.476 0.703 0.029 !       0.98 eA-3
Q126 0.782 0.596 0.093 !       0.96 eA-3
Q127 0.788 0.499 0.075 !       0.96 eA-3
Q128 0.717 0.579 0.220 !       0.95 eA-3
Q129 0.403 0.577 0.128 !       0.94 eA-3
Q130 0.205 0.688 0.124 !       0.90 eA-3
Q131 0.227 0.361 0.204 !       0.90 eA-3
C132 0.638 0.405 0.140 !       0.88 eA-3
Q133 0.523 0.675 0.292 !       0.86 eA-3
Q134 0.895 0.515 0.169 !       0.86 eA-3
C135 0.349 0.577 0.016 !       0.85 eA-3
Q136 0.054 0.343 0.207 !       0.83 eA-3
Q137 0.187 0.451 0.324 !       0.83 eA-3
Q138 0.553 0.264 0.065 !       0.82 eA-3
Q139 0.020 0.675 0.030 !       0.81 eA-3
Q140 0.645 0.570 0.235 !       0.81 eA-3
Q141 0.298 0.147 0.076 !       0.80 eA-3
Q142 0.311 0.592 0.266 !       0.80 eA-3
Q143 0.905 0.547 0.028 !       0.80 eA-3
Q144 0.718 0.352 0.016 !       0.80 eA-3
Q145 0.297 0.589 0.407 !       0.79 eA-3
Q146 0.860 0.709 0.453 !       0.79 eA-3
Q147 0.568 0.230 0.329 !       0.79 eA-3
Q148 0.094 0.569 0.186 !       0.79 eA-3
Q149 0.751 0.091 0.080 !       0.79 eA-3
Q150 0.186 0.606 0.093 !       0.78 eA-3
Q151 0.201 0.171 0.141 !       0.78 eA-3
Q152 0.394 0.955 0.253 !       0.78 eA-3
Q153 0.418 0.658 0.348 !       0.78 eA-3
Q154 0.774 0.351 0.372 !       0.77 eA-3
Q155 0.714 0.650 0.169 !       0.76 eA-3
Q156 0.999 0.580 0.220 !       0.76 eA-3
Q157 0.701 0.423 0.159 !       0.76 eA-3
Q158 0.286 0.488 0.127 !       0.75 eA-3
Q159 0.597 0.530 0.300 !       0.75 eA-3
Q160 0.282 0.047 0.199 !       0.75 eA-3
Q161 0.497 0.428 0.434 !       0.75 eA-3
Q162 0.118 0.360 0.252 !       0.74 eA-3
Q163 0.198 0.328-0.005 !       0.74 eA-3
Q164 0.530 0.076 0.497 !       0.74 eA-3
Q165 0.846 0.441 0.138 !       0.74 eA-3
Q166 0.849 0.515 0.975 !       0.74 eA-3
Q167 0.279 0.542 0.310 !       0.74 eA-3
Q168 0.716 0.905 0.034 !       0.74 eA-3
Q169 0.883 0.293 0.034 !       0.74 eA-3
Q170 0.114 0.280 0.359 !       0.74 eA-3
Q171 0.217 0.564 0.079 !       0.73 eA-3
Q172 0.650 0.391 0.220 !       0.73 eA-3
Q173 0.063 0.518 0.238 !       0.72 eA-3
Q174 0.717 0.299 0.064 !       0.72 eA-3
Q175 0.067 0.139 0.440 !       0.72 eA-3
Q176 0.342 0.277 0.005 !       0.71 eA-3
Q177 0.209 0.659 0.013 !       0.70 eA-3
Q178 0.421 0.675 0.155 !       0.70 eA-3
Q179 0.752 0.706 0.456 !       0.70 eA-3
Q180 0.984 0.281 0.081 !       0.70 eA-3
Q181 0.656 0.265 0.047 !       0.70 eA-3
Q182 0.628 0.916 0.327 !       0.69 eA-3
Q183 0.784 0.281 0.078 !       0.69 eA-3
Q184 0.540 0.200 0.237 !       0.69 eA-3
Q185 0.747 0.482 0.401 !       0.68 eA-3
Q186 0.257 0.176 0.078 !       0.68 eA-3
Q187 0.758 0.343 0.079 !       0.68 eA-3
Q188 0.997 0.017 0.263 !       0.68 eA-3
Q189 0.840 0.437 0.217 !       0.68 eA-3
Q190 0.777 0.252 0.002 !       0.68 eA-3
Q191 0.807 0.563 0.029 !       0.68 eA-3
Q192 1.001 0.361 0.068 !       0.68 eA-3
Q193 0.465 0.550 0.430 !       0.67 eA-3
Q194 0.380 0.358 0.137 !       0.67 eA-3
Q195 0.028 0.667 0.147 !       0.67 eA-3
Q196 0.827 0.323 0.113 !       0.67 eA-3
Q197 0.543 0.888 0.013 !       0.66 eA-3
Q198 0.411 0.176 0.454 !       0.66 eA-3
Q199 0.021 0.527 0.095 !       0.66 eA-3
)
;
_shelx_fab_checksum              70141
loop_
_symmetry_equiv_pos_as_xyz
'x, y, z'
'-x, -y, -z'
loop_
_atom_site_label
_atom_site_type_symbol
_atom_site_fract_x
_atom_site_fract_y
_atom_site_fract_z
_atom_site_U_iso_or_equiv
_atom_site_adp_type
_atom_site_occupancy
_atom_site_site_symmetry_order
_atom_site_calc_flag
_atom_site_refinement_flags_posn
_atom_site_refinement_flags_adp
C1 C 0.0971(5) 0.2166(4) 0.0001(4) 0.0194(9) Uani 1 1 d . .
C2 C 0.0137(6) 0.1229(4) -0.1070(4) 0.0219(10) Uani 1 1 d . .
C3 C 0.0795(6) 0.0287(4) -0.1269(4) 0.0236(10) Uani 1 1 d . .
C4 C 0.2324(6) 0.0229(4) -0.0379(5) 0.0249(10) Uani 1 1 d . .
C5 C 0.3192(6) 0.1116(4) 0.0694(4) 0.0250(10) Uani 1 1 d . .
C6 C 0.2507(6) 0.2062(4) 0.0867(4) 0.0209(9) Uani 1 1 d . .
C7 C 0.4381(5) 0.5200(4) 0.5219(4) 0.0170(9) Uani 1 1 d . .
H7A H 0.502703 0.581503 0.602011 0.02 Uiso 1 1 calc R U
H7B H 0.367108 0.445328 0.540727 0.02 Uiso 1 1 calc R U
C8 C 0.1708(5) 0.6408(4) 0.4631(4) 0.0158(8) Uani 1 1 d . .
C9 C 0.0337(6) 0.6761(4) 0.3797(5) 0.0241(10) Uani 1 1 d . .
H9 H 0.006983 0.668155 0.290086 0.029 Uiso 1 1 calc R U
C10 C -0.0645(6) 0.7231(4) 0.4268(5) 0.0329(12) Uani 1 1 d . .
H10 H -0.156382 0.749097 0.369666 0.039 Uiso 1 1 calc R U
C11 C -0.0293(6) 0.7319(4) 0.5547(5) 0.0285(11) Uani 1 1 d . .
H11 H -0.098064 0.763009 0.585686 0.034 Uiso 1 1 calc R U
C12 C 0.1056(6) 0.6962(4) 0.6405(5) 0.0281(11) Uani 1 1 d . .
H12 H 0.129944 0.703151 0.729718 0.034 Uiso 1 1 calc R U
C13 C 0.2047(6) 0.6499(4) 0.5935(4) 0.0220(10) Uani 1 1 d . .
H13 H 0.296556 0.624303 0.651112 0.026 Uiso 1 1 calc R U
C14 C 0.4469(5) 0.7377(4) 0.3903(4) 0.0155(8) Uani 1 1 d . .
C15 C 0.5521(6) 0.8257(4) 0.4996(4) 0.0268(11) Uani 1 1 d . .
H15 H 0.548792 0.810247 0.580179 0.032 Uiso 1 1 calc R U
C16 C 0.6618(6) 0.9358(4) 0.4918(5) 0.0326(12) Uani 1 1 d . .
H16 H 0.734458 0.995026 0.567152 0.039 Uiso 1 1 calc R U
C17 C 0.6656(6) 0.9594(4) 0.3756(5) 0.0324(12) Uani 1 1 d . .
H17 H 0.740318 1.035232 0.370173 0.039 Uiso 1 1 calc R U
C18 C 0.5608(6) 0.8727(4) 0.2666(5) 0.0304(11) Uani 1 1 d . .
H18 H 0.563778 0.888938 0.186074 0.036 Uiso 1 1 calc R U
C19 C 0.4522(5) 0.7631(4) 0.2738(4) 0.0198(9) Uani 1 1 d . .
H19 H 0.380068 0.704239 0.198057 0.024 Uiso 1 1 calc R U
Au1 Au 0.15810(2) 0.46326(2) 0.20637(2) 0.01601(6) Uani 1 1 d . .
F1 F 0.3468(3) 0.2910(2) 0.1948(2) 0.0336(7) Uani 1 1 d . .
F2 F 0.4694(4) 0.1102(3) 0.1580(3) 0.0369(7) Uani 1 1 d . .
F3 F 0.2968(4) -0.0687(2) -0.0567(3) 0.0360(7) Uani 1 1 d . .
F4 F -0.0079(4) -0.0588(3) -0.2322(3) 0.0386(7) Uani 1 1 d . .
F5 F -0.1384(3) 0.1220(2) -0.1964(2) 0.0313(6) Uani 1 1 d . .
P1 P 0.30249(13) 0.59140(9) 0.39730(10) 0.0130(2) Uani 1 1 d . .
S1 S 0.00411(14) 0.33521(11) 0.00931(10) 0.0237(2) Uani 1 1 d . .
loop_
_atom_site_aniso_label
_atom_site_aniso_U_11
_atom_site_aniso_U_22
_atom_site_aniso_U_33
_atom_site_aniso_U_23
_atom_site_aniso_U_13
_atom_site_aniso_U_12
C1 0.022(2) 0.015(2) 0.019(2) 0.0001(18) 0.0077(19) 0.0039(18)
C2 0.027(3) 0.021(2) 0.016(2) 0.0005(18) 0.0071(19) 0.0057(19)
C3 0.031(3) 0.021(2) 0.017(2) -0.0034(19) 0.012(2) 0.002(2)
C4 0.033(3) 0.016(2) 0.032(3) 0.003(2) 0.019(2) 0.011(2)
C5 0.026(3) 0.025(3) 0.026(3) 0.004(2) 0.010(2) 0.010(2)
C6 0.026(2) 0.018(2) 0.018(2) -0.0009(18) 0.0072(19) 0.0068(19)
C7 0.016(2) 0.016(2) 0.017(2) 0.0011(17) 0.0028(17) 0.0073(17)
C8 0.013(2) 0.012(2) 0.022(2) -0.0010(17) 0.0077(17) 0.0024(16)
C9 0.021(2) 0.022(2) 0.027(3) -0.0033(19) 0.007(2) 0.0094(19)
C10 0.021(3) 0.029(3) 0.046(3) -0.005(2) 0.009(2) 0.014(2)
C11 0.019(2) 0.017(2) 0.050(3) -0.008(2) 0.019(2) 0.0001(19)
C12 0.026(3) 0.023(2) 0.034(3) -0.008(2) 0.015(2) 0.001(2)
C13 0.023(2) 0.024(2) 0.021(2) 0.0019(19) 0.0106(19) 0.0088(19)
C14 0.013(2) 0.012(2) 0.019(2) 0.0045(17) 0.0029(17) 0.0069(16)
C15 0.030(3) 0.017(2) 0.024(3) 0.0008(19) 0.003(2) 0.005(2)
C16 0.031(3) 0.017(2) 0.035(3) 0.002(2) 0.000(2) 0.004(2)
C17 0.023(3) 0.020(2) 0.053(3) 0.014(2) 0.014(2) 0.005(2)
C18 0.037(3) 0.025(3) 0.038(3) 0.014(2) 0.022(2) 0.012(2)
C19 0.022(2) 0.019(2) 0.021(2) 0.0022(18) 0.0112(19) 0.0079(18)
Au1 0.01556(9) 0.01568(10) 0.01509(10) -0.00087(6) 0.00457(7) 0.00497(7)
F1 0.0278(16) 0.0305(15) 0.0284(15) -0.0124(12) -0.0059(12) 0.0154(12)
F2 0.0298(16) 0.0341(16) 0.0404(17) -0.0014(13) 0.0020(13) 0.0197(13)
F3 0.0436(18) 0.0265(15) 0.0452(18) -0.0031(13) 0.0226(15) 0.0163(13)
F4 0.0478(19) 0.0319(16) 0.0277(16) -0.0139(13) 0.0089(14) 0.0107(14)
F5 0.0286(16) 0.0337(16) 0.0202(14) -0.0067(12) -0.0009(12) 0.0089(12)
P1 0.0133(5) 0.0116(5) 0.0142(5) 0.0014(4) 0.0043(4) 0.0061(4)
S1 0.0235(6) 0.0225(6) 0.0186(6) -0.0044(5) -0.0007(5) 0.0119(5)
loop_
_atom_type_symbol
_atom_type_description
_atom_type_scat_dispersion_real
_atom_type_scat_dispersion_imag
_atom_type_scat_source
C C 0.0033 0.0016 'International Tables Vol C Tables 4.2.6.8 and 6.1.1.4'
H H 0 0 'International Tables Vol C Tables 4.2.6.8 and 6.1.1.4'
Au Au -2.0133 8.8022 'International Tables Vol C Tables 4.2.6.8 and 6.1.1.4'
Cl Cl 0.1484 0.1585 'International Tables Vol C Tables 4.2.6.8 and 6.1.1.4'
F F 0.0171 0.0103 'International Tables Vol C Tables 4.2.6.8 and 6.1.1.4'
P P 0.1023 0.0942 'International Tables Vol C Tables 4.2.6.8 and 6.1.1.4'
S S 0.1246 0.1234 'International Tables Vol C Tables 4.2.6.8 and 6.1.1.4'
loop_
_exptl_crystal_face_index_h
_exptl_crystal_face_index_k
_exptl_crystal_face_index_l
_exptl_crystal_face_perp_dist
-12 5 11 0.1518
12 -5 -11 0.1518
2 -2 13 0.2742
-2 2 -13 0.2742
1 14 -2 0.0292
-1 -14 2 0.0292
8 -4 7 0.2615
-8 4 -7 0.2615
loop_
_geom_angle_atom_site_label_1
_geom_angle_atom_site_label_2
_geom_angle_atom_site_label_3
_geom_angle
_geom_angle_site_symmetry_1
C6 C1 C2 114.3(4) .
C6 C1 S1 127.3(3) .
C2 C1 S1 118.4(3) .
F5 C2 C3 117.3(4) .
F5 C2 C1 119.6(4) .
C3 C2 C1 123.1(4) .
F4 C3 C4 119.9(4) .
F4 C3 C2 120.0(4) .
C4 C3 C2 120.1(4) .
F3 C4 C5 120.3(4) .
F3 C4 C3 120.4(4) .
C5 C4 C3 119.4(4) .
F2 C5 C4 121.4(4) .
F2 C5 C6 119.2(4) .
C4 C5 C6 119.4(4) .
F1 C6 C1 121.1(4) .
F1 C6 C5 115.3(4) .
C1 C6 C5 123.6(4) .
C7 C7 P1 110.7(4) 2_666
C7 C7 H7A 109.5 2_666
P1 C7 H7A 109.5 .
C7 C7 H7B 109.5 2_666
P1 C7 H7B 109.5 .
H7A C7 H7B 108.1 .
C9 C8 C13 118.8(4) .
C9 C8 P1 118.0(3) .
C13 C8 P1 123.1(3) .
C8 C9 C10 120.3(4) .
C8 C9 H9 119.8 .
C10 C9 H9 119.8 .
C11 C10 C9 120.1(5) .
C11 C10 H10 119.9 .
C9 C10 H10 119.9 .
C10 C11 C12 121.1(4) .
C10 C11 H11 119.5 .
C12 C11 H11 119.5 .
C11 C12 C13 118.8(5) .
C11 C12 H12 120.6 .
C13 C12 H12 120.6 .
C8 C13 C12 120.8(4) .
C8 C13 H13 119.6 .
C12 C13 H13 119.6 .
C19 C14 C15 118.8(4) .
C19 C14 P1 119.7(3) .
C15 C14 P1 121.5(3) .
C16 C15 C14 120.4(5) .
C16 C15 H15 119.8 .
C14 C15 H15 119.8 .
C17 C16 C15 120.1(5) .
C17 C16 H16 120 .
C15 C16 H16 120 .
C16 C17 C18 119.8(4) .
C16 C17 H17 120.1 .
C18 C17 H17 120.1 .
C19 C18 C17 120.4(5) .
C19 C18 H18 119.8 .
C17 C18 H18 119.8 .
C18 C19 C14 120.5(4) .
C18 C19 H19 119.7 .
C14 C19 H19 119.7 .
P1 Au1 S1 178.27(4) .
C8 P1 C14 104.80(18) .
C8 P1 C7 106.34(19) .
C14 P1 C7 104.15(19) .
C8 P1 Au1 114.54(14) .
C14 P1 Au1 113.28(14) .
C7 P1 Au1 112.81(13) .
C1 S1 Au1 109.85(15) .
loop_
_geom_bond_atom_site_label_1
_geom_bond_atom_site_label_2
_geom_bond_distance
_geom_bond_site_symmetry_2
C1 C6 1.385(6) .
C1 C2 1.393(6) .
C1 S1 1.753(4) .
C2 F5 1.346(5) .
C2 C3 1.381(6) .
C3 F4 1.342(5) .
C3 C4 1.371(6) .
C4 F3 1.343(5) .
C4 C5 1.364(6) .
C5 F2 1.337(5) .
C5 C6 1.392(6) .
C6 F1 1.353(5) .
C7 C7 1.539(8) 2_666
C7 P1 1.828(4) .
C7 H7A 0.99 .
C7 H7B 0.99 .
C8 C9 1.389(6) .
C8 C13 1.391(6) .
C8 P1 1.810(4) .
C9 C10 1.392(6) .
C9 H9 0.95 .
C10 C11 1.360(7) .
C10 H10 0.95 .
C11 C12 1.389(7) .
C11 H11 0.95 .
C12 C13 1.393(6) .
C12 H12 0.95 .
C13 H13 0.95 .
C14 C19 1.383(6) .
C14 C15 1.389(6) .
C14 P1 1.820(4) .
C15 C16 1.383(6) .
C15 H15 0.95 .
C16 C17 1.370(7) .
C16 H16 0.95 .
C17 C18 1.380(7) .
C17 H17 0.95 .
C18 C19 1.373(6) .
C18 H18 0.95 .
C19 H19 0.95 .
Au1 P1 2.2590(11) .
Au1 S1 2.3130(11) .
loop_
_geom_torsion_atom_site_label_1
_geom_torsion_atom_site_label_2
_geom_torsion_atom_site_label_3
_geom_torsion_atom_site_label_4
_geom_torsion
_geom_torsion_site_symmetry_1
C6 C1 C2 F5 178.7(4) .
S1 C1 C2 F5 -3.3(6) .
C6 C1 C2 C3 -1.3(7) .
S1 C1 C2 C3 176.8(4) .
F5 C2 C3 F4 0.0(6) .
C1 C2 C3 F4 179.9(4) .
F5 C2 C3 C4 -178.6(4) .
C1 C2 C3 C4 1.3(7) .
F4 C3 C4 F3 1.2(7) .
C2 C3 C4 F3 179.9(4) .
F4 C3 C4 C5 -179.3(4) .
C2 C3 C4 C5 -0.7(7) .
F3 C4 C5 F2 0.1(7) .
C3 C4 C5 F2 -179.4(4) .
F3 C4 C5 C6 179.6(4) .
C3 C4 C5 C6 0.1(7) .
C2 C1 C6 F1 179.5(4) .
S1 C1 C6 F1 1.6(7) .
C2 C1 C6 C5 0.7(7) .
S1 C1 C6 C5 -177.2(4) .
F2 C5 C6 F1 0.5(6) .
C4 C5 C6 F1 -179.0(4) .
F2 C5 C6 C1 179.3(4) .
C4 C5 C6 C1 -0.2(7) .
C13 C8 C9 C10 1.8(6) .
P1 C8 C9 C10 -175.6(4) .
C8 C9 C10 C11 -1.6(7) .
C9 C10 C11 C12 0.9(7) .
C10 C11 C12 C13 -0.4(7) .
C9 C8 C13 C12 -1.4(6) .
P1 C8 C13 C12 175.8(3) .
C11 C12 C13 C8 0.7(7) .
C19 C14 C15 C16 -0.9(6) .
P1 C14 C15 C16 179.5(3) .
C14 C15 C16 C17 0.8(7) .
C15 C16 C17 C18 -0.5(7) .
C16 C17 C18 C19 0.2(7) .
C17 C18 C19 C14 -0.3(7) .
C15 C14 C19 C18 0.7(6) .
P1 C14 C19 C18 -179.7(3) .
C9 C8 P1 C14 82.2(4) .
C13 C8 P1 C14 -95.1(4) .
C9 C8 P1 C7 -167.9(3) .
C13 C8 P1 C7 14.9(4) .
C9 C8 P1 Au1 -42.6(4) .
C13 C8 P1 Au1 140.2(3) .
C19 C14 P1 C8 -122.2(3) .
C15 C14 P1 C8 57.4(4) .
C19 C14 P1 C7 126.3(3) .
C15 C14 P1 C7 -54.1(4) .
C19 C14 P1 Au1 3.4(4) .
C15 C14 P1 Au1 -177.0(3) .
C7 C7 P1 C8 -177.4(4) 2_666
C7 C7 P1 C14 -67.0(4) 2_666
C7 C7 P1 Au1 56.3(4) 2_666
C6 C1 S1 Au1 -8.0(4) .
C2 C1 S1 Au1 174.2(3) .
